data_str_m2_o10_o16_pcu_sym.91
_audit_creation_date              2020-01-03
_audit_creation_method            'Materials Studio'
_symmetry_space_group_name_H-M    'P1'
_symmetry_Int_Tables_number       1
_symmetry_cell_setting            triclinic
loop_
_symmetry_equiv_pos_as_xyz
  x,y,z
_cell_length_a                    22.2730
_cell_length_b                    26.0832
_cell_length_c                    26.8097
_cell_angle_alpha                 94.0218
_cell_angle_beta                  77.1485
_cell_angle_gamma                 103.1712
loop_
_atom_site_label
_atom_site_type_symbol
_atom_site_fract_x
_atom_site_fract_y
_atom_site_fract_z
_atom_site_U_iso_or_equiv
_atom_site_adp_type
_atom_site_occupancy
O1     O     0.12797   0.23807   0.24633   0.00000  Uiso   1.00
O2     O     0.22858   0.24755   0.25586   0.00000  Uiso   1.00
C3     C     0.18179   0.26674   0.25151   0.00000  Uiso   1.00
O4     O     0.09181   0.15960   0.31839   0.00000  Uiso   1.00
O5     O     0.19242   0.16908   0.32793   0.00000  Uiso   1.00
C6     C     0.13298   0.16576   0.34728   0.00000  Uiso   1.00
Cu7    Cu    0.10710   0.16105   0.24435   0.00000  Uiso   1.00
Cu8    Cu    0.22623   0.17228   0.25564   0.00000  Uiso   1.00
O9     O     0.10476   0.08578   0.24413   0.00000  Uiso   1.00
O10    O     0.20536   0.09526   0.25367   0.00000  Uiso   1.00
O11    O     0.14092   0.16425   0.17207   0.00000  Uiso   1.00
O12    O     0.24152   0.17373   0.18160   0.00000  Uiso   1.00
C13    C     0.15155   0.06659   0.24848   0.00000  Uiso   1.00
C14    C     0.20100   0.17079   0.15278   0.00000  Uiso   1.00
C15    C     0.29285   0.22772   0.02512   0.00000  Uiso   1.00
H16    H     0.00494   0.25225   0.00845   0.00000  Uiso   1.00
C17    C     0.22243   0.17952   0.09727   0.00000  Uiso   1.00
C18    C     0.05085   0.13580   0.42432   0.00000  Uiso   1.00
C19    C     0.03359   0.12385   0.47589   0.00000  Uiso   1.00
C20    C     0.07746   0.13787   0.00694   0.00000  Uiso   1.00
C21    C     0.13926   0.16735   0.48759   0.00000  Uiso   1.00
C22    C     0.15439   0.18407   0.43614   0.00000  Uiso   1.00
C23    C     0.18653   0.18109   0.01745   0.00000  Uiso   1.00
C24    C     0.24559   0.21423   0.49671   0.00000  Uiso   1.00
C25    C     0.25674   0.23463   0.44808   0.00000  Uiso   1.00
C26    C     0.21150   0.22060   0.41863   0.00000  Uiso   1.00
C27    C     0.17700   0.16309   0.06733   0.00000  Uiso   1.00
C28    C     0.28216   0.21056   0.07519   0.00000  Uiso   1.00
C29    C     0.11183   0.16400   0.40345   0.00000  Uiso   1.00
H30    H     0.13357   0.13703   0.08466   0.00000  Uiso   1.00
H31    H     0.06094   0.12565   0.04603   0.00000  Uiso   1.00
H32    H     0.31978   0.10179   0.49157   0.00000  Uiso   1.00
C33    C     0.19031   0.32270   0.25224   0.00000  Uiso   1.00
C34    C     0.14304   0.01063   0.24771   0.00000  Uiso   1.00
H35    H     0.09749   0.32015   0.24342   0.00000  Uiso   1.00
N36    N     0.31574   0.18074   0.26416   0.00000  Uiso   1.00
N37    N     0.01759   0.15259   0.23584   0.00000  Uiso   1.00
H38    H     0.32957   0.12721   0.21061   0.00000  Uiso   1.00
N39    N     0.33154   0.22673   0.10313   0.00000  Uiso   1.00
O40    O     0.02067   0.19134   0.12048   0.00000  Uiso   1.00
O41    O     0.02989   0.27536   0.10117   0.00000  Uiso   1.00
H42    H     0.00369   0.20602   0.28950   0.00000  Uiso   1.00
H43    H     0.30074   0.26173   0.43268   0.00000  Uiso   1.00
H44    H     0.01714   0.12109   0.40033   0.00000  Uiso   1.00
H45    H     0.22160   0.23966   0.38225   0.00000  Uiso   1.00
H46    H     0.23586   0.01317   0.25653   0.00000  Uiso   1.00
O47    O     0.46131   0.23807   0.24633   0.00000  Uiso   1.00
O48    O     0.56191   0.24755   0.25586   0.00000  Uiso   1.00
C49    C     0.51512   0.26674   0.25151   0.00000  Uiso   1.00
O50    O     0.42515   0.15960   0.31839   0.00000  Uiso   1.00
O51    O     0.52575   0.16908   0.32793   0.00000  Uiso   1.00
C52    C     0.46631   0.16576   0.34728   0.00000  Uiso   1.00
Cu53   Cu    0.44043   0.16105   0.24435   0.00000  Uiso   1.00
Cu54   Cu    0.55957   0.17228   0.25564   0.00000  Uiso   1.00
O55    O     0.43809   0.08578   0.24413   0.00000  Uiso   1.00
O56    O     0.53869   0.09526   0.25367   0.00000  Uiso   1.00
O57    O     0.47425   0.16425   0.17207   0.00000  Uiso   1.00
O58    O     0.57485   0.17373   0.18160   0.00000  Uiso   1.00
C59    C     0.48489   0.06659   0.24848   0.00000  Uiso   1.00
C60    C     0.53434   0.17079   0.15278   0.00000  Uiso   1.00
C61    C     0.62618   0.22772   0.02512   0.00000  Uiso   1.00
H62    H     0.33828   0.25225   0.00845   0.00000  Uiso   1.00
C63    C     0.55577   0.17952   0.09727   0.00000  Uiso   1.00
C64    C     0.38419   0.13580   0.42432   0.00000  Uiso   1.00
C65    C     0.36692   0.12385   0.47589   0.00000  Uiso   1.00
C66    C     0.41080   0.13787   0.00694   0.00000  Uiso   1.00
C67    C     0.47260   0.16735   0.48759   0.00000  Uiso   1.00
C68    C     0.48773   0.18407   0.43614   0.00000  Uiso   1.00
C69    C     0.51986   0.18109   0.01745   0.00000  Uiso   1.00
C70    C     0.57893   0.21423   0.49671   0.00000  Uiso   1.00
C71    C     0.59007   0.23463   0.44808   0.00000  Uiso   1.00
C72    C     0.54484   0.22060   0.41863   0.00000  Uiso   1.00
C73    C     0.51033   0.16309   0.06733   0.00000  Uiso   1.00
C74    C     0.61549   0.21056   0.07519   0.00000  Uiso   1.00
C75    C     0.44516   0.16400   0.40345   0.00000  Uiso   1.00
H76    H     0.46691   0.13703   0.08466   0.00000  Uiso   1.00
H77    H     0.39427   0.12565   0.04603   0.00000  Uiso   1.00
H78    H     0.65311   0.10179   0.49157   0.00000  Uiso   1.00
C79    C     0.52364   0.32270   0.25224   0.00000  Uiso   1.00
C80    C     0.47637   0.01063   0.24771   0.00000  Uiso   1.00
H81    H     0.43082   0.32015   0.24342   0.00000  Uiso   1.00
N82    N     0.64908   0.18074   0.26416   0.00000  Uiso   1.00
N83    N     0.35092   0.15259   0.23584   0.00000  Uiso   1.00
H84    H     0.66291   0.12721   0.21061   0.00000  Uiso   1.00
N85    N     0.66488   0.22673   0.10313   0.00000  Uiso   1.00
O86    O     0.35400   0.19134   0.12048   0.00000  Uiso   1.00
O87    O     0.36323   0.27536   0.10117   0.00000  Uiso   1.00
H88    H     0.33703   0.20602   0.28950   0.00000  Uiso   1.00
H89    H     0.63407   0.26173   0.43268   0.00000  Uiso   1.00
H90    H     0.35048   0.12109   0.40033   0.00000  Uiso   1.00
H91    H     0.55493   0.23966   0.38225   0.00000  Uiso   1.00
H92    H     0.56920   0.01317   0.25653   0.00000  Uiso   1.00
O93    O     0.79464   0.23807   0.24633   0.00000  Uiso   1.00
O94    O     0.89524   0.24755   0.25586   0.00000  Uiso   1.00
C95    C     0.84845   0.26674   0.25151   0.00000  Uiso   1.00
O96    O     0.75848   0.15960   0.31839   0.00000  Uiso   1.00
O97    O     0.85908   0.16908   0.32793   0.00000  Uiso   1.00
C98    C     0.79965   0.16576   0.34728   0.00000  Uiso   1.00
Cu99   Cu    0.77377   0.16105   0.24435   0.00000  Uiso   1.00
Cu100  Cu    0.89290   0.17228   0.25564   0.00000  Uiso   1.00
O101   O     0.77142   0.08578   0.24413   0.00000  Uiso   1.00
O102   O     0.87203   0.09526   0.25367   0.00000  Uiso   1.00
O103   O     0.80758   0.16425   0.17207   0.00000  Uiso   1.00
O104   O     0.90819   0.17373   0.18160   0.00000  Uiso   1.00
C105   C     0.81822   0.06659   0.24848   0.00000  Uiso   1.00
C106   C     0.86767   0.17079   0.15278   0.00000  Uiso   1.00
C107   C     0.95951   0.22772   0.02512   0.00000  Uiso   1.00
H108   H     0.67161   0.25225   0.00845   0.00000  Uiso   1.00
C109   C     0.88910   0.17952   0.09727   0.00000  Uiso   1.00
C110   C     0.71752   0.13580   0.42432   0.00000  Uiso   1.00
C111   C     0.70026   0.12385   0.47589   0.00000  Uiso   1.00
C112   C     0.74413   0.13787   0.00694   0.00000  Uiso   1.00
C113   C     0.80593   0.16735   0.48759   0.00000  Uiso   1.00
C114   C     0.82106   0.18407   0.43614   0.00000  Uiso   1.00
C115   C     0.85319   0.18109   0.01745   0.00000  Uiso   1.00
C116   C     0.91226   0.21423   0.49671   0.00000  Uiso   1.00
C117   C     0.92341   0.23463   0.44808   0.00000  Uiso   1.00
C118   C     0.87817   0.22060   0.41863   0.00000  Uiso   1.00
C119   C     0.84367   0.16309   0.06733   0.00000  Uiso   1.00
C120   C     0.94882   0.21056   0.07519   0.00000  Uiso   1.00
C121   C     0.77850   0.16400   0.40345   0.00000  Uiso   1.00
H122   H     0.80024   0.13703   0.08466   0.00000  Uiso   1.00
H123   H     0.72760   0.12565   0.04603   0.00000  Uiso   1.00
H124   H     0.98644   0.10179   0.49157   0.00000  Uiso   1.00
C125   C     0.85698   0.32270   0.25224   0.00000  Uiso   1.00
C126   C     0.80971   0.01063   0.24771   0.00000  Uiso   1.00
H127   H     0.76415   0.32015   0.24342   0.00000  Uiso   1.00
N128   N     0.98241   0.18074   0.26416   0.00000  Uiso   1.00
N129   N     0.68426   0.15259   0.23584   0.00000  Uiso   1.00
H130   H     0.99624   0.12721   0.21061   0.00000  Uiso   1.00
N131   N     0.99821   0.22673   0.10313   0.00000  Uiso   1.00
O132   O     0.68734   0.19134   0.12048   0.00000  Uiso   1.00
O133   O     0.69656   0.27536   0.10117   0.00000  Uiso   1.00
H134   H     0.67036   0.20602   0.28950   0.00000  Uiso   1.00
H135   H     0.96741   0.26173   0.43268   0.00000  Uiso   1.00
H136   H     0.68381   0.12109   0.40033   0.00000  Uiso   1.00
H137   H     0.88826   0.23966   0.38225   0.00000  Uiso   1.00
H138   H     0.90253   0.01317   0.25653   0.00000  Uiso   1.00
O139   O     0.12797   0.57141   0.24633   0.00000  Uiso   1.00
O140   O     0.22858   0.58089   0.25586   0.00000  Uiso   1.00
C141   C     0.18179   0.60007   0.25151   0.00000  Uiso   1.00
O142   O     0.09181   0.49293   0.31839   0.00000  Uiso   1.00
O143   O     0.19242   0.50241   0.32793   0.00000  Uiso   1.00
C144   C     0.13298   0.49910   0.34728   0.00000  Uiso   1.00
Cu145  Cu    0.10710   0.49439   0.24435   0.00000  Uiso   1.00
Cu146  Cu    0.22623   0.50561   0.25564   0.00000  Uiso   1.00
O147   O     0.10476   0.41911   0.24413   0.00000  Uiso   1.00
O148   O     0.20536   0.42859   0.25367   0.00000  Uiso   1.00
O149   O     0.14092   0.49759   0.17207   0.00000  Uiso   1.00
O150   O     0.24152   0.50707   0.18160   0.00000  Uiso   1.00
C151   C     0.15155   0.39992   0.24848   0.00000  Uiso   1.00
C152   C     0.20100   0.50413   0.15278   0.00000  Uiso   1.00
C153   C     0.29285   0.56106   0.02512   0.00000  Uiso   1.00
H154   H     0.00494   0.58558   0.00845   0.00000  Uiso   1.00
C155   C     0.22243   0.51285   0.09727   0.00000  Uiso   1.00
C156   C     0.05085   0.46913   0.42432   0.00000  Uiso   1.00
C157   C     0.03359   0.45718   0.47589   0.00000  Uiso   1.00
C158   C     0.07746   0.47121   0.00694   0.00000  Uiso   1.00
C159   C     0.13926   0.50069   0.48759   0.00000  Uiso   1.00
C160   C     0.15439   0.51740   0.43614   0.00000  Uiso   1.00
C161   C     0.18653   0.51442   0.01745   0.00000  Uiso   1.00
C162   C     0.24559   0.54756   0.49671   0.00000  Uiso   1.00
C163   C     0.25674   0.56796   0.44808   0.00000  Uiso   1.00
C164   C     0.21150   0.55394   0.41863   0.00000  Uiso   1.00
C165   C     0.17700   0.49643   0.06733   0.00000  Uiso   1.00
C166   C     0.28216   0.54390   0.07519   0.00000  Uiso   1.00
C167   C     0.11183   0.49733   0.40345   0.00000  Uiso   1.00
H168   H     0.13357   0.47036   0.08466   0.00000  Uiso   1.00
H169   H     0.06094   0.45899   0.04603   0.00000  Uiso   1.00
H170   H     0.31978   0.43513   0.49157   0.00000  Uiso   1.00
C171   C     0.19031   0.65603   0.25224   0.00000  Uiso   1.00
C172   C     0.14304   0.34396   0.24771   0.00000  Uiso   1.00
H173   H     0.09749   0.65348   0.24342   0.00000  Uiso   1.00
N174   N     0.31574   0.51407   0.26416   0.00000  Uiso   1.00
N175   N     0.01759   0.48593   0.23584   0.00000  Uiso   1.00
H176   H     0.32957   0.46054   0.21061   0.00000  Uiso   1.00
N177   N     0.33154   0.56006   0.10313   0.00000  Uiso   1.00
O178   O     0.02067   0.52467   0.12048   0.00000  Uiso   1.00
O179   O     0.02989   0.60870   0.10117   0.00000  Uiso   1.00
H180   H     0.00369   0.53935   0.28950   0.00000  Uiso   1.00
H181   H     0.30074   0.59506   0.43268   0.00000  Uiso   1.00
H182   H     0.01714   0.45443   0.40033   0.00000  Uiso   1.00
H183   H     0.22160   0.57299   0.38225   0.00000  Uiso   1.00
H184   H     0.23586   0.34651   0.25653   0.00000  Uiso   1.00
O185   O     0.46131   0.57141   0.24633   0.00000  Uiso   1.00
O186   O     0.56191   0.58089   0.25586   0.00000  Uiso   1.00
C187   C     0.51512   0.60007   0.25151   0.00000  Uiso   1.00
O188   O     0.42515   0.49293   0.31839   0.00000  Uiso   1.00
O189   O     0.52575   0.50241   0.32793   0.00000  Uiso   1.00
C190   C     0.46631   0.49910   0.34728   0.00000  Uiso   1.00
Cu191  Cu    0.44043   0.49439   0.24435   0.00000  Uiso   1.00
Cu192  Cu    0.55957   0.50561   0.25564   0.00000  Uiso   1.00
O193   O     0.43809   0.41911   0.24413   0.00000  Uiso   1.00
O194   O     0.53869   0.42859   0.25367   0.00000  Uiso   1.00
O195   O     0.47425   0.49759   0.17207   0.00000  Uiso   1.00
O196   O     0.57485   0.50707   0.18160   0.00000  Uiso   1.00
C197   C     0.48489   0.39992   0.24848   0.00000  Uiso   1.00
C198   C     0.53434   0.50413   0.15278   0.00000  Uiso   1.00
C199   C     0.62618   0.56106   0.02512   0.00000  Uiso   1.00
H200   H     0.33828   0.58558   0.00845   0.00000  Uiso   1.00
C201   C     0.55577   0.51285   0.09727   0.00000  Uiso   1.00
C202   C     0.38419   0.46913   0.42432   0.00000  Uiso   1.00
C203   C     0.36692   0.45718   0.47589   0.00000  Uiso   1.00
C204   C     0.41080   0.47121   0.00694   0.00000  Uiso   1.00
C205   C     0.47260   0.50069   0.48759   0.00000  Uiso   1.00
C206   C     0.48773   0.51740   0.43614   0.00000  Uiso   1.00
C207   C     0.51986   0.51442   0.01745   0.00000  Uiso   1.00
C208   C     0.57893   0.54756   0.49671   0.00000  Uiso   1.00
C209   C     0.59007   0.56796   0.44808   0.00000  Uiso   1.00
C210   C     0.54484   0.55394   0.41863   0.00000  Uiso   1.00
C211   C     0.51033   0.49643   0.06733   0.00000  Uiso   1.00
C212   C     0.61549   0.54390   0.07519   0.00000  Uiso   1.00
C213   C     0.44516   0.49733   0.40345   0.00000  Uiso   1.00
H214   H     0.46691   0.47036   0.08466   0.00000  Uiso   1.00
H215   H     0.39427   0.45899   0.04603   0.00000  Uiso   1.00
H216   H     0.65311   0.43513   0.49157   0.00000  Uiso   1.00
C217   C     0.52364   0.65603   0.25224   0.00000  Uiso   1.00
C218   C     0.47637   0.34396   0.24771   0.00000  Uiso   1.00
H219   H     0.43082   0.65348   0.24342   0.00000  Uiso   1.00
N220   N     0.64908   0.51407   0.26416   0.00000  Uiso   1.00
N221   N     0.35092   0.48593   0.23584   0.00000  Uiso   1.00
H222   H     0.66291   0.46054   0.21061   0.00000  Uiso   1.00
N223   N     0.66488   0.56006   0.10313   0.00000  Uiso   1.00
O224   O     0.35400   0.52467   0.12048   0.00000  Uiso   1.00
O225   O     0.36323   0.60870   0.10117   0.00000  Uiso   1.00
H226   H     0.33703   0.53935   0.28950   0.00000  Uiso   1.00
H227   H     0.63407   0.59506   0.43268   0.00000  Uiso   1.00
H228   H     0.35048   0.45443   0.40033   0.00000  Uiso   1.00
H229   H     0.55493   0.57299   0.38225   0.00000  Uiso   1.00
H230   H     0.56920   0.34651   0.25653   0.00000  Uiso   1.00
O231   O     0.79464   0.57141   0.24633   0.00000  Uiso   1.00
O232   O     0.89524   0.58089   0.25586   0.00000  Uiso   1.00
C233   C     0.84845   0.60007   0.25151   0.00000  Uiso   1.00
O234   O     0.75848   0.49293   0.31839   0.00000  Uiso   1.00
O235   O     0.85908   0.50241   0.32793   0.00000  Uiso   1.00
C236   C     0.79965   0.49910   0.34728   0.00000  Uiso   1.00
Cu237  Cu    0.77377   0.49439   0.24435   0.00000  Uiso   1.00
Cu238  Cu    0.89290   0.50561   0.25564   0.00000  Uiso   1.00
O239   O     0.77142   0.41911   0.24413   0.00000  Uiso   1.00
O240   O     0.87203   0.42859   0.25367   0.00000  Uiso   1.00
O241   O     0.80758   0.49759   0.17207   0.00000  Uiso   1.00
O242   O     0.90819   0.50707   0.18160   0.00000  Uiso   1.00
C243   C     0.81822   0.39992   0.24848   0.00000  Uiso   1.00
C244   C     0.86767   0.50413   0.15278   0.00000  Uiso   1.00
C245   C     0.95951   0.56106   0.02512   0.00000  Uiso   1.00
H246   H     0.67161   0.58558   0.00845   0.00000  Uiso   1.00
C247   C     0.88910   0.51285   0.09727   0.00000  Uiso   1.00
C248   C     0.71752   0.46913   0.42432   0.00000  Uiso   1.00
C249   C     0.70026   0.45718   0.47589   0.00000  Uiso   1.00
C250   C     0.74413   0.47121   0.00694   0.00000  Uiso   1.00
C251   C     0.80593   0.50069   0.48759   0.00000  Uiso   1.00
C252   C     0.82106   0.51740   0.43614   0.00000  Uiso   1.00
C253   C     0.85319   0.51442   0.01745   0.00000  Uiso   1.00
C254   C     0.91226   0.54756   0.49671   0.00000  Uiso   1.00
C255   C     0.92341   0.56796   0.44808   0.00000  Uiso   1.00
C256   C     0.87817   0.55394   0.41863   0.00000  Uiso   1.00
C257   C     0.84367   0.49643   0.06733   0.00000  Uiso   1.00
C258   C     0.94882   0.54390   0.07519   0.00000  Uiso   1.00
C259   C     0.77850   0.49733   0.40345   0.00000  Uiso   1.00
H260   H     0.80024   0.47036   0.08466   0.00000  Uiso   1.00
H261   H     0.72760   0.45899   0.04603   0.00000  Uiso   1.00
H262   H     0.98644   0.43513   0.49157   0.00000  Uiso   1.00
C263   C     0.85698   0.65603   0.25224   0.00000  Uiso   1.00
C264   C     0.80971   0.34396   0.24771   0.00000  Uiso   1.00
H265   H     0.76415   0.65348   0.24342   0.00000  Uiso   1.00
N266   N     0.98241   0.51407   0.26416   0.00000  Uiso   1.00
N267   N     0.68426   0.48593   0.23584   0.00000  Uiso   1.00
H268   H     0.99624   0.46054   0.21061   0.00000  Uiso   1.00
N269   N     0.99821   0.56006   0.10313   0.00000  Uiso   1.00
O270   O     0.68734   0.52467   0.12048   0.00000  Uiso   1.00
O271   O     0.69656   0.60870   0.10117   0.00000  Uiso   1.00
H272   H     0.67036   0.53935   0.28950   0.00000  Uiso   1.00
H273   H     0.96741   0.59506   0.43268   0.00000  Uiso   1.00
H274   H     0.68381   0.45443   0.40033   0.00000  Uiso   1.00
H275   H     0.88826   0.57299   0.38225   0.00000  Uiso   1.00
H276   H     0.90253   0.34651   0.25653   0.00000  Uiso   1.00
O277   O     0.12797   0.90474   0.24633   0.00000  Uiso   1.00
O278   O     0.22858   0.91422   0.25586   0.00000  Uiso   1.00
C279   C     0.18179   0.93341   0.25151   0.00000  Uiso   1.00
O280   O     0.09181   0.82627   0.31839   0.00000  Uiso   1.00
O281   O     0.19242   0.83575   0.32793   0.00000  Uiso   1.00
C282   C     0.13298   0.83243   0.34728   0.00000  Uiso   1.00
Cu283  Cu    0.10710   0.82772   0.24435   0.00000  Uiso   1.00
Cu284  Cu    0.22623   0.83895   0.25564   0.00000  Uiso   1.00
O285   O     0.10476   0.75245   0.24413   0.00000  Uiso   1.00
O286   O     0.20536   0.76193   0.25367   0.00000  Uiso   1.00
O287   O     0.14092   0.83092   0.17207   0.00000  Uiso   1.00
O288   O     0.24152   0.84040   0.18160   0.00000  Uiso   1.00
C289   C     0.15155   0.73326   0.24848   0.00000  Uiso   1.00
C290   C     0.20100   0.83746   0.15278   0.00000  Uiso   1.00
C291   C     0.29285   0.89439   0.02512   0.00000  Uiso   1.00
H292   H     0.00494   0.91891   0.00845   0.00000  Uiso   1.00
C293   C     0.22243   0.84618   0.09727   0.00000  Uiso   1.00
C294   C     0.05085   0.80246   0.42432   0.00000  Uiso   1.00
C295   C     0.03359   0.79052   0.47589   0.00000  Uiso   1.00
C296   C     0.07746   0.80454   0.00694   0.00000  Uiso   1.00
C297   C     0.13926   0.83402   0.48759   0.00000  Uiso   1.00
C298   C     0.15439   0.85073   0.43614   0.00000  Uiso   1.00
C299   C     0.18653   0.84775   0.01745   0.00000  Uiso   1.00
C300   C     0.24559   0.88090   0.49671   0.00000  Uiso   1.00
C301   C     0.25674   0.90129   0.44808   0.00000  Uiso   1.00
C302   C     0.21150   0.88727   0.41863   0.00000  Uiso   1.00
C303   C     0.17700   0.82976   0.06733   0.00000  Uiso   1.00
C304   C     0.28216   0.87723   0.07519   0.00000  Uiso   1.00
C305   C     0.11183   0.83066   0.40345   0.00000  Uiso   1.00
H306   H     0.13357   0.80369   0.08466   0.00000  Uiso   1.00
H307   H     0.06094   0.79232   0.04603   0.00000  Uiso   1.00
H308   H     0.31978   0.76846   0.49157   0.00000  Uiso   1.00
C309   C     0.19031   0.98936   0.25224   0.00000  Uiso   1.00
C310   C     0.14304   0.67730   0.24771   0.00000  Uiso   1.00
H311   H     0.09749   0.98682   0.24342   0.00000  Uiso   1.00
N312   N     0.31574   0.84741   0.26416   0.00000  Uiso   1.00
N313   N     0.01759   0.81926   0.23584   0.00000  Uiso   1.00
H314   H     0.32957   0.79387   0.21061   0.00000  Uiso   1.00
N315   N     0.33154   0.89339   0.10313   0.00000  Uiso   1.00
O316   O     0.02067   0.85801   0.12048   0.00000  Uiso   1.00
O317   O     0.02989   0.94203   0.10117   0.00000  Uiso   1.00
H318   H     0.00369   0.87269   0.28950   0.00000  Uiso   1.00
H319   H     0.30074   0.92839   0.43268   0.00000  Uiso   1.00
H320   H     0.01714   0.78776   0.40033   0.00000  Uiso   1.00
H321   H     0.22160   0.90633   0.38225   0.00000  Uiso   1.00
H322   H     0.23586   0.67984   0.25653   0.00000  Uiso   1.00
O323   O     0.46131   0.90474   0.24633   0.00000  Uiso   1.00
O324   O     0.56191   0.91422   0.25586   0.00000  Uiso   1.00
C325   C     0.51512   0.93341   0.25151   0.00000  Uiso   1.00
O326   O     0.42515   0.82627   0.31839   0.00000  Uiso   1.00
O327   O     0.52575   0.83575   0.32793   0.00000  Uiso   1.00
C328   C     0.46631   0.83243   0.34728   0.00000  Uiso   1.00
Cu329  Cu    0.44043   0.82772   0.24435   0.00000  Uiso   1.00
Cu330  Cu    0.55957   0.83895   0.25564   0.00000  Uiso   1.00
O331   O     0.43809   0.75245   0.24413   0.00000  Uiso   1.00
O332   O     0.53869   0.76193   0.25367   0.00000  Uiso   1.00
O333   O     0.47425   0.83092   0.17207   0.00000  Uiso   1.00
O334   O     0.57485   0.84040   0.18160   0.00000  Uiso   1.00
C335   C     0.48489   0.73326   0.24848   0.00000  Uiso   1.00
C336   C     0.53434   0.83746   0.15278   0.00000  Uiso   1.00
C337   C     0.62618   0.89439   0.02512   0.00000  Uiso   1.00
H338   H     0.33828   0.91891   0.00845   0.00000  Uiso   1.00
C339   C     0.55577   0.84618   0.09727   0.00000  Uiso   1.00
C340   C     0.38419   0.80246   0.42432   0.00000  Uiso   1.00
C341   C     0.36692   0.79052   0.47589   0.00000  Uiso   1.00
C342   C     0.41080   0.80454   0.00694   0.00000  Uiso   1.00
C343   C     0.47260   0.83402   0.48759   0.00000  Uiso   1.00
C344   C     0.48773   0.85073   0.43614   0.00000  Uiso   1.00
C345   C     0.51986   0.84775   0.01745   0.00000  Uiso   1.00
C346   C     0.57893   0.88090   0.49671   0.00000  Uiso   1.00
C347   C     0.59007   0.90129   0.44808   0.00000  Uiso   1.00
C348   C     0.54484   0.88727   0.41863   0.00000  Uiso   1.00
C349   C     0.51033   0.82976   0.06733   0.00000  Uiso   1.00
C350   C     0.61549   0.87723   0.07519   0.00000  Uiso   1.00
C351   C     0.44516   0.83066   0.40345   0.00000  Uiso   1.00
H352   H     0.46691   0.80369   0.08466   0.00000  Uiso   1.00
H353   H     0.39427   0.79232   0.04603   0.00000  Uiso   1.00
H354   H     0.65311   0.76846   0.49157   0.00000  Uiso   1.00
C355   C     0.52364   0.98936   0.25224   0.00000  Uiso   1.00
C356   C     0.47637   0.67730   0.24771   0.00000  Uiso   1.00
H357   H     0.43082   0.98682   0.24342   0.00000  Uiso   1.00
N358   N     0.64908   0.84741   0.26416   0.00000  Uiso   1.00
N359   N     0.35092   0.81926   0.23584   0.00000  Uiso   1.00
H360   H     0.66291   0.79387   0.21061   0.00000  Uiso   1.00
N361   N     0.66488   0.89339   0.10313   0.00000  Uiso   1.00
O362   O     0.35400   0.85801   0.12048   0.00000  Uiso   1.00
O363   O     0.36323   0.94203   0.10117   0.00000  Uiso   1.00
H364   H     0.33703   0.87269   0.28950   0.00000  Uiso   1.00
H365   H     0.63407   0.92839   0.43268   0.00000  Uiso   1.00
H366   H     0.35048   0.78776   0.40033   0.00000  Uiso   1.00
H367   H     0.55493   0.90633   0.38225   0.00000  Uiso   1.00
H368   H     0.56920   0.67984   0.25653   0.00000  Uiso   1.00
O369   O     0.79464   0.90474   0.24633   0.00000  Uiso   1.00
O370   O     0.89524   0.91422   0.25586   0.00000  Uiso   1.00
C371   C     0.84845   0.93341   0.25151   0.00000  Uiso   1.00
O372   O     0.75848   0.82627   0.31839   0.00000  Uiso   1.00
O373   O     0.85908   0.83575   0.32793   0.00000  Uiso   1.00
C374   C     0.79965   0.83243   0.34728   0.00000  Uiso   1.00
Cu375  Cu    0.77377   0.82772   0.24435   0.00000  Uiso   1.00
Cu376  Cu    0.89290   0.83895   0.25564   0.00000  Uiso   1.00
O377   O     0.77142   0.75245   0.24413   0.00000  Uiso   1.00
O378   O     0.87203   0.76193   0.25367   0.00000  Uiso   1.00
O379   O     0.80758   0.83092   0.17207   0.00000  Uiso   1.00
O380   O     0.90819   0.84040   0.18160   0.00000  Uiso   1.00
C381   C     0.81822   0.73326   0.24848   0.00000  Uiso   1.00
C382   C     0.86767   0.83746   0.15278   0.00000  Uiso   1.00
C383   C     0.95951   0.89439   0.02512   0.00000  Uiso   1.00
H384   H     0.67161   0.91891   0.00845   0.00000  Uiso   1.00
C385   C     0.88910   0.84618   0.09727   0.00000  Uiso   1.00
C386   C     0.71752   0.80246   0.42432   0.00000  Uiso   1.00
C387   C     0.70026   0.79052   0.47589   0.00000  Uiso   1.00
C388   C     0.74413   0.80454   0.00694   0.00000  Uiso   1.00
C389   C     0.80593   0.83402   0.48759   0.00000  Uiso   1.00
C390   C     0.82106   0.85073   0.43614   0.00000  Uiso   1.00
C391   C     0.85319   0.84775   0.01745   0.00000  Uiso   1.00
C392   C     0.91226   0.88090   0.49671   0.00000  Uiso   1.00
C393   C     0.92341   0.90129   0.44808   0.00000  Uiso   1.00
C394   C     0.87817   0.88727   0.41863   0.00000  Uiso   1.00
C395   C     0.84367   0.82976   0.06733   0.00000  Uiso   1.00
C396   C     0.94882   0.87723   0.07519   0.00000  Uiso   1.00
C397   C     0.77850   0.83066   0.40345   0.00000  Uiso   1.00
H398   H     0.80024   0.80369   0.08466   0.00000  Uiso   1.00
H399   H     0.72760   0.79232   0.04603   0.00000  Uiso   1.00
H400   H     0.98644   0.76846   0.49157   0.00000  Uiso   1.00
C401   C     0.85698   0.98936   0.25224   0.00000  Uiso   1.00
C402   C     0.80971   0.67730   0.24771   0.00000  Uiso   1.00
H403   H     0.76415   0.98682   0.24342   0.00000  Uiso   1.00
N404   N     0.98241   0.84741   0.26416   0.00000  Uiso   1.00
N405   N     0.68426   0.81926   0.23584   0.00000  Uiso   1.00
H406   H     0.99624   0.79387   0.21061   0.00000  Uiso   1.00
N407   N     0.99821   0.89339   0.10313   0.00000  Uiso   1.00
O408   O     0.68734   0.85801   0.12048   0.00000  Uiso   1.00
O409   O     0.69656   0.94203   0.10117   0.00000  Uiso   1.00
H410   H     0.67036   0.87269   0.28950   0.00000  Uiso   1.00
H411   H     0.96741   0.92839   0.43268   0.00000  Uiso   1.00
H412   H     0.68381   0.78776   0.40033   0.00000  Uiso   1.00
H413   H     0.88826   0.90633   0.38225   0.00000  Uiso   1.00
H414   H     0.90253   0.67984   0.25653   0.00000  Uiso   1.00
O415   O     0.12797   0.23807   0.74633   0.00000  Uiso   1.00
O416   O     0.22858   0.24755   0.75586   0.00000  Uiso   1.00
C417   C     0.18179   0.26674   0.75151   0.00000  Uiso   1.00
O418   O     0.09181   0.15960   0.81839   0.00000  Uiso   1.00
O419   O     0.19242   0.16908   0.82793   0.00000  Uiso   1.00
C420   C     0.13298   0.16576   0.84728   0.00000  Uiso   1.00
Cu421  Cu    0.10710   0.16105   0.74435   0.00000  Uiso   1.00
Cu422  Cu    0.22623   0.17228   0.75564   0.00000  Uiso   1.00
O423   O     0.10476   0.08578   0.74413   0.00000  Uiso   1.00
O424   O     0.20536   0.09526   0.75367   0.00000  Uiso   1.00
O425   O     0.14092   0.16425   0.67207   0.00000  Uiso   1.00
O426   O     0.24152   0.17373   0.68160   0.00000  Uiso   1.00
C427   C     0.15155   0.06659   0.74848   0.00000  Uiso   1.00
C428   C     0.20100   0.17079   0.65278   0.00000  Uiso   1.00
C429   C     0.29285   0.22772   0.52512   0.00000  Uiso   1.00
H430   H     0.00494   0.25225   0.50845   0.00000  Uiso   1.00
C431   C     0.22243   0.17952   0.59727   0.00000  Uiso   1.00
C432   C     0.05085   0.13580   0.92432   0.00000  Uiso   1.00
C433   C     0.03359   0.12385   0.97589   0.00000  Uiso   1.00
C434   C     0.07746   0.13787   0.50694   0.00000  Uiso   1.00
C435   C     0.13926   0.16735   0.98759   0.00000  Uiso   1.00
C436   C     0.15439   0.18407   0.93614   0.00000  Uiso   1.00
C437   C     0.18653   0.18109   0.51745   0.00000  Uiso   1.00
C438   C     0.24559   0.21423   0.99671   0.00000  Uiso   1.00
C439   C     0.25674   0.23463   0.94808   0.00000  Uiso   1.00
C440   C     0.21150   0.22060   0.91863   0.00000  Uiso   1.00
C441   C     0.17700   0.16309   0.56733   0.00000  Uiso   1.00
C442   C     0.28216   0.21056   0.57519   0.00000  Uiso   1.00
C443   C     0.11183   0.16400   0.90345   0.00000  Uiso   1.00
H444   H     0.13357   0.13703   0.58466   0.00000  Uiso   1.00
H445   H     0.06094   0.12565   0.54603   0.00000  Uiso   1.00
H446   H     0.31978   0.10179   0.99157   0.00000  Uiso   1.00
C447   C     0.19031   0.32270   0.75224   0.00000  Uiso   1.00
C448   C     0.14304   0.01063   0.74771   0.00000  Uiso   1.00
H449   H     0.09749   0.32015   0.74342   0.00000  Uiso   1.00
N450   N     0.31574   0.18074   0.76416   0.00000  Uiso   1.00
N451   N     0.01759   0.15259   0.73584   0.00000  Uiso   1.00
H452   H     0.32957   0.12721   0.71061   0.00000  Uiso   1.00
N453   N     0.33154   0.22673   0.60313   0.00000  Uiso   1.00
O454   O     0.02067   0.19134   0.62048   0.00000  Uiso   1.00
O455   O     0.02989   0.27536   0.60117   0.00000  Uiso   1.00
H456   H     0.00369   0.20602   0.78950   0.00000  Uiso   1.00
H457   H     0.30074   0.26173   0.93268   0.00000  Uiso   1.00
H458   H     0.01714   0.12109   0.90033   0.00000  Uiso   1.00
H459   H     0.22160   0.23966   0.88225   0.00000  Uiso   1.00
H460   H     0.23586   0.01317   0.75653   0.00000  Uiso   1.00
O461   O     0.46131   0.23807   0.74633   0.00000  Uiso   1.00
O462   O     0.56191   0.24755   0.75586   0.00000  Uiso   1.00
C463   C     0.51512   0.26674   0.75151   0.00000  Uiso   1.00
O464   O     0.42515   0.15960   0.81839   0.00000  Uiso   1.00
O465   O     0.52575   0.16908   0.82793   0.00000  Uiso   1.00
C466   C     0.46631   0.16576   0.84728   0.00000  Uiso   1.00
Cu467  Cu    0.44043   0.16105   0.74435   0.00000  Uiso   1.00
Cu468  Cu    0.55957   0.17228   0.75564   0.00000  Uiso   1.00
O469   O     0.43809   0.08578   0.74413   0.00000  Uiso   1.00
O470   O     0.53869   0.09526   0.75367   0.00000  Uiso   1.00
O471   O     0.47425   0.16425   0.67207   0.00000  Uiso   1.00
O472   O     0.57485   0.17373   0.68160   0.00000  Uiso   1.00
C473   C     0.48489   0.06659   0.74848   0.00000  Uiso   1.00
C474   C     0.53434   0.17079   0.65278   0.00000  Uiso   1.00
C475   C     0.62618   0.22772   0.52512   0.00000  Uiso   1.00
H476   H     0.33828   0.25225   0.50845   0.00000  Uiso   1.00
C477   C     0.55577   0.17952   0.59727   0.00000  Uiso   1.00
C478   C     0.38419   0.13580   0.92432   0.00000  Uiso   1.00
C479   C     0.36692   0.12385   0.97589   0.00000  Uiso   1.00
C480   C     0.41080   0.13787   0.50694   0.00000  Uiso   1.00
C481   C     0.47260   0.16735   0.98759   0.00000  Uiso   1.00
C482   C     0.48773   0.18407   0.93614   0.00000  Uiso   1.00
C483   C     0.51986   0.18109   0.51745   0.00000  Uiso   1.00
C484   C     0.57893   0.21423   0.99671   0.00000  Uiso   1.00
C485   C     0.59007   0.23463   0.94808   0.00000  Uiso   1.00
C486   C     0.54484   0.22060   0.91863   0.00000  Uiso   1.00
C487   C     0.51033   0.16309   0.56733   0.00000  Uiso   1.00
C488   C     0.61549   0.21056   0.57519   0.00000  Uiso   1.00
C489   C     0.44516   0.16400   0.90345   0.00000  Uiso   1.00
H490   H     0.46691   0.13703   0.58466   0.00000  Uiso   1.00
H491   H     0.39427   0.12565   0.54603   0.00000  Uiso   1.00
H492   H     0.65311   0.10179   0.99157   0.00000  Uiso   1.00
C493   C     0.52364   0.32270   0.75224   0.00000  Uiso   1.00
C494   C     0.47637   0.01063   0.74771   0.00000  Uiso   1.00
H495   H     0.43082   0.32015   0.74342   0.00000  Uiso   1.00
N496   N     0.64908   0.18074   0.76416   0.00000  Uiso   1.00
N497   N     0.35092   0.15259   0.73584   0.00000  Uiso   1.00
H498   H     0.66291   0.12721   0.71061   0.00000  Uiso   1.00
N499   N     0.66488   0.22673   0.60313   0.00000  Uiso   1.00
O500   O     0.35400   0.19134   0.62048   0.00000  Uiso   1.00
O501   O     0.36323   0.27536   0.60117   0.00000  Uiso   1.00
H502   H     0.33703   0.20602   0.78950   0.00000  Uiso   1.00
H503   H     0.63407   0.26173   0.93268   0.00000  Uiso   1.00
H504   H     0.35048   0.12109   0.90033   0.00000  Uiso   1.00
H505   H     0.55493   0.23966   0.88225   0.00000  Uiso   1.00
H506   H     0.56920   0.01317   0.75653   0.00000  Uiso   1.00
O507   O     0.79464   0.23807   0.74633   0.00000  Uiso   1.00
O508   O     0.89524   0.24755   0.75586   0.00000  Uiso   1.00
C509   C     0.84845   0.26674   0.75151   0.00000  Uiso   1.00
O510   O     0.75848   0.15960   0.81839   0.00000  Uiso   1.00
O511   O     0.85908   0.16908   0.82793   0.00000  Uiso   1.00
C512   C     0.79965   0.16576   0.84728   0.00000  Uiso   1.00
Cu513  Cu    0.77377   0.16105   0.74435   0.00000  Uiso   1.00
Cu514  Cu    0.89290   0.17228   0.75564   0.00000  Uiso   1.00
O515   O     0.77142   0.08578   0.74413   0.00000  Uiso   1.00
O516   O     0.87203   0.09526   0.75367   0.00000  Uiso   1.00
O517   O     0.80758   0.16425   0.67207   0.00000  Uiso   1.00
O518   O     0.90819   0.17373   0.68160   0.00000  Uiso   1.00
C519   C     0.81822   0.06659   0.74848   0.00000  Uiso   1.00
C520   C     0.86767   0.17079   0.65278   0.00000  Uiso   1.00
C521   C     0.95951   0.22772   0.52512   0.00000  Uiso   1.00
H522   H     0.67161   0.25225   0.50845   0.00000  Uiso   1.00
C523   C     0.88910   0.17952   0.59727   0.00000  Uiso   1.00
C524   C     0.71752   0.13580   0.92432   0.00000  Uiso   1.00
C525   C     0.70026   0.12385   0.97589   0.00000  Uiso   1.00
C526   C     0.74413   0.13787   0.50694   0.00000  Uiso   1.00
C527   C     0.80593   0.16735   0.98759   0.00000  Uiso   1.00
C528   C     0.82106   0.18407   0.93614   0.00000  Uiso   1.00
C529   C     0.85319   0.18109   0.51745   0.00000  Uiso   1.00
C530   C     0.91226   0.21423   0.99671   0.00000  Uiso   1.00
C531   C     0.92341   0.23463   0.94808   0.00000  Uiso   1.00
C532   C     0.87817   0.22060   0.91863   0.00000  Uiso   1.00
C533   C     0.84367   0.16309   0.56733   0.00000  Uiso   1.00
C534   C     0.94882   0.21056   0.57519   0.00000  Uiso   1.00
C535   C     0.77850   0.16400   0.90345   0.00000  Uiso   1.00
H536   H     0.80024   0.13703   0.58466   0.00000  Uiso   1.00
H537   H     0.72760   0.12565   0.54603   0.00000  Uiso   1.00
H538   H     0.98644   0.10179   0.99157   0.00000  Uiso   1.00
C539   C     0.85698   0.32270   0.75224   0.00000  Uiso   1.00
C540   C     0.80971   0.01063   0.74771   0.00000  Uiso   1.00
H541   H     0.76415   0.32015   0.74342   0.00000  Uiso   1.00
N542   N     0.98241   0.18074   0.76416   0.00000  Uiso   1.00
N543   N     0.68426   0.15259   0.73584   0.00000  Uiso   1.00
H544   H     0.99624   0.12721   0.71061   0.00000  Uiso   1.00
N545   N     0.99821   0.22673   0.60313   0.00000  Uiso   1.00
O546   O     0.68734   0.19134   0.62048   0.00000  Uiso   1.00
O547   O     0.69656   0.27536   0.60117   0.00000  Uiso   1.00
H548   H     0.67036   0.20602   0.78950   0.00000  Uiso   1.00
H549   H     0.96741   0.26173   0.93268   0.00000  Uiso   1.00
H550   H     0.68381   0.12109   0.90033   0.00000  Uiso   1.00
H551   H     0.88826   0.23966   0.88225   0.00000  Uiso   1.00
H552   H     0.90253   0.01317   0.75653   0.00000  Uiso   1.00
O553   O     0.12797   0.57141   0.74633   0.00000  Uiso   1.00
O554   O     0.22858   0.58089   0.75586   0.00000  Uiso   1.00
C555   C     0.18179   0.60007   0.75151   0.00000  Uiso   1.00
O556   O     0.09181   0.49293   0.81839   0.00000  Uiso   1.00
O557   O     0.19242   0.50241   0.82793   0.00000  Uiso   1.00
C558   C     0.13298   0.49910   0.84728   0.00000  Uiso   1.00
Cu559  Cu    0.10710   0.49439   0.74435   0.00000  Uiso   1.00
Cu560  Cu    0.22623   0.50561   0.75564   0.00000  Uiso   1.00
O561   O     0.10476   0.41911   0.74413   0.00000  Uiso   1.00
O562   O     0.20536   0.42859   0.75367   0.00000  Uiso   1.00
O563   O     0.14092   0.49759   0.67207   0.00000  Uiso   1.00
O564   O     0.24152   0.50707   0.68160   0.00000  Uiso   1.00
C565   C     0.15155   0.39992   0.74848   0.00000  Uiso   1.00
C566   C     0.20100   0.50413   0.65278   0.00000  Uiso   1.00
C567   C     0.29285   0.56106   0.52512   0.00000  Uiso   1.00
H568   H     0.00494   0.58558   0.50845   0.00000  Uiso   1.00
C569   C     0.22243   0.51285   0.59727   0.00000  Uiso   1.00
C570   C     0.05085   0.46913   0.92432   0.00000  Uiso   1.00
C571   C     0.03359   0.45718   0.97589   0.00000  Uiso   1.00
C572   C     0.07746   0.47121   0.50694   0.00000  Uiso   1.00
C573   C     0.13926   0.50069   0.98759   0.00000  Uiso   1.00
C574   C     0.15439   0.51740   0.93614   0.00000  Uiso   1.00
C575   C     0.18653   0.51442   0.51745   0.00000  Uiso   1.00
C576   C     0.24559   0.54756   0.99671   0.00000  Uiso   1.00
C577   C     0.25674   0.56796   0.94808   0.00000  Uiso   1.00
C578   C     0.21150   0.55394   0.91863   0.00000  Uiso   1.00
C579   C     0.17700   0.49643   0.56733   0.00000  Uiso   1.00
C580   C     0.28216   0.54390   0.57519   0.00000  Uiso   1.00
C581   C     0.11183   0.49733   0.90345   0.00000  Uiso   1.00
H582   H     0.13357   0.47036   0.58466   0.00000  Uiso   1.00
H583   H     0.06094   0.45899   0.54603   0.00000  Uiso   1.00
H584   H     0.31978   0.43513   0.99157   0.00000  Uiso   1.00
C585   C     0.19031   0.65603   0.75224   0.00000  Uiso   1.00
C586   C     0.14304   0.34396   0.74771   0.00000  Uiso   1.00
H587   H     0.09749   0.65348   0.74342   0.00000  Uiso   1.00
N588   N     0.31574   0.51407   0.76416   0.00000  Uiso   1.00
N589   N     0.01759   0.48593   0.73584   0.00000  Uiso   1.00
H590   H     0.32957   0.46054   0.71061   0.00000  Uiso   1.00
N591   N     0.33154   0.56006   0.60313   0.00000  Uiso   1.00
O592   O     0.02067   0.52467   0.62048   0.00000  Uiso   1.00
O593   O     0.02989   0.60870   0.60117   0.00000  Uiso   1.00
H594   H     0.00369   0.53935   0.78950   0.00000  Uiso   1.00
H595   H     0.30074   0.59506   0.93268   0.00000  Uiso   1.00
H596   H     0.01714   0.45443   0.90033   0.00000  Uiso   1.00
H597   H     0.22160   0.57299   0.88225   0.00000  Uiso   1.00
H598   H     0.23586   0.34651   0.75653   0.00000  Uiso   1.00
O599   O     0.46131   0.57141   0.74633   0.00000  Uiso   1.00
O600   O     0.56191   0.58089   0.75586   0.00000  Uiso   1.00
C601   C     0.51512   0.60007   0.75151   0.00000  Uiso   1.00
O602   O     0.42515   0.49293   0.81839   0.00000  Uiso   1.00
O603   O     0.52575   0.50241   0.82793   0.00000  Uiso   1.00
C604   C     0.46631   0.49910   0.84728   0.00000  Uiso   1.00
Cu605  Cu    0.44043   0.49439   0.74435   0.00000  Uiso   1.00
Cu606  Cu    0.55957   0.50561   0.75564   0.00000  Uiso   1.00
O607   O     0.43809   0.41911   0.74413   0.00000  Uiso   1.00
O608   O     0.53869   0.42859   0.75367   0.00000  Uiso   1.00
O609   O     0.47425   0.49759   0.67207   0.00000  Uiso   1.00
O610   O     0.57485   0.50707   0.68160   0.00000  Uiso   1.00
C611   C     0.48489   0.39992   0.74848   0.00000  Uiso   1.00
C612   C     0.53434   0.50413   0.65278   0.00000  Uiso   1.00
C613   C     0.62618   0.56106   0.52512   0.00000  Uiso   1.00
H614   H     0.33828   0.58558   0.50845   0.00000  Uiso   1.00
C615   C     0.55577   0.51285   0.59727   0.00000  Uiso   1.00
C616   C     0.38419   0.46913   0.92432   0.00000  Uiso   1.00
C617   C     0.36692   0.45718   0.97589   0.00000  Uiso   1.00
C618   C     0.41080   0.47121   0.50694   0.00000  Uiso   1.00
C619   C     0.47260   0.50069   0.98759   0.00000  Uiso   1.00
C620   C     0.48773   0.51740   0.93614   0.00000  Uiso   1.00
C621   C     0.51986   0.51442   0.51745   0.00000  Uiso   1.00
C622   C     0.57893   0.54756   0.99671   0.00000  Uiso   1.00
C623   C     0.59007   0.56796   0.94808   0.00000  Uiso   1.00
C624   C     0.54484   0.55394   0.91863   0.00000  Uiso   1.00
C625   C     0.51033   0.49643   0.56733   0.00000  Uiso   1.00
C626   C     0.61549   0.54390   0.57519   0.00000  Uiso   1.00
C627   C     0.44516   0.49733   0.90345   0.00000  Uiso   1.00
H628   H     0.46691   0.47036   0.58466   0.00000  Uiso   1.00
H629   H     0.39427   0.45899   0.54603   0.00000  Uiso   1.00
H630   H     0.65311   0.43513   0.99157   0.00000  Uiso   1.00
C631   C     0.52364   0.65603   0.75224   0.00000  Uiso   1.00
C632   C     0.47637   0.34396   0.74771   0.00000  Uiso   1.00
H633   H     0.43082   0.65348   0.74342   0.00000  Uiso   1.00
N634   N     0.64908   0.51407   0.76416   0.00000  Uiso   1.00
N635   N     0.35092   0.48593   0.73584   0.00000  Uiso   1.00
H636   H     0.66291   0.46054   0.71061   0.00000  Uiso   1.00
N637   N     0.66488   0.56006   0.60313   0.00000  Uiso   1.00
O638   O     0.35400   0.52467   0.62048   0.00000  Uiso   1.00
O639   O     0.36323   0.60870   0.60117   0.00000  Uiso   1.00
H640   H     0.33703   0.53935   0.78950   0.00000  Uiso   1.00
H641   H     0.63407   0.59506   0.93268   0.00000  Uiso   1.00
H642   H     0.35048   0.45443   0.90033   0.00000  Uiso   1.00
H643   H     0.55493   0.57299   0.88225   0.00000  Uiso   1.00
H644   H     0.56920   0.34651   0.75653   0.00000  Uiso   1.00
O645   O     0.79464   0.57141   0.74633   0.00000  Uiso   1.00
O646   O     0.89524   0.58089   0.75586   0.00000  Uiso   1.00
C647   C     0.84845   0.60007   0.75151   0.00000  Uiso   1.00
O648   O     0.75848   0.49293   0.81839   0.00000  Uiso   1.00
O649   O     0.85908   0.50241   0.82793   0.00000  Uiso   1.00
C650   C     0.79965   0.49910   0.84728   0.00000  Uiso   1.00
Cu651  Cu    0.77377   0.49439   0.74435   0.00000  Uiso   1.00
Cu652  Cu    0.89290   0.50561   0.75564   0.00000  Uiso   1.00
O653   O     0.77142   0.41911   0.74413   0.00000  Uiso   1.00
O654   O     0.87203   0.42859   0.75367   0.00000  Uiso   1.00
O655   O     0.80758   0.49759   0.67207   0.00000  Uiso   1.00
O656   O     0.90819   0.50707   0.68160   0.00000  Uiso   1.00
C657   C     0.81822   0.39992   0.74848   0.00000  Uiso   1.00
C658   C     0.86767   0.50413   0.65278   0.00000  Uiso   1.00
C659   C     0.95951   0.56106   0.52512   0.00000  Uiso   1.00
H660   H     0.67161   0.58558   0.50845   0.00000  Uiso   1.00
C661   C     0.88910   0.51285   0.59727   0.00000  Uiso   1.00
C662   C     0.71752   0.46913   0.92432   0.00000  Uiso   1.00
C663   C     0.70026   0.45718   0.97589   0.00000  Uiso   1.00
C664   C     0.74413   0.47121   0.50694   0.00000  Uiso   1.00
C665   C     0.80593   0.50069   0.98759   0.00000  Uiso   1.00
C666   C     0.82106   0.51740   0.93614   0.00000  Uiso   1.00
C667   C     0.85319   0.51442   0.51745   0.00000  Uiso   1.00
C668   C     0.91226   0.54756   0.99671   0.00000  Uiso   1.00
C669   C     0.92341   0.56796   0.94808   0.00000  Uiso   1.00
C670   C     0.87817   0.55394   0.91863   0.00000  Uiso   1.00
C671   C     0.84367   0.49643   0.56733   0.00000  Uiso   1.00
C672   C     0.94882   0.54390   0.57519   0.00000  Uiso   1.00
C673   C     0.77850   0.49733   0.90345   0.00000  Uiso   1.00
H674   H     0.80024   0.47036   0.58466   0.00000  Uiso   1.00
H675   H     0.72760   0.45899   0.54603   0.00000  Uiso   1.00
H676   H     0.98644   0.43513   0.99157   0.00000  Uiso   1.00
C677   C     0.85698   0.65603   0.75224   0.00000  Uiso   1.00
C678   C     0.80971   0.34396   0.74771   0.00000  Uiso   1.00
H679   H     0.76415   0.65348   0.74342   0.00000  Uiso   1.00
N680   N     0.98241   0.51407   0.76416   0.00000  Uiso   1.00
N681   N     0.68426   0.48593   0.73584   0.00000  Uiso   1.00
H682   H     0.99624   0.46054   0.71061   0.00000  Uiso   1.00
N683   N     0.99821   0.56006   0.60313   0.00000  Uiso   1.00
O684   O     0.68734   0.52467   0.62048   0.00000  Uiso   1.00
O685   O     0.69656   0.60870   0.60117   0.00000  Uiso   1.00
H686   H     0.67036   0.53935   0.78950   0.00000  Uiso   1.00
H687   H     0.96741   0.59506   0.93268   0.00000  Uiso   1.00
H688   H     0.68381   0.45443   0.90033   0.00000  Uiso   1.00
H689   H     0.88826   0.57299   0.88225   0.00000  Uiso   1.00
H690   H     0.90253   0.34651   0.75653   0.00000  Uiso   1.00
O691   O     0.12797   0.90474   0.74633   0.00000  Uiso   1.00
O692   O     0.22858   0.91422   0.75586   0.00000  Uiso   1.00
C693   C     0.18179   0.93341   0.75151   0.00000  Uiso   1.00
O694   O     0.09181   0.82627   0.81839   0.00000  Uiso   1.00
O695   O     0.19242   0.83575   0.82793   0.00000  Uiso   1.00
C696   C     0.13298   0.83243   0.84728   0.00000  Uiso   1.00
Cu697  Cu    0.10710   0.82772   0.74435   0.00000  Uiso   1.00
Cu698  Cu    0.22623   0.83895   0.75564   0.00000  Uiso   1.00
O699   O     0.10476   0.75245   0.74413   0.00000  Uiso   1.00
O700   O     0.20536   0.76193   0.75367   0.00000  Uiso   1.00
O701   O     0.14092   0.83092   0.67207   0.00000  Uiso   1.00
O702   O     0.24152   0.84040   0.68160   0.00000  Uiso   1.00
C703   C     0.15155   0.73326   0.74848   0.00000  Uiso   1.00
C704   C     0.20100   0.83746   0.65278   0.00000  Uiso   1.00
C705   C     0.29285   0.89439   0.52512   0.00000  Uiso   1.00
H706   H     0.00494   0.91891   0.50845   0.00000  Uiso   1.00
C707   C     0.22243   0.84618   0.59727   0.00000  Uiso   1.00
C708   C     0.05085   0.80246   0.92432   0.00000  Uiso   1.00
C709   C     0.03359   0.79052   0.97589   0.00000  Uiso   1.00
C710   C     0.07746   0.80454   0.50694   0.00000  Uiso   1.00
C711   C     0.13926   0.83402   0.98759   0.00000  Uiso   1.00
C712   C     0.15439   0.85073   0.93614   0.00000  Uiso   1.00
C713   C     0.18653   0.84775   0.51745   0.00000  Uiso   1.00
C714   C     0.24559   0.88090   0.99671   0.00000  Uiso   1.00
C715   C     0.25674   0.90129   0.94808   0.00000  Uiso   1.00
C716   C     0.21150   0.88727   0.91863   0.00000  Uiso   1.00
C717   C     0.17700   0.82976   0.56733   0.00000  Uiso   1.00
C718   C     0.28216   0.87723   0.57519   0.00000  Uiso   1.00
C719   C     0.11183   0.83066   0.90345   0.00000  Uiso   1.00
H720   H     0.13357   0.80369   0.58466   0.00000  Uiso   1.00
H721   H     0.06094   0.79232   0.54603   0.00000  Uiso   1.00
H722   H     0.31978   0.76846   0.99157   0.00000  Uiso   1.00
C723   C     0.19031   0.98936   0.75224   0.00000  Uiso   1.00
C724   C     0.14304   0.67730   0.74771   0.00000  Uiso   1.00
H725   H     0.09749   0.98682   0.74342   0.00000  Uiso   1.00
N726   N     0.31574   0.84741   0.76416   0.00000  Uiso   1.00
N727   N     0.01759   0.81926   0.73584   0.00000  Uiso   1.00
H728   H     0.32957   0.79387   0.71061   0.00000  Uiso   1.00
N729   N     0.33154   0.89339   0.60313   0.00000  Uiso   1.00
O730   O     0.02067   0.85801   0.62048   0.00000  Uiso   1.00
O731   O     0.02989   0.94203   0.60117   0.00000  Uiso   1.00
H732   H     0.00369   0.87269   0.78950   0.00000  Uiso   1.00
H733   H     0.30074   0.92839   0.93268   0.00000  Uiso   1.00
H734   H     0.01714   0.78776   0.90033   0.00000  Uiso   1.00
H735   H     0.22160   0.90633   0.88225   0.00000  Uiso   1.00
H736   H     0.23586   0.67984   0.75653   0.00000  Uiso   1.00
O737   O     0.46131   0.90474   0.74633   0.00000  Uiso   1.00
O738   O     0.56191   0.91422   0.75586   0.00000  Uiso   1.00
C739   C     0.51512   0.93341   0.75151   0.00000  Uiso   1.00
O740   O     0.42515   0.82627   0.81839   0.00000  Uiso   1.00
O741   O     0.52575   0.83575   0.82793   0.00000  Uiso   1.00
C742   C     0.46631   0.83243   0.84728   0.00000  Uiso   1.00
Cu743  Cu    0.44043   0.82772   0.74435   0.00000  Uiso   1.00
Cu744  Cu    0.55957   0.83895   0.75564   0.00000  Uiso   1.00
O745   O     0.43809   0.75245   0.74413   0.00000  Uiso   1.00
O746   O     0.53869   0.76193   0.75367   0.00000  Uiso   1.00
O747   O     0.47425   0.83092   0.67207   0.00000  Uiso   1.00
O748   O     0.57485   0.84040   0.68160   0.00000  Uiso   1.00
C749   C     0.48489   0.73326   0.74848   0.00000  Uiso   1.00
C750   C     0.53434   0.83746   0.65278   0.00000  Uiso   1.00
C751   C     0.62618   0.89439   0.52512   0.00000  Uiso   1.00
H752   H     0.33828   0.91891   0.50845   0.00000  Uiso   1.00
C753   C     0.55577   0.84618   0.59727   0.00000  Uiso   1.00
C754   C     0.38419   0.80246   0.92432   0.00000  Uiso   1.00
C755   C     0.36692   0.79052   0.97589   0.00000  Uiso   1.00
C756   C     0.41080   0.80454   0.50694   0.00000  Uiso   1.00
C757   C     0.47260   0.83402   0.98759   0.00000  Uiso   1.00
C758   C     0.48773   0.85073   0.93614   0.00000  Uiso   1.00
C759   C     0.51986   0.84775   0.51745   0.00000  Uiso   1.00
C760   C     0.57893   0.88090   0.99671   0.00000  Uiso   1.00
C761   C     0.59007   0.90129   0.94808   0.00000  Uiso   1.00
C762   C     0.54484   0.88727   0.91863   0.00000  Uiso   1.00
C763   C     0.51033   0.82976   0.56733   0.00000  Uiso   1.00
C764   C     0.61549   0.87723   0.57519   0.00000  Uiso   1.00
C765   C     0.44516   0.83066   0.90345   0.00000  Uiso   1.00
H766   H     0.46691   0.80369   0.58466   0.00000  Uiso   1.00
H767   H     0.39427   0.79232   0.54603   0.00000  Uiso   1.00
H768   H     0.65311   0.76846   0.99157   0.00000  Uiso   1.00
C769   C     0.52364   0.98936   0.75224   0.00000  Uiso   1.00
C770   C     0.47637   0.67730   0.74771   0.00000  Uiso   1.00
H771   H     0.43082   0.98682   0.74342   0.00000  Uiso   1.00
N772   N     0.64908   0.84741   0.76416   0.00000  Uiso   1.00
N773   N     0.35092   0.81926   0.73584   0.00000  Uiso   1.00
H774   H     0.66291   0.79387   0.71061   0.00000  Uiso   1.00
N775   N     0.66488   0.89339   0.60313   0.00000  Uiso   1.00
O776   O     0.35400   0.85801   0.62048   0.00000  Uiso   1.00
O777   O     0.36323   0.94203   0.60117   0.00000  Uiso   1.00
H778   H     0.33703   0.87269   0.78950   0.00000  Uiso   1.00
H779   H     0.63407   0.92839   0.93268   0.00000  Uiso   1.00
H780   H     0.35048   0.78776   0.90033   0.00000  Uiso   1.00
H781   H     0.55493   0.90633   0.88225   0.00000  Uiso   1.00
H782   H     0.56920   0.67984   0.75653   0.00000  Uiso   1.00
O783   O     0.79464   0.90474   0.74633   0.00000  Uiso   1.00
O784   O     0.89524   0.91422   0.75586   0.00000  Uiso   1.00
C785   C     0.84845   0.93341   0.75151   0.00000  Uiso   1.00
O786   O     0.75848   0.82627   0.81839   0.00000  Uiso   1.00
O787   O     0.85908   0.83575   0.82793   0.00000  Uiso   1.00
C788   C     0.79965   0.83243   0.84728   0.00000  Uiso   1.00
Cu789  Cu    0.77377   0.82772   0.74435   0.00000  Uiso   1.00
Cu790  Cu    0.89290   0.83895   0.75564   0.00000  Uiso   1.00
O791   O     0.77142   0.75245   0.74413   0.00000  Uiso   1.00
O792   O     0.87203   0.76193   0.75367   0.00000  Uiso   1.00
O793   O     0.80758   0.83092   0.67207   0.00000  Uiso   1.00
O794   O     0.90819   0.84040   0.68160   0.00000  Uiso   1.00
C795   C     0.81822   0.73326   0.74848   0.00000  Uiso   1.00
C796   C     0.86767   0.83746   0.65278   0.00000  Uiso   1.00
C797   C     0.95951   0.89439   0.52512   0.00000  Uiso   1.00
H798   H     0.67161   0.91891   0.50845   0.00000  Uiso   1.00
C799   C     0.88910   0.84618   0.59727   0.00000  Uiso   1.00
C800   C     0.71752   0.80246   0.92432   0.00000  Uiso   1.00
C801   C     0.70026   0.79052   0.97589   0.00000  Uiso   1.00
C802   C     0.74413   0.80454   0.50694   0.00000  Uiso   1.00
C803   C     0.80593   0.83402   0.98759   0.00000  Uiso   1.00
C804   C     0.82106   0.85073   0.93614   0.00000  Uiso   1.00
C805   C     0.85319   0.84775   0.51745   0.00000  Uiso   1.00
C806   C     0.91226   0.88090   0.99671   0.00000  Uiso   1.00
C807   C     0.92341   0.90129   0.94808   0.00000  Uiso   1.00
C808   C     0.87817   0.88727   0.91863   0.00000  Uiso   1.00
C809   C     0.84367   0.82976   0.56733   0.00000  Uiso   1.00
C810   C     0.94882   0.87723   0.57519   0.00000  Uiso   1.00
C811   C     0.77850   0.83066   0.90345   0.00000  Uiso   1.00
H812   H     0.80024   0.80369   0.58466   0.00000  Uiso   1.00
H813   H     0.72760   0.79232   0.54603   0.00000  Uiso   1.00
H814   H     0.98644   0.76846   0.99157   0.00000  Uiso   1.00
C815   C     0.85698   0.98936   0.75224   0.00000  Uiso   1.00
C816   C     0.80971   0.67730   0.74771   0.00000  Uiso   1.00
H817   H     0.76415   0.98682   0.74342   0.00000  Uiso   1.00
N818   N     0.98241   0.84741   0.76416   0.00000  Uiso   1.00
N819   N     0.68426   0.81926   0.73584   0.00000  Uiso   1.00
H820   H     0.99624   0.79387   0.71061   0.00000  Uiso   1.00
N821   N     0.99821   0.89339   0.60313   0.00000  Uiso   1.00
O822   O     0.68734   0.85801   0.62048   0.00000  Uiso   1.00
O823   O     0.69656   0.94203   0.60117   0.00000  Uiso   1.00
H824   H     0.67036   0.87269   0.78950   0.00000  Uiso   1.00
H825   H     0.96741   0.92839   0.93268   0.00000  Uiso   1.00
H826   H     0.68381   0.78776   0.90033   0.00000  Uiso   1.00
H827   H     0.88826   0.90633   0.88225   0.00000  Uiso   1.00
H828   H     0.90253   0.67984   0.75653   0.00000  Uiso   1.00
loop_
_geom_bond_atom_site_label_1
_geom_bond_atom_site_label_2
_geom_bond_distance
_geom_bond_site_symmetry_2
_ccdc_geom_bond_type
O1     Cu7     1.956   .     S
O1     C3      1.291   .     A
O2     C3      1.285   .     A
O2     Cu8     1.952   .     S
C3     C33     1.428   .     S
O4     Cu7     1.939   .     S
O4     C6      1.303   .     A
O5     Cu8     1.917   .     S
O5     C6      1.295   .     A
C6     C29     1.475   .     S
Cu7    N37     2.018   .     S
Cu7    Cu8     2.685   .     S
Cu7    O11     1.917   .     S
Cu7    O9      1.952   .     S
Cu8    O12     1.939   .     S
Cu8    O10     1.956   .     S
Cu8    N36     2.018   .     S
O9     C13     1.285   .     A
O10    C13     1.291   .     A
O11    C14     1.299   .     A
O12    C14     1.299   .     A
C13    C34     1.428   .     S
C14    C17     1.475   .     S
C15    C28     1.398   .     A
C15    H62     1.085   .     S
C15    C438    1.401   1_554 S
H16    C107    1.085   1_455 S
C17    C27     1.403   .     A
C17    C28     1.415   .     A
C18    C29     1.401   .     A
C18    H44     1.083   .     S
C18    C19     1.388   .     A
C19    C434    1.392   .     S
C19    H124    1.083   1_455 S
C20    H31     1.076   .     S
C20    C433    1.392   1_554 S
C20    C435    1.418   1_554 S
C21    C22     1.420   .     A
C21    C434    1.418   .     S
C21    C437    1.428   .     S
C22    C29     1.421   .     A
C22    C26     1.411   .     A
C23    C27     1.404   .     A
C23    C435    1.428   1_554 S
C23    C438    1.418   1_554 S
C24    C25     1.392   .     A
C24    C437    1.418   .     S
C24    C429    1.401   .     S
C25    H43     1.084   .     S
C25    C26     1.385   .     A
C26    H45     1.081   .     S
C27    H30     1.076   .     S
C28    N39     1.435   .     S
H32    C65     1.083   .     S
C33    C172    1.328   .     S
C33    H184    1.088   .     S
C34    C309    1.328   1_545 S
C34    H311    1.088   1_545 S
H35    C172    1.088   .     S
N36    N83     1.284   .     S
N36    H88     1.029   .     S
N37    N128    1.284   1_455 S
N37    H130    1.029   1_455 S
H38    N83     1.029   .     S
N39    O86     1.301   .     S
N39    O87     1.302   .     S
O40    N131    1.301   1_455 S
O41    N131    1.302   1_455 S
H42    N128    1.029   1_455 S
H46    C309    1.088   1_545 S
O47    Cu53    1.956   .     S
O47    C49     1.291   .     A
O48    C49     1.285   .     A
O48    Cu54    1.952   .     S
C49    C79     1.428   .     S
O50    Cu53    1.939   .     S
O50    C52     1.303   .     A
O51    Cu54    1.917   .     S
O51    C52     1.295   .     A
C52    C75     1.475   .     S
Cu53   N83     2.018   .     S
Cu53   Cu54    2.685   .     S
Cu53   O57     1.917   .     S
Cu53   O55     1.952   .     S
Cu54   O58     1.939   .     S
Cu54   O56     1.956   .     S
Cu54   N82     2.018   .     S
O55    C59     1.285   .     A
O56    C59     1.291   .     A
O57    C60     1.299   .     A
O58    C60     1.299   .     A
C59    C80     1.428   .     S
C60    C63     1.475   .     S
C61    C74     1.398   .     A
C61    H108    1.085   .     S
C61    C484    1.401   1_554 S
C63    C73     1.403   .     A
C63    C74     1.415   .     A
C64    C75     1.401   .     A
C64    H90     1.083   .     S
C64    C65     1.388   .     A
C65    C480    1.392   .     S
C66    H77     1.076   .     S
C66    C479    1.392   1_554 S
C66    C481    1.418   1_554 S
C67    C68     1.420   .     A
C67    C480    1.418   .     S
C67    C483    1.428   .     S
C68    C75     1.421   .     A
C68    C72     1.411   .     A
C69    C73     1.404   .     A
C69    C481    1.428   1_554 S
C69    C484    1.418   1_554 S
C70    C71     1.392   .     A
C70    C483    1.418   .     S
C70    C475    1.401   .     S
C71    H89     1.084   .     S
C71    C72     1.385   .     A
C72    H91     1.081   .     S
C73    H76     1.076   .     S
C74    N85     1.435   .     S
H78    C111    1.083   .     S
C79    C218    1.328   .     S
C79    H230    1.088   .     S
C80    C355    1.328   1_545 S
C80    H357    1.088   1_545 S
H81    C218    1.088   .     S
N82    N129    1.284   .     S
N82    H134    1.029   .     S
H84    N129    1.029   .     S
N85    O132    1.301   .     S
N85    O133    1.302   .     S
H92    C355    1.088   1_545 S
O93    Cu99    1.956   .     S
O93    C95     1.291   .     A
O94    C95     1.285   .     A
O94    Cu100   1.952   .     S
C95    C125    1.428   .     S
O96    Cu99    1.939   .     S
O96    C98     1.303   .     A
O97    Cu100   1.917   .     S
O97    C98     1.295   .     A
C98    C121    1.475   .     S
Cu99   N129    2.018   .     S
Cu99   Cu100   2.685   .     S
Cu99   O103    1.917   .     S
Cu99   O101    1.952   .     S
Cu100  O104    1.939   .     S
Cu100  O102    1.956   .     S
Cu100  N128    2.018   .     S
O101   C105    1.285   .     A
O102   C105    1.291   .     A
O103   C106    1.299   .     A
O104   C106    1.299   .     A
C105   C126    1.428   .     S
C106   C109    1.475   .     S
C107   C120    1.398   .     A
C107   H16     1.085   1_655 S
C107   C530    1.401   1_554 S
C109   C119    1.403   .     A
C109   C120    1.415   .     A
C110   C121    1.401   .     A
C110   H136    1.083   .     S
C110   C111    1.388   .     A
C111   C526    1.392   .     S
C112   H123    1.076   .     S
C112   C525    1.392   1_554 S
C112   C527    1.418   1_554 S
C113   C114    1.420   .     A
C113   C526    1.418   .     S
C113   C529    1.428   .     S
C114   C121    1.421   .     A
C114   C118    1.411   .     A
C115   C119    1.404   .     A
C115   C527    1.428   1_554 S
C115   C530    1.418   1_554 S
C116   C117    1.392   .     A
C116   C529    1.418   .     S
C116   C521    1.401   .     S
C117   H135    1.084   .     S
C117   C118    1.385   .     A
C118   H137    1.081   .     S
C119   H122    1.076   .     S
C120   N131    1.435   .     S
H124   C19     1.083   1_655 S
C125   C264    1.328   .     S
C125   H276    1.088   .     S
C126   C401    1.328   1_545 S
C126   H403    1.088   1_545 S
H127   C264    1.088   .     S
N128   N37     1.284   1_655 S
N128   H42     1.029   1_655 S
H130   N37     1.029   1_655 S
N131   O40     1.301   1_655 S
N131   O41     1.302   1_655 S
H138   C401    1.088   1_545 S
O139   Cu145   1.956   .     S
O139   C141    1.291   .     A
O140   C141    1.285   .     A
O140   Cu146   1.952   .     S
C141   C171    1.428   .     S
O142   Cu145   1.939   .     S
O142   C144    1.303   .     A
O143   Cu146   1.917   .     S
O143   C144    1.295   .     A
C144   C167    1.475   .     S
Cu145  N175    2.018   .     S
Cu145  Cu146   2.685   .     S
Cu145  O149    1.917   .     S
Cu145  O147    1.952   .     S
Cu146  O150    1.939   .     S
Cu146  O148    1.956   .     S
Cu146  N174    2.018   .     S
O147   C151    1.285   .     A
O148   C151    1.291   .     A
O149   C152    1.299   .     A
O150   C152    1.299   .     A
C151   C172    1.428   .     S
C152   C155    1.475   .     S
C153   C166    1.398   .     A
C153   H200    1.085   .     S
C153   C576    1.401   1_554 S
H154   C245    1.085   1_455 S
C155   C165    1.403   .     A
C155   C166    1.415   .     A
C156   C167    1.401   .     A
C156   H182    1.083   .     S
C156   C157    1.388   .     A
C157   C572    1.392   .     S
C157   H262    1.083   1_455 S
C158   H169    1.076   .     S
C158   C571    1.392   1_554 S
C158   C573    1.418   1_554 S
C159   C160    1.420   .     A
C159   C572    1.418   .     S
C159   C575    1.428   .     S
C160   C167    1.421   .     A
C160   C164    1.411   .     A
C161   C165    1.404   .     A
C161   C573    1.428   1_554 S
C161   C576    1.418   1_554 S
C162   C163    1.392   .     A
C162   C575    1.418   .     S
C162   C567    1.401   .     S
C163   H181    1.084   .     S
C163   C164    1.385   .     A
C164   H183    1.081   .     S
C165   H168    1.076   .     S
C166   N177    1.435   .     S
H170   C203    1.083   .     S
C171   C310    1.328   .     S
C171   H322    1.088   .     S
H173   C310    1.088   .     S
N174   N221    1.284   .     S
N174   H226    1.029   .     S
N175   N266    1.284   1_455 S
N175   H268    1.029   1_455 S
H176   N221    1.029   .     S
N177   O224    1.301   .     S
N177   O225    1.302   .     S
O178   N269    1.301   1_455 S
O179   N269    1.302   1_455 S
H180   N266    1.029   1_455 S
O185   Cu191   1.956   .     S
O185   C187    1.291   .     A
O186   C187    1.285   .     A
O186   Cu192   1.952   .     S
C187   C217    1.428   .     S
O188   Cu191   1.939   .     S
O188   C190    1.303   .     A
O189   Cu192   1.917   .     S
O189   C190    1.295   .     A
C190   C213    1.475   .     S
Cu191  N221    2.018   .     S
Cu191  Cu192   2.685   .     S
Cu191  O195    1.917   .     S
Cu191  O193    1.952   .     S
Cu192  O196    1.939   .     S
Cu192  O194    1.956   .     S
Cu192  N220    2.018   .     S
O193   C197    1.285   .     A
O194   C197    1.291   .     A
O195   C198    1.299   .     A
O196   C198    1.299   .     A
C197   C218    1.428   .     S
C198   C201    1.475   .     S
C199   C212    1.398   .     A
C199   H246    1.085   .     S
C199   C622    1.401   1_554 S
C201   C211    1.403   .     A
C201   C212    1.415   .     A
C202   C213    1.401   .     A
C202   H228    1.083   .     S
C202   C203    1.388   .     A
C203   C618    1.392   .     S
C204   H215    1.076   .     S
C204   C617    1.392   1_554 S
C204   C619    1.418   1_554 S
C205   C206    1.420   .     A
C205   C618    1.418   .     S
C205   C621    1.428   .     S
C206   C213    1.421   .     A
C206   C210    1.411   .     A
C207   C211    1.404   .     A
C207   C619    1.428   1_554 S
C207   C622    1.418   1_554 S
C208   C209    1.392   .     A
C208   C621    1.418   .     S
C208   C613    1.401   .     S
C209   H227    1.084   .     S
C209   C210    1.385   .     A
C210   H229    1.081   .     S
C211   H214    1.076   .     S
C212   N223    1.435   .     S
H216   C249    1.083   .     S
C217   C356    1.328   .     S
C217   H368    1.088   .     S
H219   C356    1.088   .     S
N220   N267    1.284   .     S
N220   H272    1.029   .     S
H222   N267    1.029   .     S
N223   O270    1.301   .     S
N223   O271    1.302   .     S
O231   Cu237   1.956   .     S
O231   C233    1.291   .     A
O232   C233    1.285   .     A
O232   Cu238   1.952   .     S
C233   C263    1.428   .     S
O234   Cu237   1.939   .     S
O234   C236    1.303   .     A
O235   Cu238   1.917   .     S
O235   C236    1.295   .     A
C236   C259    1.475   .     S
Cu237  N267    2.018   .     S
Cu237  Cu238   2.685   .     S
Cu237  O241    1.917   .     S
Cu237  O239    1.952   .     S
Cu238  O242    1.939   .     S
Cu238  O240    1.956   .     S
Cu238  N266    2.018   .     S
O239   C243    1.285   .     A
O240   C243    1.291   .     A
O241   C244    1.299   .     A
O242   C244    1.299   .     A
C243   C264    1.428   .     S
C244   C247    1.475   .     S
C245   C258    1.398   .     A
C245   H154    1.085   1_655 S
C245   C668    1.401   1_554 S
C247   C257    1.403   .     A
C247   C258    1.415   .     A
C248   C259    1.401   .     A
C248   H274    1.083   .     S
C248   C249    1.388   .     A
C249   C664    1.392   .     S
C250   H261    1.076   .     S
C250   C663    1.392   1_554 S
C250   C665    1.418   1_554 S
C251   C252    1.420   .     A
C251   C664    1.418   .     S
C251   C667    1.428   .     S
C252   C259    1.421   .     A
C252   C256    1.411   .     A
C253   C257    1.404   .     A
C253   C665    1.428   1_554 S
C253   C668    1.418   1_554 S
C254   C255    1.392   .     A
C254   C667    1.418   .     S
C254   C659    1.401   .     S
C255   H273    1.084   .     S
C255   C256    1.385   .     A
C256   H275    1.081   .     S
C257   H260    1.076   .     S
C258   N269    1.435   .     S
H262   C157    1.083   1_655 S
C263   C402    1.328   .     S
C263   H414    1.088   .     S
H265   C402    1.088   .     S
N266   N175    1.284   1_655 S
N266   H180    1.029   1_655 S
H268   N175    1.029   1_655 S
N269   O178    1.301   1_655 S
N269   O179    1.302   1_655 S
O277   Cu283   1.956   .     S
O277   C279    1.291   .     A
O278   C279    1.285   .     A
O278   Cu284   1.952   .     S
C279   C309    1.428   .     S
O280   Cu283   1.939   .     S
O280   C282    1.303   .     A
O281   Cu284   1.917   .     S
O281   C282    1.295   .     A
C282   C305    1.475   .     S
Cu283  N313    2.018   .     S
Cu283  Cu284   2.685   .     S
Cu283  O287    1.917   .     S
Cu283  O285    1.952   .     S
Cu284  O288    1.939   .     S
Cu284  O286    1.956   .     S
Cu284  N312    2.018   .     S
O285   C289    1.285   .     A
O286   C289    1.291   .     A
O287   C290    1.299   .     A
O288   C290    1.299   .     A
C289   C310    1.428   .     S
C290   C293    1.475   .     S
C291   C304    1.398   .     A
C291   H338    1.085   .     S
C291   C714    1.401   1_554 S
H292   C383    1.085   1_455 S
C293   C303    1.403   .     A
C293   C304    1.415   .     A
C294   C305    1.401   .     A
C294   H320    1.083   .     S
C294   C295    1.388   .     A
C295   C710    1.392   .     S
C295   H400    1.083   1_455 S
C296   H307    1.076   .     S
C296   C709    1.392   1_554 S
C296   C711    1.418   1_554 S
C297   C298    1.420   .     A
C297   C710    1.418   .     S
C297   C713    1.428   .     S
C298   C305    1.421   .     A
C298   C302    1.411   .     A
C299   C303    1.404   .     A
C299   C711    1.428   1_554 S
C299   C714    1.418   1_554 S
C300   C301    1.392   .     A
C300   C713    1.418   .     S
C300   C705    1.401   .     S
C301   H319    1.084   .     S
C301   C302    1.385   .     A
C302   H321    1.081   .     S
C303   H306    1.076   .     S
C304   N315    1.435   .     S
H308   C341    1.083   .     S
C309   C34     1.328   1_565 S
C309   H46     1.088   1_565 S
H311   C34     1.088   1_565 S
N312   N359    1.284   .     S
N312   H364    1.029   .     S
N313   N404    1.284   1_455 S
N313   H406    1.029   1_455 S
H314   N359    1.029   .     S
N315   O362    1.301   .     S
N315   O363    1.302   .     S
O316   N407    1.301   1_455 S
O317   N407    1.302   1_455 S
H318   N404    1.029   1_455 S
O323   Cu329   1.956   .     S
O323   C325    1.291   .     A
O324   C325    1.285   .     A
O324   Cu330   1.952   .     S
C325   C355    1.428   .     S
O326   Cu329   1.939   .     S
O326   C328    1.303   .     A
O327   Cu330   1.917   .     S
O327   C328    1.295   .     A
C328   C351    1.475   .     S
Cu329  N359    2.018   .     S
Cu329  Cu330   2.685   .     S
Cu329  O333    1.917   .     S
Cu329  O331    1.952   .     S
Cu330  O334    1.939   .     S
Cu330  O332    1.956   .     S
Cu330  N358    2.018   .     S
O331   C335    1.285   .     A
O332   C335    1.291   .     A
O333   C336    1.299   .     A
O334   C336    1.299   .     A
C335   C356    1.428   .     S
C336   C339    1.475   .     S
C337   C350    1.398   .     A
C337   H384    1.085   .     S
C337   C760    1.401   1_554 S
C339   C349    1.403   .     A
C339   C350    1.415   .     A
C340   C351    1.401   .     A
C340   H366    1.083   .     S
C340   C341    1.388   .     A
C341   C756    1.392   .     S
C342   H353    1.076   .     S
C342   C755    1.392   1_554 S
C342   C757    1.418   1_554 S
C343   C344    1.420   .     A
C343   C756    1.418   .     S
C343   C759    1.428   .     S
C344   C351    1.421   .     A
C344   C348    1.411   .     A
C345   C349    1.404   .     A
C345   C757    1.428   1_554 S
C345   C760    1.418   1_554 S
C346   C347    1.392   .     A
C346   C759    1.418   .     S
C346   C751    1.401   .     S
C347   H365    1.084   .     S
C347   C348    1.385   .     A
C348   H367    1.081   .     S
C349   H352    1.076   .     S
C350   N361    1.435   .     S
H354   C387    1.083   .     S
C355   C80     1.328   1_565 S
C355   H92     1.088   1_565 S
H357   C80     1.088   1_565 S
N358   N405    1.284   .     S
N358   H410    1.029   .     S
H360   N405    1.029   .     S
N361   O408    1.301   .     S
N361   O409    1.302   .     S
O369   Cu375   1.956   .     S
O369   C371    1.291   .     A
O370   C371    1.285   .     A
O370   Cu376   1.952   .     S
C371   C401    1.428   .     S
O372   Cu375   1.939   .     S
O372   C374    1.303   .     A
O373   Cu376   1.917   .     S
O373   C374    1.295   .     A
C374   C397    1.475   .     S
Cu375  N405    2.018   .     S
Cu375  Cu376   2.685   .     S
Cu375  O379    1.917   .     S
Cu375  O377    1.952   .     S
Cu376  O380    1.939   .     S
Cu376  O378    1.956   .     S
Cu376  N404    2.018   .     S
O377   C381    1.285   .     A
O378   C381    1.291   .     A
O379   C382    1.299   .     A
O380   C382    1.299   .     A
C381   C402    1.428   .     S
C382   C385    1.475   .     S
C383   C396    1.398   .     A
C383   H292    1.085   1_655 S
C383   C806    1.401   1_554 S
C385   C395    1.403   .     A
C385   C396    1.415   .     A
C386   C397    1.401   .     A
C386   H412    1.083   .     S
C386   C387    1.388   .     A
C387   C802    1.392   .     S
C388   H399    1.076   .     S
C388   C801    1.392   1_554 S
C388   C803    1.418   1_554 S
C389   C390    1.420   .     A
C389   C802    1.418   .     S
C389   C805    1.428   .     S
C390   C397    1.421   .     A
C390   C394    1.411   .     A
C391   C395    1.404   .     A
C391   C803    1.428   1_554 S
C391   C806    1.418   1_554 S
C392   C393    1.392   .     A
C392   C805    1.418   .     S
C392   C797    1.401   .     S
C393   H411    1.084   .     S
C393   C394    1.385   .     A
C394   H413    1.081   .     S
C395   H398    1.076   .     S
C396   N407    1.435   .     S
H400   C295    1.083   1_655 S
C401   C126    1.328   1_565 S
C401   H138    1.088   1_565 S
H403   C126    1.088   1_565 S
N404   N313    1.284   1_655 S
N404   H318    1.029   1_655 S
H406   N313    1.029   1_655 S
N407   O316    1.301   1_655 S
N407   O317    1.302   1_655 S
O415   Cu421   1.956   .     S
O415   C417    1.291   .     A
O416   C417    1.285   .     A
O416   Cu422   1.952   .     S
C417   C447    1.428   .     S
O418   Cu421   1.939   .     S
O418   C420    1.303   .     A
O419   Cu422   1.917   .     S
O419   C420    1.295   .     A
C420   C443    1.475   .     S
Cu421  N451    2.018   .     S
Cu421  Cu422   2.685   .     S
Cu421  O425    1.917   .     S
Cu421  O423    1.952   .     S
Cu422  O426    1.939   .     S
Cu422  O424    1.956   .     S
Cu422  N450    2.018   .     S
O423   C427    1.285   .     A
O424   C427    1.291   .     A
O425   C428    1.299   .     A
O426   C428    1.299   .     A
C427   C448    1.428   .     S
C428   C431    1.475   .     S
C429   C442    1.398   .     A
C429   H476    1.085   .     S
H430   C521    1.085   1_455 S
C431   C441    1.403   .     A
C431   C442    1.415   .     A
C432   C443    1.401   .     A
C432   H458    1.083   .     S
C432   C433    1.388   .     A
C433   C20     1.392   1_556 S
C433   H538    1.083   1_455 S
C434   H445    1.076   .     S
C435   C436    1.420   .     A
C435   C20     1.418   1_556 S
C435   C23     1.428   1_556 S
C436   C443    1.421   .     A
C436   C440    1.411   .     A
C437   C441    1.404   .     A
C438   C439    1.392   .     A
C438   C23     1.418   1_556 S
C438   C15     1.401   1_556 S
C439   H457    1.084   .     S
C439   C440    1.385   .     A
C440   H459    1.081   .     S
C441   H444    1.076   .     S
C442   N453    1.435   .     S
H446   C479    1.083   .     S
C447   C586    1.328   .     S
C447   H598    1.088   .     S
C448   C723    1.328   1_545 S
C448   H725    1.088   1_545 S
H449   C586    1.088   .     S
N450   N497    1.284   .     S
N450   H502    1.029   .     S
N451   N542    1.284   1_455 S
N451   H544    1.029   1_455 S
H452   N497    1.029   .     S
N453   O500    1.301   .     S
N453   O501    1.302   .     S
O454   N545    1.301   1_455 S
O455   N545    1.302   1_455 S
H456   N542    1.029   1_455 S
H460   C723    1.088   1_545 S
O461   Cu467   1.956   .     S
O461   C463    1.291   .     A
O462   C463    1.285   .     A
O462   Cu468   1.952   .     S
C463   C493    1.428   .     S
O464   Cu467   1.939   .     S
O464   C466    1.303   .     A
O465   Cu468   1.917   .     S
O465   C466    1.295   .     A
C466   C489    1.475   .     S
Cu467  N497    2.018   .     S
Cu467  Cu468   2.685   .     S
Cu467  O471    1.917   .     S
Cu467  O469    1.952   .     S
Cu468  O472    1.939   .     S
Cu468  O470    1.956   .     S
Cu468  N496    2.018   .     S
O469   C473    1.285   .     A
O470   C473    1.291   .     A
O471   C474    1.299   .     A
O472   C474    1.299   .     A
C473   C494    1.428   .     S
C474   C477    1.475   .     S
C475   C488    1.398   .     A
C475   H522    1.085   .     S
C477   C487    1.403   .     A
C477   C488    1.415   .     A
C478   C489    1.401   .     A
C478   H504    1.083   .     S
C478   C479    1.388   .     A
C479   C66     1.392   1_556 S
C480   H491    1.076   .     S
C481   C482    1.420   .     A
C481   C66     1.418   1_556 S
C481   C69     1.428   1_556 S
C482   C489    1.421   .     A
C482   C486    1.411   .     A
C483   C487    1.404   .     A
C484   C485    1.392   .     A
C484   C69     1.418   1_556 S
C484   C61     1.401   1_556 S
C485   H503    1.084   .     S
C485   C486    1.385   .     A
C486   H505    1.081   .     S
C487   H490    1.076   .     S
C488   N499    1.435   .     S
H492   C525    1.083   .     S
C493   C632    1.328   .     S
C493   H644    1.088   .     S
C494   C769    1.328   1_545 S
C494   H771    1.088   1_545 S
H495   C632    1.088   .     S
N496   N543    1.284   .     S
N496   H548    1.029   .     S
H498   N543    1.029   .     S
N499   O546    1.301   .     S
N499   O547    1.302   .     S
H506   C769    1.088   1_545 S
O507   Cu513   1.956   .     S
O507   C509    1.291   .     A
O508   C509    1.285   .     A
O508   Cu514   1.952   .     S
C509   C539    1.428   .     S
O510   Cu513   1.939   .     S
O510   C512    1.303   .     A
O511   Cu514   1.917   .     S
O511   C512    1.295   .     A
C512   C535    1.475   .     S
Cu513  N543    2.018   .     S
Cu513  Cu514   2.685   .     S
Cu513  O517    1.917   .     S
Cu513  O515    1.952   .     S
Cu514  O518    1.939   .     S
Cu514  O516    1.956   .     S
Cu514  N542    2.018   .     S
O515   C519    1.285   .     A
O516   C519    1.291   .     A
O517   C520    1.299   .     A
O518   C520    1.299   .     A
C519   C540    1.428   .     S
C520   C523    1.475   .     S
C521   C534    1.398   .     A
C521   H430    1.085   1_655 S
C523   C533    1.403   .     A
C523   C534    1.415   .     A
C524   C535    1.401   .     A
C524   H550    1.083   .     S
C524   C525    1.388   .     A
C525   C112    1.392   1_556 S
C526   H537    1.076   .     S
C527   C528    1.420   .     A
C527   C112    1.418   1_556 S
C527   C115    1.428   1_556 S
C528   C535    1.421   .     A
C528   C532    1.411   .     A
C529   C533    1.404   .     A
C530   C531    1.392   .     A
C530   C115    1.418   1_556 S
C530   C107    1.401   1_556 S
C531   H549    1.084   .     S
C531   C532    1.385   .     A
C532   H551    1.081   .     S
C533   H536    1.076   .     S
C534   N545    1.435   .     S
H538   C433    1.083   1_655 S
C539   C678    1.328   .     S
C539   H690    1.088   .     S
C540   C815    1.328   1_545 S
C540   H817    1.088   1_545 S
H541   C678    1.088   .     S
N542   N451    1.284   1_655 S
N542   H456    1.029   1_655 S
H544   N451    1.029   1_655 S
N545   O454    1.301   1_655 S
N545   O455    1.302   1_655 S
H552   C815    1.088   1_545 S
O553   Cu559   1.956   .     S
O553   C555    1.291   .     A
O554   C555    1.285   .     A
O554   Cu560   1.952   .     S
C555   C585    1.428   .     S
O556   Cu559   1.939   .     S
O556   C558    1.303   .     A
O557   Cu560   1.917   .     S
O557   C558    1.295   .     A
C558   C581    1.475   .     S
Cu559  N589    2.018   .     S
Cu559  Cu560   2.685   .     S
Cu559  O563    1.917   .     S
Cu559  O561    1.952   .     S
Cu560  O564    1.939   .     S
Cu560  O562    1.956   .     S
Cu560  N588    2.018   .     S
O561   C565    1.285   .     A
O562   C565    1.291   .     A
O563   C566    1.299   .     A
O564   C566    1.299   .     A
C565   C586    1.428   .     S
C566   C569    1.475   .     S
C567   C580    1.398   .     A
C567   H614    1.085   .     S
H568   C659    1.085   1_455 S
C569   C579    1.403   .     A
C569   C580    1.415   .     A
C570   C581    1.401   .     A
C570   H596    1.083   .     S
C570   C571    1.388   .     A
C571   C158    1.392   1_556 S
C571   H676    1.083   1_455 S
C572   H583    1.076   .     S
C573   C574    1.420   .     A
C573   C158    1.418   1_556 S
C573   C161    1.428   1_556 S
C574   C581    1.421   .     A
C574   C578    1.411   .     A
C575   C579    1.404   .     A
C576   C577    1.392   .     A
C576   C161    1.418   1_556 S
C576   C153    1.401   1_556 S
C577   H595    1.084   .     S
C577   C578    1.385   .     A
C578   H597    1.081   .     S
C579   H582    1.076   .     S
C580   N591    1.435   .     S
H584   C617    1.083   .     S
C585   C724    1.328   .     S
C585   H736    1.088   .     S
H587   C724    1.088   .     S
N588   N635    1.284   .     S
N588   H640    1.029   .     S
N589   N680    1.284   1_455 S
N589   H682    1.029   1_455 S
H590   N635    1.029   .     S
N591   O638    1.301   .     S
N591   O639    1.302   .     S
O592   N683    1.301   1_455 S
O593   N683    1.302   1_455 S
H594   N680    1.029   1_455 S
O599   Cu605   1.956   .     S
O599   C601    1.291   .     A
O600   C601    1.285   .     A
O600   Cu606   1.952   .     S
C601   C631    1.428   .     S
O602   Cu605   1.939   .     S
O602   C604    1.303   .     A
O603   Cu606   1.917   .     S
O603   C604    1.295   .     A
C604   C627    1.475   .     S
Cu605  N635    2.018   .     S
Cu605  Cu606   2.685   .     S
Cu605  O609    1.917   .     S
Cu605  O607    1.952   .     S
Cu606  O610    1.939   .     S
Cu606  O608    1.956   .     S
Cu606  N634    2.018   .     S
O607   C611    1.285   .     A
O608   C611    1.291   .     A
O609   C612    1.299   .     A
O610   C612    1.299   .     A
C611   C632    1.428   .     S
C612   C615    1.475   .     S
C613   C626    1.398   .     A
C613   H660    1.085   .     S
C615   C625    1.403   .     A
C615   C626    1.415   .     A
C616   C627    1.401   .     A
C616   H642    1.083   .     S
C616   C617    1.388   .     A
C617   C204    1.392   1_556 S
C618   H629    1.076   .     S
C619   C620    1.420   .     A
C619   C204    1.418   1_556 S
C619   C207    1.428   1_556 S
C620   C627    1.421   .     A
C620   C624    1.411   .     A
C621   C625    1.404   .     A
C622   C623    1.392   .     A
C622   C207    1.418   1_556 S
C622   C199    1.401   1_556 S
C623   H641    1.084   .     S
C623   C624    1.385   .     A
C624   H643    1.081   .     S
C625   H628    1.076   .     S
C626   N637    1.435   .     S
H630   C663    1.083   .     S
C631   C770    1.328   .     S
C631   H782    1.088   .     S
H633   C770    1.088   .     S
N634   N681    1.284   .     S
N634   H686    1.029   .     S
H636   N681    1.029   .     S
N637   O684    1.301   .     S
N637   O685    1.302   .     S
O645   Cu651   1.956   .     S
O645   C647    1.291   .     A
O646   C647    1.285   .     A
O646   Cu652   1.952   .     S
C647   C677    1.428   .     S
O648   Cu651   1.939   .     S
O648   C650    1.303   .     A
O649   Cu652   1.917   .     S
O649   C650    1.295   .     A
C650   C673    1.475   .     S
Cu651  N681    2.018   .     S
Cu651  Cu652   2.685   .     S
Cu651  O655    1.917   .     S
Cu651  O653    1.952   .     S
Cu652  O656    1.939   .     S
Cu652  O654    1.956   .     S
Cu652  N680    2.018   .     S
O653   C657    1.285   .     A
O654   C657    1.291   .     A
O655   C658    1.299   .     A
O656   C658    1.299   .     A
C657   C678    1.428   .     S
C658   C661    1.475   .     S
C659   C672    1.398   .     A
C659   H568    1.085   1_655 S
C661   C671    1.403   .     A
C661   C672    1.415   .     A
C662   C673    1.401   .     A
C662   H688    1.083   .     S
C662   C663    1.388   .     A
C663   C250    1.392   1_556 S
C664   H675    1.076   .     S
C665   C666    1.420   .     A
C665   C250    1.418   1_556 S
C665   C253    1.428   1_556 S
C666   C673    1.421   .     A
C666   C670    1.411   .     A
C667   C671    1.404   .     A
C668   C669    1.392   .     A
C668   C253    1.418   1_556 S
C668   C245    1.401   1_556 S
C669   H687    1.084   .     S
C669   C670    1.385   .     A
C670   H689    1.081   .     S
C671   H674    1.076   .     S
C672   N683    1.435   .     S
H676   C571    1.083   1_655 S
C677   C816    1.328   .     S
C677   H828    1.088   .     S
H679   C816    1.088   .     S
N680   N589    1.284   1_655 S
N680   H594    1.029   1_655 S
H682   N589    1.029   1_655 S
N683   O592    1.301   1_655 S
N683   O593    1.302   1_655 S
O691   Cu697   1.956   .     S
O691   C693    1.291   .     A
O692   C693    1.285   .     A
O692   Cu698   1.952   .     S
C693   C723    1.428   .     S
O694   Cu697   1.939   .     S
O694   C696    1.303   .     A
O695   Cu698   1.917   .     S
O695   C696    1.295   .     A
C696   C719    1.475   .     S
Cu697  N727    2.018   .     S
Cu697  Cu698   2.685   .     S
Cu697  O701    1.917   .     S
Cu697  O699    1.952   .     S
Cu698  O702    1.939   .     S
Cu698  O700    1.956   .     S
Cu698  N726    2.018   .     S
O699   C703    1.285   .     A
O700   C703    1.291   .     A
O701   C704    1.299   .     A
O702   C704    1.299   .     A
C703   C724    1.428   .     S
C704   C707    1.475   .     S
C705   C718    1.398   .     A
C705   H752    1.085   .     S
H706   C797    1.085   1_455 S
C707   C717    1.403   .     A
C707   C718    1.415   .     A
C708   C719    1.401   .     A
C708   H734    1.083   .     S
C708   C709    1.388   .     A
C709   C296    1.392   1_556 S
C709   H814    1.083   1_455 S
C710   H721    1.076   .     S
C711   C712    1.420   .     A
C711   C296    1.418   1_556 S
C711   C299    1.428   1_556 S
C712   C719    1.421   .     A
C712   C716    1.411   .     A
C713   C717    1.404   .     A
C714   C715    1.392   .     A
C714   C299    1.418   1_556 S
C714   C291    1.401   1_556 S
C715   H733    1.084   .     S
C715   C716    1.385   .     A
C716   H735    1.081   .     S
C717   H720    1.076   .     S
C718   N729    1.435   .     S
H722   C755    1.083   .     S
C723   C448    1.328   1_565 S
C723   H460    1.088   1_565 S
H725   C448    1.088   1_565 S
N726   N773    1.284   .     S
N726   H778    1.029   .     S
N727   N818    1.284   1_455 S
N727   H820    1.029   1_455 S
H728   N773    1.029   .     S
N729   O776    1.301   .     S
N729   O777    1.302   .     S
O730   N821    1.301   1_455 S
O731   N821    1.302   1_455 S
H732   N818    1.029   1_455 S
O737   Cu743   1.956   .     S
O737   C739    1.291   .     A
O738   C739    1.285   .     A
O738   Cu744   1.952   .     S
C739   C769    1.428   .     S
O740   Cu743   1.939   .     S
O740   C742    1.303   .     A
O741   Cu744   1.917   .     S
O741   C742    1.295   .     A
C742   C765    1.475   .     S
Cu743  N773    2.018   .     S
Cu743  Cu744   2.685   .     S
Cu743  O747    1.917   .     S
Cu743  O745    1.952   .     S
Cu744  O748    1.939   .     S
Cu744  O746    1.956   .     S
Cu744  N772    2.018   .     S
O745   C749    1.285   .     A
O746   C749    1.291   .     A
O747   C750    1.299   .     A
O748   C750    1.299   .     A
C749   C770    1.428   .     S
C750   C753    1.475   .     S
C751   C764    1.398   .     A
C751   H798    1.085   .     S
C753   C763    1.403   .     A
C753   C764    1.415   .     A
C754   C765    1.401   .     A
C754   H780    1.083   .     S
C754   C755    1.388   .     A
C755   C342    1.392   1_556 S
C756   H767    1.076   .     S
C757   C758    1.420   .     A
C757   C342    1.418   1_556 S
C757   C345    1.428   1_556 S
C758   C765    1.421   .     A
C758   C762    1.411   .     A
C759   C763    1.404   .     A
C760   C761    1.392   .     A
C760   C345    1.418   1_556 S
C760   C337    1.401   1_556 S
C761   H779    1.084   .     S
C761   C762    1.385   .     A
C762   H781    1.081   .     S
C763   H766    1.076   .     S
C764   N775    1.435   .     S
H768   C801    1.083   .     S
C769   C494    1.328   1_565 S
C769   H506    1.088   1_565 S
H771   C494    1.088   1_565 S
N772   N819    1.284   .     S
N772   H824    1.029   .     S
H774   N819    1.029   .     S
N775   O822    1.301   .     S
N775   O823    1.302   .     S
O783   Cu789   1.956   .     S
O783   C785    1.291   .     A
O784   C785    1.285   .     A
O784   Cu790   1.952   .     S
C785   C815    1.428   .     S
O786   Cu789   1.939   .     S
O786   C788    1.303   .     A
O787   Cu790   1.917   .     S
O787   C788    1.295   .     A
C788   C811    1.475   .     S
Cu789  N819    2.018   .     S
Cu789  Cu790   2.685   .     S
Cu789  O793    1.917   .     S
Cu789  O791    1.952   .     S
Cu790  O794    1.939   .     S
Cu790  O792    1.956   .     S
Cu790  N818    2.018   .     S
O791   C795    1.285   .     A
O792   C795    1.291   .     A
O793   C796    1.299   .     A
O794   C796    1.299   .     A
C795   C816    1.428   .     S
C796   C799    1.475   .     S
C797   C810    1.398   .     A
C797   H706    1.085   1_655 S
C799   C809    1.403   .     A
C799   C810    1.415   .     A
C800   C811    1.401   .     A
C800   H826    1.083   .     S
C800   C801    1.388   .     A
C801   C388    1.392   1_556 S
C802   H813    1.076   .     S
C803   C804    1.420   .     A
C803   C388    1.418   1_556 S
C803   C391    1.428   1_556 S
C804   C811    1.421   .     A
C804   C808    1.411   .     A
C805   C809    1.404   .     A
C806   C807    1.392   .     A
C806   C391    1.418   1_556 S
C806   C383    1.401   1_556 S
C807   H825    1.084   .     S
C807   C808    1.385   .     A
C808   H827    1.081   .     S
C809   H812    1.076   .     S
C810   N821    1.435   .     S
H814   C709    1.083   1_655 S
C815   C540    1.328   1_565 S
C815   H552    1.088   1_565 S
H817   C540    1.088   1_565 S
N818   N727    1.284   1_655 S
N818   H732    1.029   1_655 S
H820   N727    1.029   1_655 S
N821   O730    1.301   1_655 S
N821   O731    1.302   1_655 S
