data_str_m2_o10_o17_pcu_sym.147
_audit_creation_date              2020-01-03
_audit_creation_method            'Materials Studio'
_symmetry_space_group_name_H-M    'P1'
_symmetry_Int_Tables_number       1
_symmetry_cell_setting            triclinic
loop_
_symmetry_equiv_pos_as_xyz
  x,y,z
_cell_length_a                    30.0652
_cell_length_b                    26.1341
_cell_length_c                    22.2713
_cell_angle_alpha                 101.8036
_cell_angle_beta                  94.7365
_cell_angle_gamma                 92.7085
loop_
_atom_site_label
_atom_site_type_symbol
_atom_site_fract_x
_atom_site_fract_y
_atom_site_fract_z
_atom_site_U_iso_or_equiv
_atom_site_adp_type
_atom_site_occupancy
C1     C     0.24667   0.06695   0.15219   0.00000  Uiso   1.00
C2     C     0.25264   0.26641   0.18133   0.00000  Uiso   1.00
C3     C     0.01514   0.12799   0.05683   0.00000  Uiso   1.00
C4     C     0.48481   0.20364   0.27686   0.00000  Uiso   1.00
C5     C     0.23630   0.01241   0.14857   0.00000  Uiso   1.00
C6     C     0.26161   0.32118   0.18606   0.00000  Uiso   1.00
C7     C     0.16435   0.16649   0.16716   0.00000  Uiso   1.00
C8     C     0.33566   0.16705   0.16621   0.00000  Uiso   1.00
C9     C     0.41123   0.18555   0.22100   0.00000  Uiso   1.00
C10    C     0.08876   0.14703   0.11248   0.00000  Uiso   1.00
C11    C     0.38402   0.16731   0.16573   0.00000  Uiso   1.00
C12    C     0.11596   0.16562   0.16767   0.00000  Uiso   1.00
C13    C     0.40308   0.14866   0.11078   0.00000  Uiso   1.00
C14    C     0.09688   0.18370   0.22274   0.00000  Uiso   1.00
C15    C     0.44937   0.14770   0.11088   0.00000  Uiso   1.00
C16    C     0.05057   0.18410   0.22277   0.00000  Uiso   1.00
C17    C     0.47669   0.16611   0.16660   0.00000  Uiso   1.00
C18    C     0.02326   0.16557   0.16708   0.00000  Uiso   1.00
C19    C     0.45749   0.18520   0.22181   0.00000  Uiso   1.00
C20    C     0.04247   0.14668   0.11182   0.00000  Uiso   1.00
C21    C     0.46879   0.12855   0.05634   0.00000  Uiso   1.00
C22    C     0.03115   0.20306   0.27736   0.00000  Uiso   1.00
Cu23   Cu    0.25500   0.17246   0.22813   0.00000  Uiso   1.00
Cu24   Cu    0.24499   0.16087   0.10521   0.00000  Uiso   1.00
H25    H     0.39644   0.20019   0.26347   0.00000  Uiso   1.00
H26    H     0.10357   0.13259   0.06996   0.00000  Uiso   1.00
H27    H     0.38194   0.13428   0.06820   0.00000  Uiso   1.00
H28    H     0.11801   0.19819   0.26530   0.00000  Uiso   1.00
H29    H     0.44818   0.11424   0.01334   0.00000  Uiso   1.00
H30    H     0.05178   0.21742   0.32036   0.00000  Uiso   1.00
H31    H     0.02963   0.11321   0.01419   0.00000  Uiso   1.00
H32    H     0.47033   0.21845   0.31950   0.00000  Uiso   1.00
H33    H     0.21528   0.12582   0.31614   0.00000  Uiso   1.00
H34    H     0.28473   0.20750   0.01719   0.00000  Uiso   1.00
N35    N     0.23744   0.15214   0.01284   0.00000  Uiso   1.00
N36    N     0.26255   0.18119   0.32049   0.00000  Uiso   1.00
O37    O     0.25325   0.09538   0.20659   0.00000  Uiso   1.00
O38    O     0.24674   0.23796   0.12674   0.00000  Uiso   1.00
O39    O     0.24480   0.08559   0.10279   0.00000  Uiso   1.00
O40    O     0.25520   0.24774   0.23055   0.00000  Uiso   1.00
O41    O     0.18935   0.17155   0.21857   0.00000  Uiso   1.00
O42    O     0.31064   0.16179   0.11476   0.00000  Uiso   1.00
O43    O     0.18090   0.16176   0.11477   0.00000  Uiso   1.00
O44    O     0.31910   0.17157   0.21857   0.00000  Uiso   1.00
C45    C     0.19341   0.32137   0.10843   0.00000  Uiso   1.00
C46    C     0.15312   0.02146   0.12125   0.00000  Uiso   1.00
C47    C     0.10982   0.32674   0.08685   0.00000  Uiso   1.00
H48    H     0.11279   0.31737   0.03644   0.00000  Uiso   1.00
H49    H     0.10217   0.28992   0.10270   0.00000  Uiso   1.00
H50    H     0.08173   0.01916   0.09592   0.00000  Uiso   1.00
H51    H     0.14932   0.03036   0.17149   0.00000  Uiso   1.00
H52    H     0.15844   0.05887   0.10592   0.00000  Uiso   1.00
H53    H     0.19957   0.31695   0.05915   0.00000  Uiso   1.00
H54    H     0.18300   0.28220   0.11602   0.00000  Uiso   1.00
C55    C     0.30422   0.01195   0.22685   0.00000  Uiso   1.00
C56    C     0.34234   0.02365   0.18866   0.00000  Uiso   1.00
C57    C     0.38423   0.04767   0.23019   0.00000  Uiso   1.00
H58    H     0.37693   0.08493   0.26078   0.00000  Uiso   1.00
H59    H     0.39642   0.02011   0.25884   0.00000  Uiso   1.00
H60    H     0.41103   0.05612   0.20145   0.00000  Uiso   1.00
H61    H     0.35053   0.31996   0.15828   0.00000  Uiso   1.00
H62    H     0.33237   0.05124   0.15901   0.00000  Uiso   1.00
H63    H     0.29752   0.04706   0.26134   0.00000  Uiso   1.00
H64    H     0.31664   0.31750   0.25513   0.00000  Uiso   1.00
C65    C     0.74667   0.06695   0.15219   0.00000  Uiso   1.00
C66    C     0.75264   0.26641   0.18133   0.00000  Uiso   1.00
C67    C     0.51514   0.12799   0.05683   0.00000  Uiso   1.00
C68    C     0.98481   0.20364   0.27686   0.00000  Uiso   1.00
C69    C     0.73630   0.01241   0.14857   0.00000  Uiso   1.00
C70    C     0.76161   0.32118   0.18606   0.00000  Uiso   1.00
C71    C     0.66435   0.16649   0.16716   0.00000  Uiso   1.00
C72    C     0.83566   0.16705   0.16621   0.00000  Uiso   1.00
C73    C     0.91123   0.18555   0.22100   0.00000  Uiso   1.00
C74    C     0.58876   0.14703   0.11248   0.00000  Uiso   1.00
C75    C     0.88402   0.16731   0.16573   0.00000  Uiso   1.00
C76    C     0.61596   0.16562   0.16767   0.00000  Uiso   1.00
C77    C     0.90308   0.14866   0.11078   0.00000  Uiso   1.00
C78    C     0.59688   0.18370   0.22274   0.00000  Uiso   1.00
C79    C     0.94937   0.14770   0.11088   0.00000  Uiso   1.00
C80    C     0.55057   0.18410   0.22277   0.00000  Uiso   1.00
C81    C     0.97669   0.16611   0.16660   0.00000  Uiso   1.00
C82    C     0.52326   0.16557   0.16708   0.00000  Uiso   1.00
C83    C     0.95749   0.18520   0.22181   0.00000  Uiso   1.00
C84    C     0.54247   0.14668   0.11182   0.00000  Uiso   1.00
C85    C     0.96879   0.12855   0.05634   0.00000  Uiso   1.00
C86    C     0.53115   0.20306   0.27736   0.00000  Uiso   1.00
Cu87   Cu    0.75500   0.17246   0.22813   0.00000  Uiso   1.00
Cu88   Cu    0.74499   0.16087   0.10521   0.00000  Uiso   1.00
H89    H     0.89644   0.20019   0.26347   0.00000  Uiso   1.00
H90    H     0.60357   0.13259   0.06996   0.00000  Uiso   1.00
H91    H     0.88194   0.13428   0.06820   0.00000  Uiso   1.00
H92    H     0.61801   0.19819   0.26530   0.00000  Uiso   1.00
H93    H     0.94818   0.11424   0.01334   0.00000  Uiso   1.00
H94    H     0.55178   0.21742   0.32036   0.00000  Uiso   1.00
H95    H     0.52963   0.11321   0.01419   0.00000  Uiso   1.00
H96    H     0.97033   0.21845   0.31950   0.00000  Uiso   1.00
H97    H     0.71528   0.12582   0.31614   0.00000  Uiso   1.00
H98    H     0.78473   0.20750   0.01719   0.00000  Uiso   1.00
N99    N     0.73744   0.15214   0.01284   0.00000  Uiso   1.00
N100   N     0.76255   0.18119   0.32049   0.00000  Uiso   1.00
O101   O     0.75325   0.09538   0.20659   0.00000  Uiso   1.00
O102   O     0.74674   0.23796   0.12674   0.00000  Uiso   1.00
O103   O     0.74480   0.08559   0.10279   0.00000  Uiso   1.00
O104   O     0.75520   0.24774   0.23055   0.00000  Uiso   1.00
O105   O     0.68935   0.17155   0.21857   0.00000  Uiso   1.00
O106   O     0.81064   0.16179   0.11476   0.00000  Uiso   1.00
O107   O     0.68090   0.16176   0.11477   0.00000  Uiso   1.00
O108   O     0.81910   0.17157   0.21857   0.00000  Uiso   1.00
C109   C     0.69341   0.32137   0.10843   0.00000  Uiso   1.00
C110   C     0.65312   0.02146   0.12125   0.00000  Uiso   1.00
C111   C     0.60982   0.32674   0.08685   0.00000  Uiso   1.00
H112   H     0.61279   0.31737   0.03644   0.00000  Uiso   1.00
H113   H     0.60217   0.28992   0.10270   0.00000  Uiso   1.00
H114   H     0.58173   0.01916   0.09592   0.00000  Uiso   1.00
H115   H     0.64932   0.03036   0.17149   0.00000  Uiso   1.00
H116   H     0.65844   0.05887   0.10592   0.00000  Uiso   1.00
H117   H     0.69957   0.31695   0.05915   0.00000  Uiso   1.00
H118   H     0.68300   0.28220   0.11602   0.00000  Uiso   1.00
C119   C     0.80422   0.01195   0.22685   0.00000  Uiso   1.00
C120   C     0.84234   0.02365   0.18866   0.00000  Uiso   1.00
C121   C     0.88423   0.04767   0.23019   0.00000  Uiso   1.00
H122   H     0.87693   0.08493   0.26078   0.00000  Uiso   1.00
H123   H     0.89642   0.02011   0.25884   0.00000  Uiso   1.00
H124   H     0.91103   0.05612   0.20145   0.00000  Uiso   1.00
H125   H     0.85053   0.31996   0.15828   0.00000  Uiso   1.00
H126   H     0.83237   0.05124   0.15901   0.00000  Uiso   1.00
H127   H     0.79752   0.04706   0.26134   0.00000  Uiso   1.00
H128   H     0.81664   0.31750   0.25513   0.00000  Uiso   1.00
C129   C     0.24667   0.40028   0.15219   0.00000  Uiso   1.00
C130   C     0.25264   0.59974   0.18133   0.00000  Uiso   1.00
C131   C     0.01514   0.46132   0.05683   0.00000  Uiso   1.00
C132   C     0.48481   0.53697   0.27686   0.00000  Uiso   1.00
C133   C     0.23630   0.34574   0.14857   0.00000  Uiso   1.00
C134   C     0.26161   0.65452   0.18606   0.00000  Uiso   1.00
C135   C     0.16435   0.49983   0.16716   0.00000  Uiso   1.00
C136   C     0.33566   0.50038   0.16621   0.00000  Uiso   1.00
C137   C     0.41123   0.51888   0.22100   0.00000  Uiso   1.00
C138   C     0.08876   0.48036   0.11248   0.00000  Uiso   1.00
C139   C     0.38402   0.50064   0.16573   0.00000  Uiso   1.00
C140   C     0.11596   0.49896   0.16767   0.00000  Uiso   1.00
C141   C     0.40308   0.48199   0.11078   0.00000  Uiso   1.00
C142   C     0.09688   0.51703   0.22274   0.00000  Uiso   1.00
C143   C     0.44937   0.48103   0.11088   0.00000  Uiso   1.00
C144   C     0.05057   0.51744   0.22277   0.00000  Uiso   1.00
C145   C     0.47669   0.49944   0.16660   0.00000  Uiso   1.00
C146   C     0.02326   0.49890   0.16708   0.00000  Uiso   1.00
C147   C     0.45749   0.51853   0.22181   0.00000  Uiso   1.00
C148   C     0.04247   0.48001   0.11182   0.00000  Uiso   1.00
C149   C     0.46879   0.46188   0.05634   0.00000  Uiso   1.00
C150   C     0.03115   0.53640   0.27736   0.00000  Uiso   1.00
Cu151  Cu    0.25500   0.50579   0.22813   0.00000  Uiso   1.00
Cu152  Cu    0.24499   0.49421   0.10521   0.00000  Uiso   1.00
H153   H     0.39644   0.53352   0.26347   0.00000  Uiso   1.00
H154   H     0.10357   0.46592   0.06996   0.00000  Uiso   1.00
H155   H     0.38194   0.46762   0.06820   0.00000  Uiso   1.00
H156   H     0.11801   0.53152   0.26530   0.00000  Uiso   1.00
H157   H     0.44818   0.44757   0.01334   0.00000  Uiso   1.00
H158   H     0.05178   0.55075   0.32036   0.00000  Uiso   1.00
H159   H     0.02963   0.44654   0.01419   0.00000  Uiso   1.00
H160   H     0.47033   0.55178   0.31950   0.00000  Uiso   1.00
H161   H     0.21528   0.45916   0.31614   0.00000  Uiso   1.00
H162   H     0.28473   0.54083   0.01719   0.00000  Uiso   1.00
N163   N     0.23744   0.48547   0.01284   0.00000  Uiso   1.00
N164   N     0.26255   0.51453   0.32049   0.00000  Uiso   1.00
O165   O     0.25325   0.42871   0.20659   0.00000  Uiso   1.00
O166   O     0.24674   0.57129   0.12674   0.00000  Uiso   1.00
O167   O     0.24480   0.41892   0.10279   0.00000  Uiso   1.00
O168   O     0.25520   0.58108   0.23055   0.00000  Uiso   1.00
O169   O     0.18935   0.50488   0.21857   0.00000  Uiso   1.00
O170   O     0.31064   0.49512   0.11476   0.00000  Uiso   1.00
O171   O     0.18090   0.49510   0.11477   0.00000  Uiso   1.00
O172   O     0.31910   0.50490   0.21857   0.00000  Uiso   1.00
C173   C     0.19341   0.65470   0.10843   0.00000  Uiso   1.00
C174   C     0.15312   0.35480   0.12125   0.00000  Uiso   1.00
C175   C     0.10982   0.66007   0.08685   0.00000  Uiso   1.00
H176   H     0.11279   0.65071   0.03644   0.00000  Uiso   1.00
H177   H     0.10217   0.62325   0.10270   0.00000  Uiso   1.00
H178   H     0.08173   0.35249   0.09592   0.00000  Uiso   1.00
H179   H     0.14932   0.36369   0.17149   0.00000  Uiso   1.00
H180   H     0.15844   0.39220   0.10592   0.00000  Uiso   1.00
H181   H     0.19957   0.65029   0.05915   0.00000  Uiso   1.00
H182   H     0.18300   0.61553   0.11602   0.00000  Uiso   1.00
C183   C     0.30422   0.34529   0.22685   0.00000  Uiso   1.00
C184   C     0.34234   0.35698   0.18866   0.00000  Uiso   1.00
C185   C     0.38423   0.38100   0.23019   0.00000  Uiso   1.00
H186   H     0.37693   0.41826   0.26078   0.00000  Uiso   1.00
H187   H     0.39642   0.35344   0.25884   0.00000  Uiso   1.00
H188   H     0.41103   0.38945   0.20145   0.00000  Uiso   1.00
H189   H     0.35053   0.65330   0.15828   0.00000  Uiso   1.00
H190   H     0.33237   0.38457   0.15901   0.00000  Uiso   1.00
H191   H     0.29752   0.38040   0.26134   0.00000  Uiso   1.00
H192   H     0.31664   0.65083   0.25513   0.00000  Uiso   1.00
C193   C     0.74667   0.40028   0.15219   0.00000  Uiso   1.00
C194   C     0.75264   0.59974   0.18133   0.00000  Uiso   1.00
C195   C     0.51514   0.46132   0.05683   0.00000  Uiso   1.00
C196   C     0.98481   0.53697   0.27686   0.00000  Uiso   1.00
C197   C     0.73630   0.34574   0.14857   0.00000  Uiso   1.00
C198   C     0.76161   0.65452   0.18606   0.00000  Uiso   1.00
C199   C     0.66435   0.49983   0.16716   0.00000  Uiso   1.00
C200   C     0.83566   0.50038   0.16621   0.00000  Uiso   1.00
C201   C     0.91123   0.51888   0.22100   0.00000  Uiso   1.00
C202   C     0.58876   0.48036   0.11248   0.00000  Uiso   1.00
C203   C     0.88402   0.50064   0.16573   0.00000  Uiso   1.00
C204   C     0.61596   0.49896   0.16767   0.00000  Uiso   1.00
C205   C     0.90308   0.48199   0.11078   0.00000  Uiso   1.00
C206   C     0.59688   0.51703   0.22274   0.00000  Uiso   1.00
C207   C     0.94937   0.48103   0.11088   0.00000  Uiso   1.00
C208   C     0.55057   0.51744   0.22277   0.00000  Uiso   1.00
C209   C     0.97669   0.49944   0.16660   0.00000  Uiso   1.00
C210   C     0.52326   0.49890   0.16708   0.00000  Uiso   1.00
C211   C     0.95749   0.51853   0.22181   0.00000  Uiso   1.00
C212   C     0.54247   0.48001   0.11182   0.00000  Uiso   1.00
C213   C     0.96879   0.46188   0.05634   0.00000  Uiso   1.00
C214   C     0.53115   0.53640   0.27736   0.00000  Uiso   1.00
Cu215  Cu    0.75500   0.50579   0.22813   0.00000  Uiso   1.00
Cu216  Cu    0.74499   0.49421   0.10521   0.00000  Uiso   1.00
H217   H     0.89644   0.53352   0.26347   0.00000  Uiso   1.00
H218   H     0.60357   0.46592   0.06996   0.00000  Uiso   1.00
H219   H     0.88194   0.46762   0.06820   0.00000  Uiso   1.00
H220   H     0.61801   0.53152   0.26530   0.00000  Uiso   1.00
H221   H     0.94818   0.44757   0.01334   0.00000  Uiso   1.00
H222   H     0.55178   0.55075   0.32036   0.00000  Uiso   1.00
H223   H     0.52963   0.44654   0.01419   0.00000  Uiso   1.00
H224   H     0.97033   0.55178   0.31950   0.00000  Uiso   1.00
H225   H     0.71528   0.45916   0.31614   0.00000  Uiso   1.00
H226   H     0.78473   0.54083   0.01719   0.00000  Uiso   1.00
N227   N     0.73744   0.48547   0.01284   0.00000  Uiso   1.00
N228   N     0.76255   0.51453   0.32049   0.00000  Uiso   1.00
O229   O     0.75325   0.42871   0.20659   0.00000  Uiso   1.00
O230   O     0.74674   0.57129   0.12674   0.00000  Uiso   1.00
O231   O     0.74480   0.41892   0.10279   0.00000  Uiso   1.00
O232   O     0.75520   0.58108   0.23055   0.00000  Uiso   1.00
O233   O     0.68935   0.50488   0.21857   0.00000  Uiso   1.00
O234   O     0.81064   0.49512   0.11476   0.00000  Uiso   1.00
O235   O     0.68090   0.49510   0.11477   0.00000  Uiso   1.00
O236   O     0.81910   0.50490   0.21857   0.00000  Uiso   1.00
C237   C     0.69341   0.65470   0.10843   0.00000  Uiso   1.00
C238   C     0.65312   0.35480   0.12125   0.00000  Uiso   1.00
C239   C     0.60982   0.66007   0.08685   0.00000  Uiso   1.00
H240   H     0.61279   0.65071   0.03644   0.00000  Uiso   1.00
H241   H     0.60217   0.62325   0.10270   0.00000  Uiso   1.00
H242   H     0.58173   0.35249   0.09592   0.00000  Uiso   1.00
H243   H     0.64932   0.36369   0.17149   0.00000  Uiso   1.00
H244   H     0.65844   0.39220   0.10592   0.00000  Uiso   1.00
H245   H     0.69957   0.65029   0.05915   0.00000  Uiso   1.00
H246   H     0.68300   0.61553   0.11602   0.00000  Uiso   1.00
C247   C     0.80422   0.34529   0.22685   0.00000  Uiso   1.00
C248   C     0.84234   0.35698   0.18866   0.00000  Uiso   1.00
C249   C     0.88423   0.38100   0.23019   0.00000  Uiso   1.00
H250   H     0.87693   0.41826   0.26078   0.00000  Uiso   1.00
H251   H     0.89642   0.35344   0.25884   0.00000  Uiso   1.00
H252   H     0.91103   0.38945   0.20145   0.00000  Uiso   1.00
H253   H     0.85053   0.65330   0.15828   0.00000  Uiso   1.00
H254   H     0.83237   0.38457   0.15901   0.00000  Uiso   1.00
H255   H     0.79752   0.38040   0.26134   0.00000  Uiso   1.00
H256   H     0.81664   0.65083   0.25513   0.00000  Uiso   1.00
C257   C     0.24667   0.73361   0.15219   0.00000  Uiso   1.00
C258   C     0.25264   0.93307   0.18133   0.00000  Uiso   1.00
C259   C     0.01514   0.79465   0.05683   0.00000  Uiso   1.00
C260   C     0.48481   0.87031   0.27686   0.00000  Uiso   1.00
C261   C     0.23630   0.67907   0.14857   0.00000  Uiso   1.00
C262   C     0.26161   0.98785   0.18606   0.00000  Uiso   1.00
C263   C     0.16435   0.83316   0.16716   0.00000  Uiso   1.00
C264   C     0.33566   0.83371   0.16621   0.00000  Uiso   1.00
C265   C     0.41123   0.85221   0.22100   0.00000  Uiso   1.00
C266   C     0.08876   0.81369   0.11248   0.00000  Uiso   1.00
C267   C     0.38402   0.83398   0.16573   0.00000  Uiso   1.00
C268   C     0.11596   0.83229   0.16767   0.00000  Uiso   1.00
C269   C     0.40308   0.81533   0.11078   0.00000  Uiso   1.00
C270   C     0.09688   0.85036   0.22274   0.00000  Uiso   1.00
C271   C     0.44937   0.81437   0.11088   0.00000  Uiso   1.00
C272   C     0.05057   0.85077   0.22277   0.00000  Uiso   1.00
C273   C     0.47669   0.83277   0.16660   0.00000  Uiso   1.00
C274   C     0.02326   0.83224   0.16708   0.00000  Uiso   1.00
C275   C     0.45749   0.85186   0.22181   0.00000  Uiso   1.00
C276   C     0.04247   0.81334   0.11182   0.00000  Uiso   1.00
C277   C     0.46879   0.79521   0.05634   0.00000  Uiso   1.00
C278   C     0.03115   0.86973   0.27736   0.00000  Uiso   1.00
Cu279  Cu    0.25500   0.83913   0.22813   0.00000  Uiso   1.00
Cu280  Cu    0.24499   0.82754   0.10521   0.00000  Uiso   1.00
H281   H     0.39644   0.86686   0.26347   0.00000  Uiso   1.00
H282   H     0.10357   0.79926   0.06996   0.00000  Uiso   1.00
H283   H     0.38194   0.80095   0.06820   0.00000  Uiso   1.00
H284   H     0.11801   0.86486   0.26530   0.00000  Uiso   1.00
H285   H     0.44818   0.78091   0.01334   0.00000  Uiso   1.00
H286   H     0.05178   0.88408   0.32036   0.00000  Uiso   1.00
H287   H     0.02963   0.77987   0.01419   0.00000  Uiso   1.00
H288   H     0.47033   0.88512   0.31950   0.00000  Uiso   1.00
H289   H     0.21528   0.79249   0.31614   0.00000  Uiso   1.00
H290   H     0.28473   0.87416   0.01719   0.00000  Uiso   1.00
N291   N     0.23744   0.81881   0.01284   0.00000  Uiso   1.00
N292   N     0.26255   0.84786   0.32049   0.00000  Uiso   1.00
O293   O     0.25325   0.76204   0.20659   0.00000  Uiso   1.00
O294   O     0.24674   0.90462   0.12674   0.00000  Uiso   1.00
O295   O     0.24480   0.75226   0.10279   0.00000  Uiso   1.00
O296   O     0.25520   0.91441   0.23055   0.00000  Uiso   1.00
O297   O     0.18935   0.83821   0.21857   0.00000  Uiso   1.00
O298   O     0.31064   0.82845   0.11476   0.00000  Uiso   1.00
O299   O     0.18090   0.82843   0.11477   0.00000  Uiso   1.00
O300   O     0.31910   0.83824   0.21857   0.00000  Uiso   1.00
C301   C     0.19341   0.98803   0.10843   0.00000  Uiso   1.00
C302   C     0.15312   0.68813   0.12125   0.00000  Uiso   1.00
C303   C     0.10982   0.99340   0.08685   0.00000  Uiso   1.00
H304   H     0.11279   0.98404   0.03644   0.00000  Uiso   1.00
H305   H     0.10217   0.95658   0.10270   0.00000  Uiso   1.00
H306   H     0.08173   0.68583   0.09592   0.00000  Uiso   1.00
H307   H     0.14932   0.69702   0.17149   0.00000  Uiso   1.00
H308   H     0.15844   0.72553   0.10592   0.00000  Uiso   1.00
H309   H     0.19957   0.98362   0.05915   0.00000  Uiso   1.00
H310   H     0.18300   0.94887   0.11602   0.00000  Uiso   1.00
C311   C     0.30422   0.67862   0.22685   0.00000  Uiso   1.00
C312   C     0.34234   0.69031   0.18866   0.00000  Uiso   1.00
C313   C     0.38423   0.71433   0.23019   0.00000  Uiso   1.00
H314   H     0.37693   0.75160   0.26078   0.00000  Uiso   1.00
H315   H     0.39642   0.68678   0.25884   0.00000  Uiso   1.00
H316   H     0.41103   0.72279   0.20145   0.00000  Uiso   1.00
H317   H     0.35053   0.98663   0.15828   0.00000  Uiso   1.00
H318   H     0.33237   0.71791   0.15901   0.00000  Uiso   1.00
H319   H     0.29752   0.71373   0.26134   0.00000  Uiso   1.00
H320   H     0.31664   0.98416   0.25513   0.00000  Uiso   1.00
C321   C     0.74667   0.73361   0.15219   0.00000  Uiso   1.00
C322   C     0.75264   0.93307   0.18133   0.00000  Uiso   1.00
C323   C     0.51514   0.79465   0.05683   0.00000  Uiso   1.00
C324   C     0.98481   0.87031   0.27686   0.00000  Uiso   1.00
C325   C     0.73630   0.67907   0.14857   0.00000  Uiso   1.00
C326   C     0.76161   0.98785   0.18606   0.00000  Uiso   1.00
C327   C     0.66435   0.83316   0.16716   0.00000  Uiso   1.00
C328   C     0.83566   0.83371   0.16621   0.00000  Uiso   1.00
C329   C     0.91123   0.85221   0.22100   0.00000  Uiso   1.00
C330   C     0.58876   0.81369   0.11248   0.00000  Uiso   1.00
C331   C     0.88402   0.83398   0.16573   0.00000  Uiso   1.00
C332   C     0.61596   0.83229   0.16767   0.00000  Uiso   1.00
C333   C     0.90308   0.81533   0.11078   0.00000  Uiso   1.00
C334   C     0.59688   0.85036   0.22274   0.00000  Uiso   1.00
C335   C     0.94937   0.81437   0.11088   0.00000  Uiso   1.00
C336   C     0.55057   0.85077   0.22277   0.00000  Uiso   1.00
C337   C     0.97669   0.83277   0.16660   0.00000  Uiso   1.00
C338   C     0.52326   0.83224   0.16708   0.00000  Uiso   1.00
C339   C     0.95749   0.85186   0.22181   0.00000  Uiso   1.00
C340   C     0.54247   0.81334   0.11182   0.00000  Uiso   1.00
C341   C     0.96879   0.79521   0.05634   0.00000  Uiso   1.00
C342   C     0.53115   0.86973   0.27736   0.00000  Uiso   1.00
Cu343  Cu    0.75500   0.83913   0.22813   0.00000  Uiso   1.00
Cu344  Cu    0.74499   0.82754   0.10521   0.00000  Uiso   1.00
H345   H     0.89644   0.86686   0.26347   0.00000  Uiso   1.00
H346   H     0.60357   0.79926   0.06996   0.00000  Uiso   1.00
H347   H     0.88194   0.80095   0.06820   0.00000  Uiso   1.00
H348   H     0.61801   0.86486   0.26530   0.00000  Uiso   1.00
H349   H     0.94818   0.78091   0.01334   0.00000  Uiso   1.00
H350   H     0.55178   0.88408   0.32036   0.00000  Uiso   1.00
H351   H     0.52963   0.77987   0.01419   0.00000  Uiso   1.00
H352   H     0.97033   0.88512   0.31950   0.00000  Uiso   1.00
H353   H     0.71528   0.79249   0.31614   0.00000  Uiso   1.00
H354   H     0.78473   0.87416   0.01719   0.00000  Uiso   1.00
N355   N     0.73744   0.81881   0.01284   0.00000  Uiso   1.00
N356   N     0.76255   0.84786   0.32049   0.00000  Uiso   1.00
O357   O     0.75325   0.76204   0.20659   0.00000  Uiso   1.00
O358   O     0.74674   0.90462   0.12674   0.00000  Uiso   1.00
O359   O     0.74480   0.75226   0.10279   0.00000  Uiso   1.00
O360   O     0.75520   0.91441   0.23055   0.00000  Uiso   1.00
O361   O     0.68935   0.83821   0.21857   0.00000  Uiso   1.00
O362   O     0.81064   0.82845   0.11476   0.00000  Uiso   1.00
O363   O     0.68090   0.82843   0.11477   0.00000  Uiso   1.00
O364   O     0.81910   0.83824   0.21857   0.00000  Uiso   1.00
C365   C     0.69341   0.98803   0.10843   0.00000  Uiso   1.00
C366   C     0.65312   0.68813   0.12125   0.00000  Uiso   1.00
C367   C     0.60982   0.99340   0.08685   0.00000  Uiso   1.00
H368   H     0.61279   0.98404   0.03644   0.00000  Uiso   1.00
H369   H     0.60217   0.95658   0.10270   0.00000  Uiso   1.00
H370   H     0.58173   0.68583   0.09592   0.00000  Uiso   1.00
H371   H     0.64932   0.69702   0.17149   0.00000  Uiso   1.00
H372   H     0.65844   0.72553   0.10592   0.00000  Uiso   1.00
H373   H     0.69957   0.98362   0.05915   0.00000  Uiso   1.00
H374   H     0.68300   0.94887   0.11602   0.00000  Uiso   1.00
C375   C     0.80422   0.67862   0.22685   0.00000  Uiso   1.00
C376   C     0.84234   0.69031   0.18866   0.00000  Uiso   1.00
C377   C     0.88423   0.71433   0.23019   0.00000  Uiso   1.00
H378   H     0.87693   0.75160   0.26078   0.00000  Uiso   1.00
H379   H     0.89642   0.68678   0.25884   0.00000  Uiso   1.00
H380   H     0.91103   0.72279   0.20145   0.00000  Uiso   1.00
H381   H     0.85053   0.98663   0.15828   0.00000  Uiso   1.00
H382   H     0.83237   0.71791   0.15901   0.00000  Uiso   1.00
H383   H     0.79752   0.71373   0.26134   0.00000  Uiso   1.00
H384   H     0.81664   0.98416   0.25513   0.00000  Uiso   1.00
C385   C     0.24667   0.06695   0.48552   0.00000  Uiso   1.00
C386   C     0.25264   0.26641   0.51467   0.00000  Uiso   1.00
C387   C     0.01514   0.12799   0.39016   0.00000  Uiso   1.00
C388   C     0.48481   0.20364   0.61020   0.00000  Uiso   1.00
C389   C     0.23630   0.01241   0.48190   0.00000  Uiso   1.00
C390   C     0.26161   0.32118   0.51939   0.00000  Uiso   1.00
C391   C     0.16435   0.16649   0.50050   0.00000  Uiso   1.00
C392   C     0.33566   0.16705   0.49954   0.00000  Uiso   1.00
C393   C     0.41123   0.18555   0.55433   0.00000  Uiso   1.00
C394   C     0.08876   0.14703   0.44581   0.00000  Uiso   1.00
C395   C     0.38402   0.16731   0.49906   0.00000  Uiso   1.00
C396   C     0.11596   0.16562   0.50101   0.00000  Uiso   1.00
C397   C     0.40308   0.14866   0.44411   0.00000  Uiso   1.00
C398   C     0.09688   0.18370   0.55607   0.00000  Uiso   1.00
C399   C     0.44937   0.14770   0.44421   0.00000  Uiso   1.00
C400   C     0.05057   0.18410   0.55610   0.00000  Uiso   1.00
C401   C     0.47669   0.16611   0.49993   0.00000  Uiso   1.00
C402   C     0.02326   0.16557   0.50041   0.00000  Uiso   1.00
C403   C     0.45749   0.18520   0.55514   0.00000  Uiso   1.00
C404   C     0.04247   0.14668   0.44515   0.00000  Uiso   1.00
C405   C     0.46879   0.12855   0.38967   0.00000  Uiso   1.00
C406   C     0.03115   0.20306   0.61069   0.00000  Uiso   1.00
Cu407  Cu    0.25500   0.17246   0.56146   0.00000  Uiso   1.00
Cu408  Cu    0.24499   0.16087   0.43854   0.00000  Uiso   1.00
H409   H     0.39644   0.20019   0.59680   0.00000  Uiso   1.00
H410   H     0.10357   0.13259   0.40330   0.00000  Uiso   1.00
H411   H     0.38194   0.13428   0.40153   0.00000  Uiso   1.00
H412   H     0.11801   0.19819   0.59864   0.00000  Uiso   1.00
H413   H     0.44818   0.11424   0.34667   0.00000  Uiso   1.00
H414   H     0.05178   0.21742   0.65369   0.00000  Uiso   1.00
H415   H     0.02963   0.11321   0.34752   0.00000  Uiso   1.00
H416   H     0.47033   0.21845   0.65283   0.00000  Uiso   1.00
H417   H     0.21528   0.12582   0.64947   0.00000  Uiso   1.00
H418   H     0.28473   0.20750   0.35052   0.00000  Uiso   1.00
N419   N     0.23744   0.15214   0.34617   0.00000  Uiso   1.00
N420   N     0.26255   0.18119   0.65383   0.00000  Uiso   1.00
O421   O     0.25325   0.09538   0.53992   0.00000  Uiso   1.00
O422   O     0.24674   0.23796   0.46008   0.00000  Uiso   1.00
O423   O     0.24480   0.08559   0.43612   0.00000  Uiso   1.00
O424   O     0.25520   0.24774   0.56388   0.00000  Uiso   1.00
O425   O     0.18935   0.17155   0.55191   0.00000  Uiso   1.00
O426   O     0.31064   0.16179   0.44809   0.00000  Uiso   1.00
O427   O     0.18090   0.16176   0.44810   0.00000  Uiso   1.00
O428   O     0.31910   0.17157   0.55190   0.00000  Uiso   1.00
C429   C     0.19341   0.32137   0.44176   0.00000  Uiso   1.00
C430   C     0.15312   0.02146   0.45458   0.00000  Uiso   1.00
C431   C     0.10982   0.32674   0.42018   0.00000  Uiso   1.00
H432   H     0.11279   0.31737   0.36977   0.00000  Uiso   1.00
H433   H     0.10217   0.28992   0.43603   0.00000  Uiso   1.00
H434   H     0.08173   0.01916   0.42926   0.00000  Uiso   1.00
H435   H     0.14932   0.03036   0.50483   0.00000  Uiso   1.00
H436   H     0.15844   0.05887   0.43925   0.00000  Uiso   1.00
H437   H     0.19957   0.31695   0.39249   0.00000  Uiso   1.00
H438   H     0.18300   0.28220   0.44936   0.00000  Uiso   1.00
C439   C     0.30422   0.01195   0.56018   0.00000  Uiso   1.00
C440   C     0.34234   0.02365   0.52200   0.00000  Uiso   1.00
C441   C     0.38423   0.04767   0.56353   0.00000  Uiso   1.00
H442   H     0.37693   0.08493   0.59412   0.00000  Uiso   1.00
H443   H     0.39642   0.02011   0.59217   0.00000  Uiso   1.00
H444   H     0.41103   0.05612   0.53479   0.00000  Uiso   1.00
H445   H     0.35053   0.31996   0.49161   0.00000  Uiso   1.00
H446   H     0.33237   0.05124   0.49234   0.00000  Uiso   1.00
H447   H     0.29752   0.04706   0.59467   0.00000  Uiso   1.00
H448   H     0.31664   0.31750   0.58847   0.00000  Uiso   1.00
C449   C     0.74667   0.06695   0.48552   0.00000  Uiso   1.00
C450   C     0.75264   0.26641   0.51467   0.00000  Uiso   1.00
C451   C     0.51514   0.12799   0.39016   0.00000  Uiso   1.00
C452   C     0.98481   0.20364   0.61020   0.00000  Uiso   1.00
C453   C     0.73630   0.01241   0.48190   0.00000  Uiso   1.00
C454   C     0.76161   0.32118   0.51939   0.00000  Uiso   1.00
C455   C     0.66435   0.16649   0.50050   0.00000  Uiso   1.00
C456   C     0.83566   0.16705   0.49954   0.00000  Uiso   1.00
C457   C     0.91123   0.18555   0.55433   0.00000  Uiso   1.00
C458   C     0.58876   0.14703   0.44581   0.00000  Uiso   1.00
C459   C     0.88402   0.16731   0.49906   0.00000  Uiso   1.00
C460   C     0.61596   0.16562   0.50101   0.00000  Uiso   1.00
C461   C     0.90308   0.14866   0.44411   0.00000  Uiso   1.00
C462   C     0.59688   0.18370   0.55607   0.00000  Uiso   1.00
C463   C     0.94937   0.14770   0.44421   0.00000  Uiso   1.00
C464   C     0.55057   0.18410   0.55610   0.00000  Uiso   1.00
C465   C     0.97669   0.16611   0.49993   0.00000  Uiso   1.00
C466   C     0.52326   0.16557   0.50041   0.00000  Uiso   1.00
C467   C     0.95749   0.18520   0.55514   0.00000  Uiso   1.00
C468   C     0.54247   0.14668   0.44515   0.00000  Uiso   1.00
C469   C     0.96879   0.12855   0.38967   0.00000  Uiso   1.00
C470   C     0.53115   0.20306   0.61069   0.00000  Uiso   1.00
Cu471  Cu    0.75500   0.17246   0.56146   0.00000  Uiso   1.00
Cu472  Cu    0.74499   0.16087   0.43854   0.00000  Uiso   1.00
H473   H     0.89644   0.20019   0.59680   0.00000  Uiso   1.00
H474   H     0.60357   0.13259   0.40330   0.00000  Uiso   1.00
H475   H     0.88194   0.13428   0.40153   0.00000  Uiso   1.00
H476   H     0.61801   0.19819   0.59864   0.00000  Uiso   1.00
H477   H     0.94818   0.11424   0.34667   0.00000  Uiso   1.00
H478   H     0.55178   0.21742   0.65369   0.00000  Uiso   1.00
H479   H     0.52963   0.11321   0.34752   0.00000  Uiso   1.00
H480   H     0.97033   0.21845   0.65283   0.00000  Uiso   1.00
H481   H     0.71528   0.12582   0.64947   0.00000  Uiso   1.00
H482   H     0.78473   0.20750   0.35052   0.00000  Uiso   1.00
N483   N     0.73744   0.15214   0.34617   0.00000  Uiso   1.00
N484   N     0.76255   0.18119   0.65383   0.00000  Uiso   1.00
O485   O     0.75325   0.09538   0.53992   0.00000  Uiso   1.00
O486   O     0.74674   0.23796   0.46008   0.00000  Uiso   1.00
O487   O     0.74480   0.08559   0.43612   0.00000  Uiso   1.00
O488   O     0.75520   0.24774   0.56388   0.00000  Uiso   1.00
O489   O     0.68935   0.17155   0.55191   0.00000  Uiso   1.00
O490   O     0.81064   0.16179   0.44809   0.00000  Uiso   1.00
O491   O     0.68090   0.16176   0.44810   0.00000  Uiso   1.00
O492   O     0.81910   0.17157   0.55190   0.00000  Uiso   1.00
C493   C     0.69341   0.32137   0.44176   0.00000  Uiso   1.00
C494   C     0.65312   0.02146   0.45458   0.00000  Uiso   1.00
C495   C     0.60982   0.32674   0.42018   0.00000  Uiso   1.00
H496   H     0.61279   0.31737   0.36977   0.00000  Uiso   1.00
H497   H     0.60217   0.28992   0.43603   0.00000  Uiso   1.00
H498   H     0.58173   0.01916   0.42926   0.00000  Uiso   1.00
H499   H     0.64932   0.03036   0.50483   0.00000  Uiso   1.00
H500   H     0.65844   0.05887   0.43925   0.00000  Uiso   1.00
H501   H     0.69957   0.31695   0.39249   0.00000  Uiso   1.00
H502   H     0.68300   0.28220   0.44936   0.00000  Uiso   1.00
C503   C     0.80422   0.01195   0.56018   0.00000  Uiso   1.00
C504   C     0.84234   0.02365   0.52200   0.00000  Uiso   1.00
C505   C     0.88423   0.04767   0.56353   0.00000  Uiso   1.00
H506   H     0.87693   0.08493   0.59412   0.00000  Uiso   1.00
H507   H     0.89642   0.02011   0.59217   0.00000  Uiso   1.00
H508   H     0.91103   0.05612   0.53479   0.00000  Uiso   1.00
H509   H     0.85053   0.31996   0.49161   0.00000  Uiso   1.00
H510   H     0.83237   0.05124   0.49234   0.00000  Uiso   1.00
H511   H     0.79752   0.04706   0.59467   0.00000  Uiso   1.00
H512   H     0.81664   0.31750   0.58847   0.00000  Uiso   1.00
C513   C     0.24667   0.40028   0.48552   0.00000  Uiso   1.00
C514   C     0.25264   0.59974   0.51467   0.00000  Uiso   1.00
C515   C     0.01514   0.46132   0.39016   0.00000  Uiso   1.00
C516   C     0.48481   0.53697   0.61020   0.00000  Uiso   1.00
C517   C     0.23630   0.34574   0.48190   0.00000  Uiso   1.00
C518   C     0.26161   0.65452   0.51939   0.00000  Uiso   1.00
C519   C     0.16435   0.49983   0.50050   0.00000  Uiso   1.00
C520   C     0.33566   0.50038   0.49954   0.00000  Uiso   1.00
C521   C     0.41123   0.51888   0.55433   0.00000  Uiso   1.00
C522   C     0.08876   0.48036   0.44581   0.00000  Uiso   1.00
C523   C     0.38402   0.50064   0.49906   0.00000  Uiso   1.00
C524   C     0.11596   0.49896   0.50101   0.00000  Uiso   1.00
C525   C     0.40308   0.48199   0.44411   0.00000  Uiso   1.00
C526   C     0.09688   0.51703   0.55607   0.00000  Uiso   1.00
C527   C     0.44937   0.48103   0.44421   0.00000  Uiso   1.00
C528   C     0.05057   0.51744   0.55610   0.00000  Uiso   1.00
C529   C     0.47669   0.49944   0.49993   0.00000  Uiso   1.00
C530   C     0.02326   0.49890   0.50041   0.00000  Uiso   1.00
C531   C     0.45749   0.51853   0.55514   0.00000  Uiso   1.00
C532   C     0.04247   0.48001   0.44515   0.00000  Uiso   1.00
C533   C     0.46879   0.46188   0.38967   0.00000  Uiso   1.00
C534   C     0.03115   0.53640   0.61069   0.00000  Uiso   1.00
Cu535  Cu    0.25500   0.50579   0.56146   0.00000  Uiso   1.00
Cu536  Cu    0.24499   0.49421   0.43854   0.00000  Uiso   1.00
H537   H     0.39644   0.53352   0.59680   0.00000  Uiso   1.00
H538   H     0.10357   0.46592   0.40330   0.00000  Uiso   1.00
H539   H     0.38194   0.46762   0.40153   0.00000  Uiso   1.00
H540   H     0.11801   0.53152   0.59864   0.00000  Uiso   1.00
H541   H     0.44818   0.44757   0.34667   0.00000  Uiso   1.00
H542   H     0.05178   0.55075   0.65369   0.00000  Uiso   1.00
H543   H     0.02963   0.44654   0.34752   0.00000  Uiso   1.00
H544   H     0.47033   0.55178   0.65283   0.00000  Uiso   1.00
H545   H     0.21528   0.45916   0.64947   0.00000  Uiso   1.00
H546   H     0.28473   0.54083   0.35052   0.00000  Uiso   1.00
N547   N     0.23744   0.48547   0.34617   0.00000  Uiso   1.00
N548   N     0.26255   0.51453   0.65383   0.00000  Uiso   1.00
O549   O     0.25325   0.42871   0.53992   0.00000  Uiso   1.00
O550   O     0.24674   0.57129   0.46008   0.00000  Uiso   1.00
O551   O     0.24480   0.41892   0.43612   0.00000  Uiso   1.00
O552   O     0.25520   0.58108   0.56388   0.00000  Uiso   1.00
O553   O     0.18935   0.50488   0.55191   0.00000  Uiso   1.00
O554   O     0.31064   0.49512   0.44809   0.00000  Uiso   1.00
O555   O     0.18090   0.49510   0.44810   0.00000  Uiso   1.00
O556   O     0.31910   0.50490   0.55190   0.00000  Uiso   1.00
C557   C     0.19341   0.65470   0.44176   0.00000  Uiso   1.00
C558   C     0.15312   0.35480   0.45458   0.00000  Uiso   1.00
C559   C     0.10982   0.66007   0.42018   0.00000  Uiso   1.00
H560   H     0.11279   0.65071   0.36977   0.00000  Uiso   1.00
H561   H     0.10217   0.62325   0.43603   0.00000  Uiso   1.00
H562   H     0.08173   0.35249   0.42926   0.00000  Uiso   1.00
H563   H     0.14932   0.36369   0.50483   0.00000  Uiso   1.00
H564   H     0.15844   0.39220   0.43925   0.00000  Uiso   1.00
H565   H     0.19957   0.65029   0.39249   0.00000  Uiso   1.00
H566   H     0.18300   0.61553   0.44936   0.00000  Uiso   1.00
C567   C     0.30422   0.34529   0.56018   0.00000  Uiso   1.00
C568   C     0.34234   0.35698   0.52200   0.00000  Uiso   1.00
C569   C     0.38423   0.38100   0.56353   0.00000  Uiso   1.00
H570   H     0.37693   0.41826   0.59412   0.00000  Uiso   1.00
H571   H     0.39642   0.35344   0.59217   0.00000  Uiso   1.00
H572   H     0.41103   0.38945   0.53479   0.00000  Uiso   1.00
H573   H     0.35053   0.65330   0.49161   0.00000  Uiso   1.00
H574   H     0.33237   0.38457   0.49234   0.00000  Uiso   1.00
H575   H     0.29752   0.38040   0.59467   0.00000  Uiso   1.00
H576   H     0.31664   0.65083   0.58847   0.00000  Uiso   1.00
C577   C     0.74667   0.40028   0.48552   0.00000  Uiso   1.00
C578   C     0.75264   0.59974   0.51467   0.00000  Uiso   1.00
C579   C     0.51514   0.46132   0.39016   0.00000  Uiso   1.00
C580   C     0.98481   0.53697   0.61020   0.00000  Uiso   1.00
C581   C     0.73630   0.34574   0.48190   0.00000  Uiso   1.00
C582   C     0.76161   0.65452   0.51939   0.00000  Uiso   1.00
C583   C     0.66435   0.49983   0.50050   0.00000  Uiso   1.00
C584   C     0.83566   0.50038   0.49954   0.00000  Uiso   1.00
C585   C     0.91123   0.51888   0.55433   0.00000  Uiso   1.00
C586   C     0.58876   0.48036   0.44581   0.00000  Uiso   1.00
C587   C     0.88402   0.50064   0.49906   0.00000  Uiso   1.00
C588   C     0.61596   0.49896   0.50101   0.00000  Uiso   1.00
C589   C     0.90308   0.48199   0.44411   0.00000  Uiso   1.00
C590   C     0.59688   0.51703   0.55607   0.00000  Uiso   1.00
C591   C     0.94937   0.48103   0.44421   0.00000  Uiso   1.00
C592   C     0.55057   0.51744   0.55610   0.00000  Uiso   1.00
C593   C     0.97669   0.49944   0.49993   0.00000  Uiso   1.00
C594   C     0.52326   0.49890   0.50041   0.00000  Uiso   1.00
C595   C     0.95749   0.51853   0.55514   0.00000  Uiso   1.00
C596   C     0.54247   0.48001   0.44515   0.00000  Uiso   1.00
C597   C     0.96879   0.46188   0.38967   0.00000  Uiso   1.00
C598   C     0.53115   0.53640   0.61069   0.00000  Uiso   1.00
Cu599  Cu    0.75500   0.50579   0.56146   0.00000  Uiso   1.00
Cu600  Cu    0.74499   0.49421   0.43854   0.00000  Uiso   1.00
H601   H     0.89644   0.53352   0.59680   0.00000  Uiso   1.00
H602   H     0.60357   0.46592   0.40330   0.00000  Uiso   1.00
H603   H     0.88194   0.46762   0.40153   0.00000  Uiso   1.00
H604   H     0.61801   0.53152   0.59864   0.00000  Uiso   1.00
H605   H     0.94818   0.44757   0.34667   0.00000  Uiso   1.00
H606   H     0.55178   0.55075   0.65369   0.00000  Uiso   1.00
H607   H     0.52963   0.44654   0.34752   0.00000  Uiso   1.00
H608   H     0.97033   0.55178   0.65283   0.00000  Uiso   1.00
H609   H     0.71528   0.45916   0.64947   0.00000  Uiso   1.00
H610   H     0.78473   0.54083   0.35052   0.00000  Uiso   1.00
N611   N     0.73744   0.48547   0.34617   0.00000  Uiso   1.00
N612   N     0.76255   0.51453   0.65383   0.00000  Uiso   1.00
O613   O     0.75325   0.42871   0.53992   0.00000  Uiso   1.00
O614   O     0.74674   0.57129   0.46008   0.00000  Uiso   1.00
O615   O     0.74480   0.41892   0.43612   0.00000  Uiso   1.00
O616   O     0.75520   0.58108   0.56388   0.00000  Uiso   1.00
O617   O     0.68935   0.50488   0.55191   0.00000  Uiso   1.00
O618   O     0.81064   0.49512   0.44809   0.00000  Uiso   1.00
O619   O     0.68090   0.49510   0.44810   0.00000  Uiso   1.00
O620   O     0.81910   0.50490   0.55190   0.00000  Uiso   1.00
C621   C     0.69341   0.65470   0.44176   0.00000  Uiso   1.00
C622   C     0.65312   0.35480   0.45458   0.00000  Uiso   1.00
C623   C     0.60982   0.66007   0.42018   0.00000  Uiso   1.00
H624   H     0.61279   0.65071   0.36977   0.00000  Uiso   1.00
H625   H     0.60217   0.62325   0.43603   0.00000  Uiso   1.00
H626   H     0.58173   0.35249   0.42926   0.00000  Uiso   1.00
H627   H     0.64932   0.36369   0.50483   0.00000  Uiso   1.00
H628   H     0.65844   0.39220   0.43925   0.00000  Uiso   1.00
H629   H     0.69957   0.65029   0.39249   0.00000  Uiso   1.00
H630   H     0.68300   0.61553   0.44936   0.00000  Uiso   1.00
C631   C     0.80422   0.34529   0.56018   0.00000  Uiso   1.00
C632   C     0.84234   0.35698   0.52200   0.00000  Uiso   1.00
C633   C     0.88423   0.38100   0.56353   0.00000  Uiso   1.00
H634   H     0.87693   0.41826   0.59412   0.00000  Uiso   1.00
H635   H     0.89642   0.35344   0.59217   0.00000  Uiso   1.00
H636   H     0.91103   0.38945   0.53479   0.00000  Uiso   1.00
H637   H     0.85053   0.65330   0.49161   0.00000  Uiso   1.00
H638   H     0.83237   0.38457   0.49234   0.00000  Uiso   1.00
H639   H     0.79752   0.38040   0.59467   0.00000  Uiso   1.00
H640   H     0.81664   0.65083   0.58847   0.00000  Uiso   1.00
C641   C     0.24667   0.73361   0.48552   0.00000  Uiso   1.00
C642   C     0.25264   0.93307   0.51467   0.00000  Uiso   1.00
C643   C     0.01514   0.79465   0.39016   0.00000  Uiso   1.00
C644   C     0.48481   0.87031   0.61020   0.00000  Uiso   1.00
C645   C     0.23630   0.67907   0.48190   0.00000  Uiso   1.00
C646   C     0.26161   0.98785   0.51939   0.00000  Uiso   1.00
C647   C     0.16435   0.83316   0.50050   0.00000  Uiso   1.00
C648   C     0.33566   0.83371   0.49954   0.00000  Uiso   1.00
C649   C     0.41123   0.85221   0.55433   0.00000  Uiso   1.00
C650   C     0.08876   0.81369   0.44581   0.00000  Uiso   1.00
C651   C     0.38402   0.83398   0.49906   0.00000  Uiso   1.00
C652   C     0.11596   0.83229   0.50101   0.00000  Uiso   1.00
C653   C     0.40308   0.81533   0.44411   0.00000  Uiso   1.00
C654   C     0.09688   0.85036   0.55607   0.00000  Uiso   1.00
C655   C     0.44937   0.81437   0.44421   0.00000  Uiso   1.00
C656   C     0.05057   0.85077   0.55610   0.00000  Uiso   1.00
C657   C     0.47669   0.83277   0.49993   0.00000  Uiso   1.00
C658   C     0.02326   0.83224   0.50041   0.00000  Uiso   1.00
C659   C     0.45749   0.85186   0.55514   0.00000  Uiso   1.00
C660   C     0.04247   0.81334   0.44515   0.00000  Uiso   1.00
C661   C     0.46879   0.79521   0.38967   0.00000  Uiso   1.00
C662   C     0.03115   0.86973   0.61069   0.00000  Uiso   1.00
Cu663  Cu    0.25500   0.83913   0.56146   0.00000  Uiso   1.00
Cu664  Cu    0.24499   0.82754   0.43854   0.00000  Uiso   1.00
H665   H     0.39644   0.86686   0.59680   0.00000  Uiso   1.00
H666   H     0.10357   0.79926   0.40330   0.00000  Uiso   1.00
H667   H     0.38194   0.80095   0.40153   0.00000  Uiso   1.00
H668   H     0.11801   0.86486   0.59864   0.00000  Uiso   1.00
H669   H     0.44818   0.78091   0.34667   0.00000  Uiso   1.00
H670   H     0.05178   0.88408   0.65369   0.00000  Uiso   1.00
H671   H     0.02963   0.77987   0.34752   0.00000  Uiso   1.00
H672   H     0.47033   0.88512   0.65283   0.00000  Uiso   1.00
H673   H     0.21528   0.79249   0.64947   0.00000  Uiso   1.00
H674   H     0.28473   0.87416   0.35052   0.00000  Uiso   1.00
N675   N     0.23744   0.81881   0.34617   0.00000  Uiso   1.00
N676   N     0.26255   0.84786   0.65383   0.00000  Uiso   1.00
O677   O     0.25325   0.76204   0.53992   0.00000  Uiso   1.00
O678   O     0.24674   0.90462   0.46008   0.00000  Uiso   1.00
O679   O     0.24480   0.75226   0.43612   0.00000  Uiso   1.00
O680   O     0.25520   0.91441   0.56388   0.00000  Uiso   1.00
O681   O     0.18935   0.83821   0.55191   0.00000  Uiso   1.00
O682   O     0.31064   0.82845   0.44809   0.00000  Uiso   1.00
O683   O     0.18090   0.82843   0.44810   0.00000  Uiso   1.00
O684   O     0.31910   0.83824   0.55190   0.00000  Uiso   1.00
C685   C     0.19341   0.98803   0.44176   0.00000  Uiso   1.00
C686   C     0.15312   0.68813   0.45458   0.00000  Uiso   1.00
C687   C     0.10982   0.99340   0.42018   0.00000  Uiso   1.00
H688   H     0.11279   0.98404   0.36977   0.00000  Uiso   1.00
H689   H     0.10217   0.95658   0.43603   0.00000  Uiso   1.00
H690   H     0.08173   0.68583   0.42926   0.00000  Uiso   1.00
H691   H     0.14932   0.69702   0.50483   0.00000  Uiso   1.00
H692   H     0.15844   0.72553   0.43925   0.00000  Uiso   1.00
H693   H     0.19957   0.98362   0.39249   0.00000  Uiso   1.00
H694   H     0.18300   0.94887   0.44936   0.00000  Uiso   1.00
C695   C     0.30422   0.67862   0.56018   0.00000  Uiso   1.00
C696   C     0.34234   0.69031   0.52200   0.00000  Uiso   1.00
C697   C     0.38423   0.71433   0.56353   0.00000  Uiso   1.00
H698   H     0.37693   0.75160   0.59412   0.00000  Uiso   1.00
H699   H     0.39642   0.68678   0.59217   0.00000  Uiso   1.00
H700   H     0.41103   0.72279   0.53479   0.00000  Uiso   1.00
H701   H     0.35053   0.98663   0.49161   0.00000  Uiso   1.00
H702   H     0.33237   0.71791   0.49234   0.00000  Uiso   1.00
H703   H     0.29752   0.71373   0.59467   0.00000  Uiso   1.00
H704   H     0.31664   0.98416   0.58847   0.00000  Uiso   1.00
C705   C     0.74667   0.73361   0.48552   0.00000  Uiso   1.00
C706   C     0.75264   0.93307   0.51467   0.00000  Uiso   1.00
C707   C     0.51514   0.79465   0.39016   0.00000  Uiso   1.00
C708   C     0.98481   0.87031   0.61020   0.00000  Uiso   1.00
C709   C     0.73630   0.67907   0.48190   0.00000  Uiso   1.00
C710   C     0.76161   0.98785   0.51939   0.00000  Uiso   1.00
C711   C     0.66435   0.83316   0.50050   0.00000  Uiso   1.00
C712   C     0.83566   0.83371   0.49954   0.00000  Uiso   1.00
C713   C     0.91123   0.85221   0.55433   0.00000  Uiso   1.00
C714   C     0.58876   0.81369   0.44581   0.00000  Uiso   1.00
C715   C     0.88402   0.83398   0.49906   0.00000  Uiso   1.00
C716   C     0.61596   0.83229   0.50101   0.00000  Uiso   1.00
C717   C     0.90308   0.81533   0.44411   0.00000  Uiso   1.00
C718   C     0.59688   0.85036   0.55607   0.00000  Uiso   1.00
C719   C     0.94937   0.81437   0.44421   0.00000  Uiso   1.00
C720   C     0.55057   0.85077   0.55610   0.00000  Uiso   1.00
C721   C     0.97669   0.83277   0.49993   0.00000  Uiso   1.00
C722   C     0.52326   0.83224   0.50041   0.00000  Uiso   1.00
C723   C     0.95749   0.85186   0.55514   0.00000  Uiso   1.00
C724   C     0.54247   0.81334   0.44515   0.00000  Uiso   1.00
C725   C     0.96879   0.79521   0.38967   0.00000  Uiso   1.00
C726   C     0.53115   0.86973   0.61069   0.00000  Uiso   1.00
Cu727  Cu    0.75500   0.83913   0.56146   0.00000  Uiso   1.00
Cu728  Cu    0.74499   0.82754   0.43854   0.00000  Uiso   1.00
H729   H     0.89644   0.86686   0.59680   0.00000  Uiso   1.00
H730   H     0.60357   0.79926   0.40330   0.00000  Uiso   1.00
H731   H     0.88194   0.80095   0.40153   0.00000  Uiso   1.00
H732   H     0.61801   0.86486   0.59864   0.00000  Uiso   1.00
H733   H     0.94818   0.78091   0.34667   0.00000  Uiso   1.00
H734   H     0.55178   0.88408   0.65369   0.00000  Uiso   1.00
H735   H     0.52963   0.77987   0.34752   0.00000  Uiso   1.00
H736   H     0.97033   0.88512   0.65283   0.00000  Uiso   1.00
H737   H     0.71528   0.79249   0.64947   0.00000  Uiso   1.00
H738   H     0.78473   0.87416   0.35052   0.00000  Uiso   1.00
N739   N     0.73744   0.81881   0.34617   0.00000  Uiso   1.00
N740   N     0.76255   0.84786   0.65383   0.00000  Uiso   1.00
O741   O     0.75325   0.76204   0.53992   0.00000  Uiso   1.00
O742   O     0.74674   0.90462   0.46008   0.00000  Uiso   1.00
O743   O     0.74480   0.75226   0.43612   0.00000  Uiso   1.00
O744   O     0.75520   0.91441   0.56388   0.00000  Uiso   1.00
O745   O     0.68935   0.83821   0.55191   0.00000  Uiso   1.00
O746   O     0.81064   0.82845   0.44809   0.00000  Uiso   1.00
O747   O     0.68090   0.82843   0.44810   0.00000  Uiso   1.00
O748   O     0.81910   0.83824   0.55190   0.00000  Uiso   1.00
C749   C     0.69341   0.98803   0.44176   0.00000  Uiso   1.00
C750   C     0.65312   0.68813   0.45458   0.00000  Uiso   1.00
C751   C     0.60982   0.99340   0.42018   0.00000  Uiso   1.00
H752   H     0.61279   0.98404   0.36977   0.00000  Uiso   1.00
H753   H     0.60217   0.95658   0.43603   0.00000  Uiso   1.00
H754   H     0.58173   0.68583   0.42926   0.00000  Uiso   1.00
H755   H     0.64932   0.69702   0.50483   0.00000  Uiso   1.00
H756   H     0.65844   0.72553   0.43925   0.00000  Uiso   1.00
H757   H     0.69957   0.98362   0.39249   0.00000  Uiso   1.00
H758   H     0.68300   0.94887   0.44936   0.00000  Uiso   1.00
C759   C     0.80422   0.67862   0.56018   0.00000  Uiso   1.00
C760   C     0.84234   0.69031   0.52200   0.00000  Uiso   1.00
C761   C     0.88423   0.71433   0.56353   0.00000  Uiso   1.00
H762   H     0.87693   0.75160   0.59412   0.00000  Uiso   1.00
H763   H     0.89642   0.68678   0.59217   0.00000  Uiso   1.00
H764   H     0.91103   0.72279   0.53479   0.00000  Uiso   1.00
H765   H     0.85053   0.98663   0.49161   0.00000  Uiso   1.00
H766   H     0.83237   0.71791   0.49234   0.00000  Uiso   1.00
H767   H     0.79752   0.71373   0.59467   0.00000  Uiso   1.00
H768   H     0.81664   0.98416   0.58847   0.00000  Uiso   1.00
C769   C     0.24667   0.06695   0.81885   0.00000  Uiso   1.00
C770   C     0.25264   0.26641   0.84800   0.00000  Uiso   1.00
C771   C     0.01514   0.12799   0.72349   0.00000  Uiso   1.00
C772   C     0.48481   0.20364   0.94353   0.00000  Uiso   1.00
C773   C     0.23630   0.01241   0.81523   0.00000  Uiso   1.00
C774   C     0.26161   0.32118   0.85272   0.00000  Uiso   1.00
C775   C     0.16435   0.16649   0.83383   0.00000  Uiso   1.00
C776   C     0.33566   0.16705   0.83288   0.00000  Uiso   1.00
C777   C     0.41123   0.18555   0.88766   0.00000  Uiso   1.00
C778   C     0.08876   0.14703   0.77914   0.00000  Uiso   1.00
C779   C     0.38402   0.16731   0.83240   0.00000  Uiso   1.00
C780   C     0.11596   0.16562   0.83434   0.00000  Uiso   1.00
C781   C     0.40308   0.14866   0.77744   0.00000  Uiso   1.00
C782   C     0.09688   0.18370   0.88941   0.00000  Uiso   1.00
C783   C     0.44937   0.14770   0.77754   0.00000  Uiso   1.00
C784   C     0.05057   0.18410   0.88944   0.00000  Uiso   1.00
C785   C     0.47669   0.16611   0.83326   0.00000  Uiso   1.00
C786   C     0.02326   0.16557   0.83374   0.00000  Uiso   1.00
C787   C     0.45749   0.18520   0.88848   0.00000  Uiso   1.00
C788   C     0.04247   0.14668   0.77848   0.00000  Uiso   1.00
C789   C     0.46879   0.12855   0.72301   0.00000  Uiso   1.00
C790   C     0.03115   0.20306   0.94403   0.00000  Uiso   1.00
Cu791  Cu    0.25500   0.17246   0.89479   0.00000  Uiso   1.00
Cu792  Cu    0.24499   0.16087   0.77187   0.00000  Uiso   1.00
H793   H     0.39644   0.20019   0.93013   0.00000  Uiso   1.00
H794   H     0.10357   0.13259   0.73663   0.00000  Uiso   1.00
H795   H     0.38194   0.13428   0.73487   0.00000  Uiso   1.00
H796   H     0.11801   0.19819   0.93197   0.00000  Uiso   1.00
H797   H     0.44818   0.11424   0.68001   0.00000  Uiso   1.00
H798   H     0.05178   0.21742   0.98702   0.00000  Uiso   1.00
H799   H     0.02963   0.11321   0.68086   0.00000  Uiso   1.00
H800   H     0.47033   0.21845   0.98616   0.00000  Uiso   1.00
H801   H     0.21528   0.12582   0.98281   0.00000  Uiso   1.00
H802   H     0.28473   0.20750   0.68386   0.00000  Uiso   1.00
N803   N     0.23744   0.15214   0.67951   0.00000  Uiso   1.00
N804   N     0.26255   0.18119   0.98716   0.00000  Uiso   1.00
O805   O     0.25325   0.09538   0.87326   0.00000  Uiso   1.00
O806   O     0.24674   0.23796   0.79341   0.00000  Uiso   1.00
O807   O     0.24480   0.08559   0.76945   0.00000  Uiso   1.00
O808   O     0.25520   0.24774   0.89721   0.00000  Uiso   1.00
O809   O     0.18935   0.17155   0.88524   0.00000  Uiso   1.00
O810   O     0.31064   0.16179   0.78143   0.00000  Uiso   1.00
O811   O     0.18090   0.16176   0.78143   0.00000  Uiso   1.00
O812   O     0.31910   0.17157   0.88523   0.00000  Uiso   1.00
C813   C     0.19341   0.32137   0.77509   0.00000  Uiso   1.00
C814   C     0.15312   0.02146   0.78791   0.00000  Uiso   1.00
C815   C     0.10982   0.32674   0.75351   0.00000  Uiso   1.00
H816   H     0.11279   0.31737   0.70311   0.00000  Uiso   1.00
H817   H     0.10217   0.28992   0.76937   0.00000  Uiso   1.00
H818   H     0.08173   0.01916   0.76259   0.00000  Uiso   1.00
H819   H     0.14932   0.03036   0.83816   0.00000  Uiso   1.00
H820   H     0.15844   0.05887   0.77259   0.00000  Uiso   1.00
H821   H     0.19957   0.31695   0.72582   0.00000  Uiso   1.00
H822   H     0.18300   0.28220   0.78269   0.00000  Uiso   1.00
C823   C     0.30422   0.01195   0.89351   0.00000  Uiso   1.00
C824   C     0.34234   0.02365   0.85533   0.00000  Uiso   1.00
C825   C     0.38423   0.04767   0.89686   0.00000  Uiso   1.00
H826   H     0.37693   0.08493   0.92745   0.00000  Uiso   1.00
H827   H     0.39642   0.02011   0.92550   0.00000  Uiso   1.00
H828   H     0.41103   0.05612   0.86812   0.00000  Uiso   1.00
H829   H     0.35053   0.31996   0.82494   0.00000  Uiso   1.00
H830   H     0.33237   0.05124   0.82567   0.00000  Uiso   1.00
H831   H     0.29752   0.04706   0.92800   0.00000  Uiso   1.00
H832   H     0.31664   0.31750   0.92180   0.00000  Uiso   1.00
C833   C     0.74667   0.06695   0.81885   0.00000  Uiso   1.00
C834   C     0.75264   0.26641   0.84800   0.00000  Uiso   1.00
C835   C     0.51514   0.12799   0.72349   0.00000  Uiso   1.00
C836   C     0.98481   0.20364   0.94353   0.00000  Uiso   1.00
C837   C     0.73630   0.01241   0.81523   0.00000  Uiso   1.00
C838   C     0.76161   0.32118   0.85272   0.00000  Uiso   1.00
C839   C     0.66435   0.16649   0.83383   0.00000  Uiso   1.00
C840   C     0.83566   0.16705   0.83288   0.00000  Uiso   1.00
C841   C     0.91123   0.18555   0.88766   0.00000  Uiso   1.00
C842   C     0.58876   0.14703   0.77914   0.00000  Uiso   1.00
C843   C     0.88402   0.16731   0.83240   0.00000  Uiso   1.00
C844   C     0.61596   0.16562   0.83434   0.00000  Uiso   1.00
C845   C     0.90308   0.14866   0.77744   0.00000  Uiso   1.00
C846   C     0.59688   0.18370   0.88941   0.00000  Uiso   1.00
C847   C     0.94937   0.14770   0.77754   0.00000  Uiso   1.00
C848   C     0.55057   0.18410   0.88944   0.00000  Uiso   1.00
C849   C     0.97669   0.16611   0.83326   0.00000  Uiso   1.00
C850   C     0.52326   0.16557   0.83374   0.00000  Uiso   1.00
C851   C     0.95749   0.18520   0.88848   0.00000  Uiso   1.00
C852   C     0.54247   0.14668   0.77848   0.00000  Uiso   1.00
C853   C     0.96879   0.12855   0.72301   0.00000  Uiso   1.00
C854   C     0.53115   0.20306   0.94403   0.00000  Uiso   1.00
Cu855  Cu    0.75500   0.17246   0.89479   0.00000  Uiso   1.00
Cu856  Cu    0.74499   0.16087   0.77187   0.00000  Uiso   1.00
H857   H     0.89644   0.20019   0.93013   0.00000  Uiso   1.00
H858   H     0.60357   0.13259   0.73663   0.00000  Uiso   1.00
H859   H     0.88194   0.13428   0.73487   0.00000  Uiso   1.00
H860   H     0.61801   0.19819   0.93197   0.00000  Uiso   1.00
H861   H     0.94818   0.11424   0.68001   0.00000  Uiso   1.00
H862   H     0.55178   0.21742   0.98702   0.00000  Uiso   1.00
H863   H     0.52963   0.11321   0.68086   0.00000  Uiso   1.00
H864   H     0.97033   0.21845   0.98616   0.00000  Uiso   1.00
H865   H     0.71528   0.12582   0.98281   0.00000  Uiso   1.00
H866   H     0.78473   0.20750   0.68386   0.00000  Uiso   1.00
N867   N     0.73744   0.15214   0.67951   0.00000  Uiso   1.00
N868   N     0.76255   0.18119   0.98716   0.00000  Uiso   1.00
O869   O     0.75325   0.09538   0.87326   0.00000  Uiso   1.00
O870   O     0.74674   0.23796   0.79341   0.00000  Uiso   1.00
O871   O     0.74480   0.08559   0.76945   0.00000  Uiso   1.00
O872   O     0.75520   0.24774   0.89721   0.00000  Uiso   1.00
O873   O     0.68935   0.17155   0.88524   0.00000  Uiso   1.00
O874   O     0.81064   0.16179   0.78143   0.00000  Uiso   1.00
O875   O     0.68090   0.16176   0.78143   0.00000  Uiso   1.00
O876   O     0.81910   0.17157   0.88523   0.00000  Uiso   1.00
C877   C     0.69341   0.32137   0.77509   0.00000  Uiso   1.00
C878   C     0.65312   0.02146   0.78791   0.00000  Uiso   1.00
C879   C     0.60982   0.32674   0.75351   0.00000  Uiso   1.00
H880   H     0.61279   0.31737   0.70311   0.00000  Uiso   1.00
H881   H     0.60217   0.28992   0.76937   0.00000  Uiso   1.00
H882   H     0.58173   0.01916   0.76259   0.00000  Uiso   1.00
H883   H     0.64932   0.03036   0.83816   0.00000  Uiso   1.00
H884   H     0.65844   0.05887   0.77259   0.00000  Uiso   1.00
H885   H     0.69957   0.31695   0.72582   0.00000  Uiso   1.00
H886   H     0.68300   0.28220   0.78269   0.00000  Uiso   1.00
C887   C     0.80422   0.01195   0.89351   0.00000  Uiso   1.00
C888   C     0.84234   0.02365   0.85533   0.00000  Uiso   1.00
C889   C     0.88423   0.04767   0.89686   0.00000  Uiso   1.00
H890   H     0.87693   0.08493   0.92745   0.00000  Uiso   1.00
H891   H     0.89642   0.02011   0.92550   0.00000  Uiso   1.00
H892   H     0.91103   0.05612   0.86812   0.00000  Uiso   1.00
H893   H     0.85053   0.31996   0.82494   0.00000  Uiso   1.00
H894   H     0.83237   0.05124   0.82567   0.00000  Uiso   1.00
H895   H     0.79752   0.04706   0.92800   0.00000  Uiso   1.00
H896   H     0.81664   0.31750   0.92180   0.00000  Uiso   1.00
C897   C     0.24667   0.40028   0.81885   0.00000  Uiso   1.00
C898   C     0.25264   0.59974   0.84800   0.00000  Uiso   1.00
C899   C     0.01514   0.46132   0.72349   0.00000  Uiso   1.00
C900   C     0.48481   0.53697   0.94353   0.00000  Uiso   1.00
C901   C     0.23630   0.34574   0.81523   0.00000  Uiso   1.00
C902   C     0.26161   0.65452   0.85272   0.00000  Uiso   1.00
C903   C     0.16435   0.49983   0.83383   0.00000  Uiso   1.00
C904   C     0.33566   0.50038   0.83288   0.00000  Uiso   1.00
C905   C     0.41123   0.51888   0.88766   0.00000  Uiso   1.00
C906   C     0.08876   0.48036   0.77914   0.00000  Uiso   1.00
C907   C     0.38402   0.50064   0.83240   0.00000  Uiso   1.00
C908   C     0.11596   0.49896   0.83434   0.00000  Uiso   1.00
C909   C     0.40308   0.48199   0.77744   0.00000  Uiso   1.00
C910   C     0.09688   0.51703   0.88941   0.00000  Uiso   1.00
C911   C     0.44937   0.48103   0.77754   0.00000  Uiso   1.00
C912   C     0.05057   0.51744   0.88944   0.00000  Uiso   1.00
C913   C     0.47669   0.49944   0.83326   0.00000  Uiso   1.00
C914   C     0.02326   0.49890   0.83374   0.00000  Uiso   1.00
C915   C     0.45749   0.51853   0.88848   0.00000  Uiso   1.00
C916   C     0.04247   0.48001   0.77848   0.00000  Uiso   1.00
C917   C     0.46879   0.46188   0.72301   0.00000  Uiso   1.00
C918   C     0.03115   0.53640   0.94403   0.00000  Uiso   1.00
Cu919  Cu    0.25500   0.50579   0.89479   0.00000  Uiso   1.00
Cu920  Cu    0.24499   0.49421   0.77187   0.00000  Uiso   1.00
H921   H     0.39644   0.53352   0.93013   0.00000  Uiso   1.00
H922   H     0.10357   0.46592   0.73663   0.00000  Uiso   1.00
H923   H     0.38194   0.46762   0.73487   0.00000  Uiso   1.00
H924   H     0.11801   0.53152   0.93197   0.00000  Uiso   1.00
H925   H     0.44818   0.44757   0.68001   0.00000  Uiso   1.00
H926   H     0.05178   0.55075   0.98702   0.00000  Uiso   1.00
H927   H     0.02963   0.44654   0.68086   0.00000  Uiso   1.00
H928   H     0.47033   0.55178   0.98616   0.00000  Uiso   1.00
H929   H     0.21528   0.45916   0.98281   0.00000  Uiso   1.00
H930   H     0.28473   0.54083   0.68386   0.00000  Uiso   1.00
N931   N     0.23744   0.48547   0.67951   0.00000  Uiso   1.00
N932   N     0.26255   0.51453   0.98716   0.00000  Uiso   1.00
O933   O     0.25325   0.42871   0.87326   0.00000  Uiso   1.00
O934   O     0.24674   0.57129   0.79341   0.00000  Uiso   1.00
O935   O     0.24480   0.41892   0.76945   0.00000  Uiso   1.00
O936   O     0.25520   0.58108   0.89721   0.00000  Uiso   1.00
O937   O     0.18935   0.50488   0.88524   0.00000  Uiso   1.00
O938   O     0.31064   0.49512   0.78143   0.00000  Uiso   1.00
O939   O     0.18090   0.49510   0.78143   0.00000  Uiso   1.00
O940   O     0.31910   0.50490   0.88523   0.00000  Uiso   1.00
C941   C     0.19341   0.65470   0.77509   0.00000  Uiso   1.00
C942   C     0.15312   0.35480   0.78791   0.00000  Uiso   1.00
C943   C     0.10982   0.66007   0.75351   0.00000  Uiso   1.00
H944   H     0.11279   0.65071   0.70311   0.00000  Uiso   1.00
H945   H     0.10217   0.62325   0.76937   0.00000  Uiso   1.00
H946   H     0.08173   0.35249   0.76259   0.00000  Uiso   1.00
H947   H     0.14932   0.36369   0.83816   0.00000  Uiso   1.00
H948   H     0.15844   0.39220   0.77259   0.00000  Uiso   1.00
H949   H     0.19957   0.65029   0.72582   0.00000  Uiso   1.00
H950   H     0.18300   0.61553   0.78269   0.00000  Uiso   1.00
C951   C     0.30422   0.34529   0.89351   0.00000  Uiso   1.00
C952   C     0.34234   0.35698   0.85533   0.00000  Uiso   1.00
C953   C     0.38423   0.38100   0.89686   0.00000  Uiso   1.00
H954   H     0.37693   0.41826   0.92745   0.00000  Uiso   1.00
H955   H     0.39642   0.35344   0.92550   0.00000  Uiso   1.00
H956   H     0.41103   0.38945   0.86812   0.00000  Uiso   1.00
H957   H     0.35053   0.65330   0.82494   0.00000  Uiso   1.00
H958   H     0.33237   0.38457   0.82567   0.00000  Uiso   1.00
H959   H     0.29752   0.38040   0.92800   0.00000  Uiso   1.00
H960   H     0.31664   0.65083   0.92180   0.00000  Uiso   1.00
C961   C     0.74667   0.40028   0.81885   0.00000  Uiso   1.00
C962   C     0.75264   0.59974   0.84800   0.00000  Uiso   1.00
C963   C     0.51514   0.46132   0.72349   0.00000  Uiso   1.00
C964   C     0.98481   0.53697   0.94353   0.00000  Uiso   1.00
C965   C     0.73630   0.34574   0.81523   0.00000  Uiso   1.00
C966   C     0.76161   0.65452   0.85272   0.00000  Uiso   1.00
C967   C     0.66435   0.49983   0.83383   0.00000  Uiso   1.00
C968   C     0.83566   0.50038   0.83288   0.00000  Uiso   1.00
C969   C     0.91123   0.51888   0.88766   0.00000  Uiso   1.00
C970   C     0.58876   0.48036   0.77914   0.00000  Uiso   1.00
C971   C     0.88402   0.50064   0.83240   0.00000  Uiso   1.00
C972   C     0.61596   0.49896   0.83434   0.00000  Uiso   1.00
C973   C     0.90308   0.48199   0.77744   0.00000  Uiso   1.00
C974   C     0.59688   0.51703   0.88941   0.00000  Uiso   1.00
C975   C     0.94937   0.48103   0.77754   0.00000  Uiso   1.00
C976   C     0.55057   0.51744   0.88944   0.00000  Uiso   1.00
C977   C     0.97669   0.49944   0.83326   0.00000  Uiso   1.00
C978   C     0.52326   0.49890   0.83374   0.00000  Uiso   1.00
C979   C     0.95749   0.51853   0.88848   0.00000  Uiso   1.00
C980   C     0.54247   0.48001   0.77848   0.00000  Uiso   1.00
C981   C     0.96879   0.46188   0.72301   0.00000  Uiso   1.00
C982   C     0.53115   0.53640   0.94403   0.00000  Uiso   1.00
Cu983  Cu    0.75500   0.50579   0.89479   0.00000  Uiso   1.00
Cu984  Cu    0.74499   0.49421   0.77187   0.00000  Uiso   1.00
H985   H     0.89644   0.53352   0.93013   0.00000  Uiso   1.00
H986   H     0.60357   0.46592   0.73663   0.00000  Uiso   1.00
H987   H     0.88194   0.46762   0.73487   0.00000  Uiso   1.00
H988   H     0.61801   0.53152   0.93197   0.00000  Uiso   1.00
H989   H     0.94818   0.44757   0.68001   0.00000  Uiso   1.00
H990   H     0.55178   0.55075   0.98702   0.00000  Uiso   1.00
H991   H     0.52963   0.44654   0.68086   0.00000  Uiso   1.00
H992   H     0.97033   0.55178   0.98616   0.00000  Uiso   1.00
H993   H     0.71528   0.45916   0.98281   0.00000  Uiso   1.00
H994   H     0.78473   0.54083   0.68386   0.00000  Uiso   1.00
N995   N     0.73744   0.48547   0.67951   0.00000  Uiso   1.00
N996   N     0.76255   0.51453   0.98716   0.00000  Uiso   1.00
O997   O     0.75325   0.42871   0.87326   0.00000  Uiso   1.00
O998   O     0.74674   0.57129   0.79341   0.00000  Uiso   1.00
O999   O     0.74480   0.41892   0.76945   0.00000  Uiso   1.00
O1000  O     0.75520   0.58108   0.89721   0.00000  Uiso   1.00
O1001  O     0.68935   0.50488   0.88524   0.00000  Uiso   1.00
O1002  O     0.81064   0.49512   0.78143   0.00000  Uiso   1.00
O1003  O     0.68090   0.49510   0.78143   0.00000  Uiso   1.00
O1004  O     0.81910   0.50490   0.88523   0.00000  Uiso   1.00
C1005  C     0.69341   0.65470   0.77509   0.00000  Uiso   1.00
C1006  C     0.65312   0.35480   0.78791   0.00000  Uiso   1.00
C1007  C     0.60982   0.66007   0.75351   0.00000  Uiso   1.00
H1008  H     0.61279   0.65071   0.70311   0.00000  Uiso   1.00
H1009  H     0.60217   0.62325   0.76937   0.00000  Uiso   1.00
H1010  H     0.58173   0.35249   0.76259   0.00000  Uiso   1.00
H1011  H     0.64932   0.36369   0.83816   0.00000  Uiso   1.00
H1012  H     0.65844   0.39220   0.77259   0.00000  Uiso   1.00
H1013  H     0.69957   0.65029   0.72582   0.00000  Uiso   1.00
H1014  H     0.68300   0.61553   0.78269   0.00000  Uiso   1.00
C1015  C     0.80422   0.34529   0.89351   0.00000  Uiso   1.00
C1016  C     0.84234   0.35698   0.85533   0.00000  Uiso   1.00
C1017  C     0.88423   0.38100   0.89686   0.00000  Uiso   1.00
H1018  H     0.87693   0.41826   0.92745   0.00000  Uiso   1.00
H1019  H     0.89642   0.35344   0.92550   0.00000  Uiso   1.00
H1020  H     0.91103   0.38945   0.86812   0.00000  Uiso   1.00
H1021  H     0.85053   0.65330   0.82494   0.00000  Uiso   1.00
H1022  H     0.83237   0.38457   0.82567   0.00000  Uiso   1.00
H1023  H     0.79752   0.38040   0.92800   0.00000  Uiso   1.00
H1024  H     0.81664   0.65083   0.92180   0.00000  Uiso   1.00
C1025  C     0.24667   0.73361   0.81885   0.00000  Uiso   1.00
C1026  C     0.25264   0.93307   0.84800   0.00000  Uiso   1.00
C1027  C     0.01514   0.79465   0.72349   0.00000  Uiso   1.00
C1028  C     0.48481   0.87031   0.94353   0.00000  Uiso   1.00
C1029  C     0.23630   0.67907   0.81523   0.00000  Uiso   1.00
C1030  C     0.26161   0.98785   0.85272   0.00000  Uiso   1.00
C1031  C     0.16435   0.83316   0.83383   0.00000  Uiso   1.00
C1032  C     0.33566   0.83371   0.83288   0.00000  Uiso   1.00
C1033  C     0.41123   0.85221   0.88766   0.00000  Uiso   1.00
C1034  C     0.08876   0.81369   0.77914   0.00000  Uiso   1.00
C1035  C     0.38402   0.83398   0.83240   0.00000  Uiso   1.00
C1036  C     0.11596   0.83229   0.83434   0.00000  Uiso   1.00
C1037  C     0.40308   0.81533   0.77744   0.00000  Uiso   1.00
C1038  C     0.09688   0.85036   0.88941   0.00000  Uiso   1.00
C1039  C     0.44937   0.81437   0.77754   0.00000  Uiso   1.00
C1040  C     0.05057   0.85077   0.88944   0.00000  Uiso   1.00
C1041  C     0.47669   0.83277   0.83326   0.00000  Uiso   1.00
C1042  C     0.02326   0.83224   0.83374   0.00000  Uiso   1.00
C1043  C     0.45749   0.85186   0.88848   0.00000  Uiso   1.00
C1044  C     0.04247   0.81334   0.77848   0.00000  Uiso   1.00
C1045  C     0.46879   0.79521   0.72301   0.00000  Uiso   1.00
C1046  C     0.03115   0.86973   0.94403   0.00000  Uiso   1.00
Cu1047 Cu    0.25500   0.83913   0.89479   0.00000  Uiso   1.00
Cu1048 Cu    0.24499   0.82754   0.77187   0.00000  Uiso   1.00
H1049  H     0.39644   0.86686   0.93013   0.00000  Uiso   1.00
H1050  H     0.10357   0.79926   0.73663   0.00000  Uiso   1.00
H1051  H     0.38194   0.80095   0.73487   0.00000  Uiso   1.00
H1052  H     0.11801   0.86486   0.93197   0.00000  Uiso   1.00
H1053  H     0.44818   0.78091   0.68001   0.00000  Uiso   1.00
H1054  H     0.05178   0.88408   0.98702   0.00000  Uiso   1.00
H1055  H     0.02963   0.77987   0.68086   0.00000  Uiso   1.00
H1056  H     0.47033   0.88512   0.98616   0.00000  Uiso   1.00
H1057  H     0.21528   0.79249   0.98281   0.00000  Uiso   1.00
H1058  H     0.28473   0.87416   0.68386   0.00000  Uiso   1.00
N1059  N     0.23744   0.81881   0.67951   0.00000  Uiso   1.00
N1060  N     0.26255   0.84786   0.98716   0.00000  Uiso   1.00
O1061  O     0.25325   0.76204   0.87326   0.00000  Uiso   1.00
O1062  O     0.24674   0.90462   0.79341   0.00000  Uiso   1.00
O1063  O     0.24480   0.75226   0.76945   0.00000  Uiso   1.00
O1064  O     0.25520   0.91441   0.89721   0.00000  Uiso   1.00
O1065  O     0.18935   0.83821   0.88524   0.00000  Uiso   1.00
O1066  O     0.31064   0.82845   0.78143   0.00000  Uiso   1.00
O1067  O     0.18090   0.82843   0.78143   0.00000  Uiso   1.00
O1068  O     0.31910   0.83824   0.88523   0.00000  Uiso   1.00
C1069  C     0.19341   0.98803   0.77509   0.00000  Uiso   1.00
C1070  C     0.15312   0.68813   0.78791   0.00000  Uiso   1.00
C1071  C     0.10982   0.99340   0.75351   0.00000  Uiso   1.00
H1072  H     0.11279   0.98404   0.70311   0.00000  Uiso   1.00
H1073  H     0.10217   0.95658   0.76937   0.00000  Uiso   1.00
H1074  H     0.08173   0.68583   0.76259   0.00000  Uiso   1.00
H1075  H     0.14932   0.69702   0.83816   0.00000  Uiso   1.00
H1076  H     0.15844   0.72553   0.77259   0.00000  Uiso   1.00
H1077  H     0.19957   0.98362   0.72582   0.00000  Uiso   1.00
H1078  H     0.18300   0.94887   0.78269   0.00000  Uiso   1.00
C1079  C     0.30422   0.67862   0.89351   0.00000  Uiso   1.00
C1080  C     0.34234   0.69031   0.85533   0.00000  Uiso   1.00
C1081  C     0.38423   0.71433   0.89686   0.00000  Uiso   1.00
H1082  H     0.37693   0.75160   0.92745   0.00000  Uiso   1.00
H1083  H     0.39642   0.68678   0.92550   0.00000  Uiso   1.00
H1084  H     0.41103   0.72279   0.86812   0.00000  Uiso   1.00
H1085  H     0.35053   0.98663   0.82494   0.00000  Uiso   1.00
H1086  H     0.33237   0.71791   0.82567   0.00000  Uiso   1.00
H1087  H     0.29752   0.71373   0.92800   0.00000  Uiso   1.00
H1088  H     0.31664   0.98416   0.92180   0.00000  Uiso   1.00
C1089  C     0.74667   0.73361   0.81885   0.00000  Uiso   1.00
C1090  C     0.75264   0.93307   0.84800   0.00000  Uiso   1.00
C1091  C     0.51514   0.79465   0.72349   0.00000  Uiso   1.00
C1092  C     0.98481   0.87031   0.94353   0.00000  Uiso   1.00
C1093  C     0.73630   0.67907   0.81523   0.00000  Uiso   1.00
C1094  C     0.76161   0.98785   0.85272   0.00000  Uiso   1.00
C1095  C     0.66435   0.83316   0.83383   0.00000  Uiso   1.00
C1096  C     0.83566   0.83371   0.83288   0.00000  Uiso   1.00
C1097  C     0.91123   0.85221   0.88766   0.00000  Uiso   1.00
C1098  C     0.58876   0.81369   0.77914   0.00000  Uiso   1.00
C1099  C     0.88402   0.83398   0.83240   0.00000  Uiso   1.00
C1100  C     0.61596   0.83229   0.83434   0.00000  Uiso   1.00
C1101  C     0.90308   0.81533   0.77744   0.00000  Uiso   1.00
C1102  C     0.59688   0.85036   0.88941   0.00000  Uiso   1.00
C1103  C     0.94937   0.81437   0.77754   0.00000  Uiso   1.00
C1104  C     0.55057   0.85077   0.88944   0.00000  Uiso   1.00
C1105  C     0.97669   0.83277   0.83326   0.00000  Uiso   1.00
C1106  C     0.52326   0.83224   0.83374   0.00000  Uiso   1.00
C1107  C     0.95749   0.85186   0.88848   0.00000  Uiso   1.00
C1108  C     0.54247   0.81334   0.77848   0.00000  Uiso   1.00
C1109  C     0.96879   0.79521   0.72301   0.00000  Uiso   1.00
C1110  C     0.53115   0.86973   0.94403   0.00000  Uiso   1.00
Cu1111 Cu    0.75500   0.83913   0.89479   0.00000  Uiso   1.00
Cu1112 Cu    0.74499   0.82754   0.77187   0.00000  Uiso   1.00
H1113  H     0.89644   0.86686   0.93013   0.00000  Uiso   1.00
H1114  H     0.60357   0.79926   0.73663   0.00000  Uiso   1.00
H1115  H     0.88194   0.80095   0.73487   0.00000  Uiso   1.00
H1116  H     0.61801   0.86486   0.93197   0.00000  Uiso   1.00
H1117  H     0.94818   0.78091   0.68001   0.00000  Uiso   1.00
H1118  H     0.55178   0.88408   0.98702   0.00000  Uiso   1.00
H1119  H     0.52963   0.77987   0.68086   0.00000  Uiso   1.00
H1120  H     0.97033   0.88512   0.98616   0.00000  Uiso   1.00
H1121  H     0.71528   0.79249   0.98281   0.00000  Uiso   1.00
H1122  H     0.78473   0.87416   0.68386   0.00000  Uiso   1.00
N1123  N     0.73744   0.81881   0.67951   0.00000  Uiso   1.00
N1124  N     0.76255   0.84786   0.98716   0.00000  Uiso   1.00
O1125  O     0.75325   0.76204   0.87326   0.00000  Uiso   1.00
O1126  O     0.74674   0.90462   0.79341   0.00000  Uiso   1.00
O1127  O     0.74480   0.75226   0.76945   0.00000  Uiso   1.00
O1128  O     0.75520   0.91441   0.89721   0.00000  Uiso   1.00
O1129  O     0.68935   0.83821   0.88524   0.00000  Uiso   1.00
O1130  O     0.81064   0.82845   0.78143   0.00000  Uiso   1.00
O1131  O     0.68090   0.82843   0.78143   0.00000  Uiso   1.00
O1132  O     0.81910   0.83824   0.88523   0.00000  Uiso   1.00
C1133  C     0.69341   0.98803   0.77509   0.00000  Uiso   1.00
C1134  C     0.65312   0.68813   0.78791   0.00000  Uiso   1.00
C1135  C     0.60982   0.99340   0.75351   0.00000  Uiso   1.00
H1136  H     0.61279   0.98404   0.70311   0.00000  Uiso   1.00
H1137  H     0.60217   0.95658   0.76937   0.00000  Uiso   1.00
H1138  H     0.58173   0.68583   0.76259   0.00000  Uiso   1.00
H1139  H     0.64932   0.69702   0.83816   0.00000  Uiso   1.00
H1140  H     0.65844   0.72553   0.77259   0.00000  Uiso   1.00
H1141  H     0.69957   0.98362   0.72582   0.00000  Uiso   1.00
H1142  H     0.68300   0.94887   0.78269   0.00000  Uiso   1.00
C1143  C     0.80422   0.67862   0.89351   0.00000  Uiso   1.00
C1144  C     0.84234   0.69031   0.85533   0.00000  Uiso   1.00
C1145  C     0.88423   0.71433   0.89686   0.00000  Uiso   1.00
H1146  H     0.87693   0.75160   0.92745   0.00000  Uiso   1.00
H1147  H     0.89642   0.68678   0.92550   0.00000  Uiso   1.00
H1148  H     0.91103   0.72279   0.86812   0.00000  Uiso   1.00
H1149  H     0.85053   0.98663   0.82494   0.00000  Uiso   1.00
H1150  H     0.83237   0.71791   0.82567   0.00000  Uiso   1.00
H1151  H     0.79752   0.71373   0.92800   0.00000  Uiso   1.00
H1152  H     0.81664   0.98416   0.92180   0.00000  Uiso   1.00
loop_
_geom_bond_atom_site_label_1
_geom_bond_atom_site_label_2
_geom_bond_distance
_geom_bond_site_symmetry_2
_ccdc_geom_bond_type
C1     O37     1.280   .     A
C1     C5      1.429   .     S
C1     O39     1.289   .     A
C2     O40     1.286   .     A
C2     O38     1.282   .     A
C2     C6      1.425   .     S
C3     C20     1.402   .     A
C3     H31     1.084   .     S
C3     C85     1.393   1_455 S
C4     H32     1.084   .     S
C4     C19     1.402   .     A
C4     C86     1.393   .     S
C5     C262    1.360   1_545 S
C5     C301    1.539   1_545 S
C6     C133    1.360   .     S
C6     C183    1.536   .     S
C7     O41     1.296   .     A
C7     C12     1.455   .     S
C7     O43     1.291   .     A
C8     O44     1.291   .     A
C8     C11     1.455   .     S
C8     O42     1.297   .     A
C9     C11     1.403   .     A
C9     H25     1.085   .     S
C9     C19     1.390   .     A
C10    H26     1.085   .     S
C10    C12     1.403   .     A
C10    C20     1.390   .     A
C11    C13     1.401   .     A
C12    C14     1.401   .     A
C13    C15     1.393   .     A
C13    H27     1.085   .     S
C14    C16     1.393   .     A
C14    H28     1.085   .     S
C15    C21     1.401   .     A
C15    C17     1.413   .     A
C16    C18     1.413   .     A
C16    C22     1.401   .     A
C17    C19     1.410   .     A
C17    C82     1.400   .     S
C18    C20     1.410   .     A
C18    C81     1.400   1_455 S
C21    H29     1.084   .     S
C21    C67     1.393   .     S
C22    H30     1.084   .     S
C22    C68     1.393   1_455 S
Cu23   O41     1.966   .     S
Cu23   O37     1.970   .     S
Cu23   Cu24    2.682   .     S
Cu23   O40     1.957   .     S
Cu23   N36     2.015   .     S
Cu23   O44     1.957   .     S
Cu24   O38     1.970   .     S
Cu24   N35     2.015   .     S
Cu24   O39     1.957   .     S
Cu24   O42     1.966   .     S
Cu24   O43     1.957   .     S
H33    N419    1.029   .     S
H34    N804    1.029   1_554 S
N35    H801    1.029   1_554 S
N35    N804    1.292   1_554 S
N36    N419    1.292   .     S
N36    H418    1.029   .     S
C45    H53     1.112   .     S
C45    H54     1.106   .     S
C45    C133    1.539   .     S
C45    C174    1.539   .     S
C46    H52     1.108   .     S
C46    H51     1.112   .     S
C46    C301    1.539   1_545 S
C46    C303    1.528   1_545 S
C47    H49     1.111   .     S
C47    H48     1.111   .     S
C47    C174    1.528   .     S
C47    H178    1.111   .     S
H50    C303    1.111   1_545 S
C55    C56     1.538   .     S
C55    H63     1.108   .     S
C55    C262    1.536   1_545 S
C55    H320    1.113   1_545 S
C56    H62     1.108   .     S
C56    C57     1.527   .     S
C56    H317    1.112   1_545 S
C57    H58     1.111   .     S
C57    H59     1.111   .     S
C57    H60     1.111   .     S
H61    C184    1.112   .     S
H64    C183    1.113   .     S
C65    O101    1.280   .     A
C65    C69     1.429   .     S
C65    O103    1.289   .     A
C66    O104    1.286   .     A
C66    O102    1.282   .     A
C66    C70     1.425   .     S
C67    C84     1.402   .     A
C67    H95     1.084   .     S
C68    H96     1.084   .     S
C68    C83     1.402   .     A
C68    C22     1.393   1_655 S
C69    C326    1.360   1_545 S
C69    C365    1.539   1_545 S
C70    C197    1.360   .     S
C70    C247    1.536   .     S
C71    O105    1.296   .     A
C71    C76     1.455   .     S
C71    O107    1.291   .     A
C72    O108    1.291   .     A
C72    C75     1.455   .     S
C72    O106    1.297   .     A
C73    C75     1.403   .     A
C73    H89     1.085   .     S
C73    C83     1.390   .     A
C74    H90     1.085   .     S
C74    C76     1.403   .     A
C74    C84     1.390   .     A
C75    C77     1.401   .     A
C76    C78     1.401   .     A
C77    C79     1.393   .     A
C77    H91     1.085   .     S
C78    C80     1.393   .     A
C78    H92     1.085   .     S
C79    C85     1.401   .     A
C79    C81     1.413   .     A
C80    C82     1.413   .     A
C80    C86     1.401   .     A
C81    C83     1.410   .     A
C81    C18     1.400   1_655 S
C82    C84     1.410   .     A
C85    H93     1.084   .     S
C85    C3      1.393   1_655 S
C86    H94     1.084   .     S
Cu87   O105    1.966   .     S
Cu87   O101    1.970   .     S
Cu87   Cu88    2.682   .     S
Cu87   O104    1.957   .     S
Cu87   N100    2.015   .     S
Cu87   O108    1.957   .     S
Cu88   O102    1.970   .     S
Cu88   N99     2.015   .     S
Cu88   O103    1.957   .     S
Cu88   O106    1.966   .     S
Cu88   O107    1.957   .     S
H97    N483    1.029   .     S
H98    N868    1.029   1_554 S
N99    H865    1.029   1_554 S
N99    N868    1.292   1_554 S
N100   N483    1.292   .     S
N100   H482    1.029   .     S
C109   H117    1.112   .     S
C109   H118    1.106   .     S
C109   C197    1.539   .     S
C109   C238    1.539   .     S
C110   H116    1.108   .     S
C110   H115    1.112   .     S
C110   C365    1.539   1_545 S
C110   C367    1.528   1_545 S
C111   H113    1.111   .     S
C111   H112    1.111   .     S
C111   C238    1.528   .     S
C111   H242    1.111   .     S
H114   C367    1.111   1_545 S
C119   C120    1.538   .     S
C119   H127    1.108   .     S
C119   C326    1.536   1_545 S
C119   H384    1.113   1_545 S
C120   H126    1.108   .     S
C120   C121    1.527   .     S
C120   H381    1.112   1_545 S
C121   H122    1.111   .     S
C121   H123    1.111   .     S
C121   H124    1.111   .     S
H125   C248    1.112   .     S
H128   C247    1.113   .     S
C129   O165    1.280   .     A
C129   C133    1.429   .     S
C129   O167    1.289   .     A
C130   O168    1.286   .     A
C130   O166    1.282   .     A
C130   C134    1.425   .     S
C131   C148    1.402   .     A
C131   H159    1.084   .     S
C131   C213    1.393   1_455 S
C132   H160    1.084   .     S
C132   C147    1.402   .     A
C132   C214    1.393   .     S
C134   C261    1.360   .     S
C134   C311    1.536   .     S
C135   O169    1.296   .     A
C135   C140    1.455   .     S
C135   O171    1.291   .     A
C136   O172    1.291   .     A
C136   C139    1.455   .     S
C136   O170    1.297   .     A
C137   C139    1.403   .     A
C137   H153    1.085   .     S
C137   C147    1.390   .     A
C138   H154    1.085   .     S
C138   C140    1.403   .     A
C138   C148    1.390   .     A
C139   C141    1.401   .     A
C140   C142    1.401   .     A
C141   C143    1.393   .     A
C141   H155    1.085   .     S
C142   C144    1.393   .     A
C142   H156    1.085   .     S
C143   C149    1.401   .     A
C143   C145    1.413   .     A
C144   C146    1.413   .     A
C144   C150    1.401   .     A
C145   C147    1.410   .     A
C145   C210    1.400   .     S
C146   C148    1.410   .     A
C146   C209    1.400   1_455 S
C149   H157    1.084   .     S
C149   C195    1.393   .     S
C150   H158    1.084   .     S
C150   C196    1.393   1_455 S
Cu151  O169    1.966   .     S
Cu151  O165    1.970   .     S
Cu151  Cu152   2.682   .     S
Cu151  O168    1.957   .     S
Cu151  N164    2.015   .     S
Cu151  O172    1.957   .     S
Cu152  O166    1.970   .     S
Cu152  N163    2.015   .     S
Cu152  O167    1.957   .     S
Cu152  O170    1.966   .     S
Cu152  O171    1.957   .     S
H161   N547    1.029   .     S
H162   N932    1.029   1_554 S
N163   H929    1.029   1_554 S
N163   N932    1.292   1_554 S
N164   N547    1.292   .     S
N164   H546    1.029   .     S
C173   H181    1.112   .     S
C173   H182    1.106   .     S
C173   C261    1.539   .     S
C173   C302    1.539   .     S
C174   H180    1.108   .     S
C174   H179    1.112   .     S
C175   H177    1.111   .     S
C175   H176    1.111   .     S
C175   C302    1.528   .     S
C175   H306    1.111   .     S
C183   C184    1.538   .     S
C183   H191    1.108   .     S
C184   H190    1.108   .     S
C184   C185    1.527   .     S
C185   H186    1.111   .     S
C185   H187    1.111   .     S
C185   H188    1.111   .     S
H189   C312    1.112   .     S
H192   C311    1.113   .     S
C193   O229    1.280   .     A
C193   C197    1.429   .     S
C193   O231    1.289   .     A
C194   O232    1.286   .     A
C194   O230    1.282   .     A
C194   C198    1.425   .     S
C195   C212    1.402   .     A
C195   H223    1.084   .     S
C196   H224    1.084   .     S
C196   C211    1.402   .     A
C196   C150    1.393   1_655 S
C198   C325    1.360   .     S
C198   C375    1.536   .     S
C199   O233    1.296   .     A
C199   C204    1.455   .     S
C199   O235    1.291   .     A
C200   O236    1.291   .     A
C200   C203    1.455   .     S
C200   O234    1.297   .     A
C201   C203    1.403   .     A
C201   H217    1.085   .     S
C201   C211    1.390   .     A
C202   H218    1.085   .     S
C202   C204    1.403   .     A
C202   C212    1.390   .     A
C203   C205    1.401   .     A
C204   C206    1.401   .     A
C205   C207    1.393   .     A
C205   H219    1.085   .     S
C206   C208    1.393   .     A
C206   H220    1.085   .     S
C207   C213    1.401   .     A
C207   C209    1.413   .     A
C208   C210    1.413   .     A
C208   C214    1.401   .     A
C209   C211    1.410   .     A
C209   C146    1.400   1_655 S
C210   C212    1.410   .     A
C213   H221    1.084   .     S
C213   C131    1.393   1_655 S
C214   H222    1.084   .     S
Cu215  O233    1.966   .     S
Cu215  O229    1.970   .     S
Cu215  Cu216   2.682   .     S
Cu215  O232    1.957   .     S
Cu215  N228    2.015   .     S
Cu215  O236    1.957   .     S
Cu216  O230    1.970   .     S
Cu216  N227    2.015   .     S
Cu216  O231    1.957   .     S
Cu216  O234    1.966   .     S
Cu216  O235    1.957   .     S
H225   N611    1.029   .     S
H226   N996    1.029   1_554 S
N227   H993    1.029   1_554 S
N227   N996    1.292   1_554 S
N228   N611    1.292   .     S
N228   H610    1.029   .     S
C237   H245    1.112   .     S
C237   H246    1.106   .     S
C237   C325    1.539   .     S
C237   C366    1.539   .     S
C238   H244    1.108   .     S
C238   H243    1.112   .     S
C239   H241    1.111   .     S
C239   H240    1.111   .     S
C239   C366    1.528   .     S
C239   H370    1.111   .     S
C247   C248    1.538   .     S
C247   H255    1.108   .     S
C248   H254    1.108   .     S
C248   C249    1.527   .     S
C249   H250    1.111   .     S
C249   H251    1.111   .     S
C249   H252    1.111   .     S
H253   C376    1.112   .     S
H256   C375    1.113   .     S
C257   O293    1.280   .     A
C257   C261    1.429   .     S
C257   O295    1.289   .     A
C258   O296    1.286   .     A
C258   O294    1.282   .     A
C258   C262    1.425   .     S
C259   C276    1.402   .     A
C259   H287    1.084   .     S
C259   C341    1.393   1_455 S
C260   H288    1.084   .     S
C260   C275    1.402   .     A
C260   C342    1.393   .     S
C262   C5      1.360   1_565 S
C262   C55     1.536   1_565 S
C263   O297    1.296   .     A
C263   C268    1.455   .     S
C263   O299    1.291   .     A
C264   O300    1.291   .     A
C264   C267    1.455   .     S
C264   O298    1.297   .     A
C265   C267    1.403   .     A
C265   H281    1.085   .     S
C265   C275    1.390   .     A
C266   H282    1.085   .     S
C266   C268    1.403   .     A
C266   C276    1.390   .     A
C267   C269    1.401   .     A
C268   C270    1.401   .     A
C269   C271    1.393   .     A
C269   H283    1.085   .     S
C270   C272    1.393   .     A
C270   H284    1.085   .     S
C271   C277    1.401   .     A
C271   C273    1.413   .     A
C272   C274    1.413   .     A
C272   C278    1.401   .     A
C273   C275    1.410   .     A
C273   C338    1.400   .     S
C274   C276    1.410   .     A
C274   C337    1.400   1_455 S
C277   H285    1.084   .     S
C277   C323    1.393   .     S
C278   H286    1.084   .     S
C278   C324    1.393   1_455 S
Cu279  O297    1.966   .     S
Cu279  O293    1.970   .     S
Cu279  Cu280   2.682   .     S
Cu279  O296    1.957   .     S
Cu279  N292    2.015   .     S
Cu279  O300    1.957   .     S
Cu280  O294    1.970   .     S
Cu280  N291    2.015   .     S
Cu280  O295    1.957   .     S
Cu280  O298    1.966   .     S
Cu280  O299    1.957   .     S
H289   N675    1.029   .     S
H290   N1060   1.029   1_554 S
N291   H1057   1.029   1_554 S
N291   N1060   1.292   1_554 S
N292   N675    1.292   .     S
N292   H674    1.029   .     S
C301   H309    1.112   .     S
C301   H310    1.106   .     S
C301   C5      1.539   1_565 S
C301   C46     1.539   1_565 S
C302   H308    1.108   .     S
C302   H307    1.112   .     S
C303   H305    1.111   .     S
C303   H304    1.111   .     S
C303   C46     1.528   1_565 S
C303   H50     1.111   1_565 S
C311   C312    1.538   .     S
C311   H319    1.108   .     S
C312   H318    1.108   .     S
C312   C313    1.527   .     S
C313   H314    1.111   .     S
C313   H315    1.111   .     S
C313   H316    1.111   .     S
H317   C56     1.112   1_565 S
H320   C55     1.113   1_565 S
C321   O357    1.280   .     A
C321   C325    1.429   .     S
C321   O359    1.289   .     A
C322   O360    1.286   .     A
C322   O358    1.282   .     A
C322   C326    1.425   .     S
C323   C340    1.402   .     A
C323   H351    1.084   .     S
C324   H352    1.084   .     S
C324   C339    1.402   .     A
C324   C278    1.393   1_655 S
C326   C69     1.360   1_565 S
C326   C119    1.536   1_565 S
C327   O361    1.296   .     A
C327   C332    1.455   .     S
C327   O363    1.291   .     A
C328   O364    1.291   .     A
C328   C331    1.455   .     S
C328   O362    1.297   .     A
C329   C331    1.403   .     A
C329   H345    1.085   .     S
C329   C339    1.390   .     A
C330   H346    1.085   .     S
C330   C332    1.403   .     A
C330   C340    1.390   .     A
C331   C333    1.401   .     A
C332   C334    1.401   .     A
C333   C335    1.393   .     A
C333   H347    1.085   .     S
C334   C336    1.393   .     A
C334   H348    1.085   .     S
C335   C341    1.401   .     A
C335   C337    1.413   .     A
C336   C338    1.413   .     A
C336   C342    1.401   .     A
C337   C339    1.410   .     A
C337   C274    1.400   1_655 S
C338   C340    1.410   .     A
C341   H349    1.084   .     S
C341   C259    1.393   1_655 S
C342   H350    1.084   .     S
Cu343  O361    1.966   .     S
Cu343  O357    1.970   .     S
Cu343  Cu344   2.682   .     S
Cu343  O360    1.957   .     S
Cu343  N356    2.015   .     S
Cu343  O364    1.957   .     S
Cu344  O358    1.970   .     S
Cu344  N355    2.015   .     S
Cu344  O359    1.957   .     S
Cu344  O362    1.966   .     S
Cu344  O363    1.957   .     S
H353   N739    1.029   .     S
H354   N1124   1.029   1_554 S
N355   H1121   1.029   1_554 S
N355   N1124   1.292   1_554 S
N356   N739    1.292   .     S
N356   H738    1.029   .     S
C365   H373    1.112   .     S
C365   H374    1.106   .     S
C365   C69     1.539   1_565 S
C365   C110    1.539   1_565 S
C366   H372    1.108   .     S
C366   H371    1.112   .     S
C367   H369    1.111   .     S
C367   H368    1.111   .     S
C367   C110    1.528   1_565 S
C367   H114    1.111   1_565 S
C375   C376    1.538   .     S
C375   H383    1.108   .     S
C376   H382    1.108   .     S
C376   C377    1.527   .     S
C377   H378    1.111   .     S
C377   H379    1.111   .     S
C377   H380    1.111   .     S
H381   C120    1.112   1_565 S
H384   C119    1.113   1_565 S
C385   O421    1.280   .     A
C385   C389    1.429   .     S
C385   O423    1.289   .     A
C386   O424    1.286   .     A
C386   O422    1.282   .     A
C386   C390    1.425   .     S
C387   C404    1.402   .     A
C387   H415    1.084   .     S
C387   C469    1.393   1_455 S
C388   H416    1.084   .     S
C388   C403    1.402   .     A
C388   C470    1.393   .     S
C389   C646    1.360   1_545 S
C389   C685    1.539   1_545 S
C390   C517    1.360   .     S
C390   C567    1.536   .     S
C391   O425    1.296   .     A
C391   C396    1.455   .     S
C391   O427    1.291   .     A
C392   O428    1.291   .     A
C392   C395    1.455   .     S
C392   O426    1.297   .     A
C393   C395    1.403   .     A
C393   H409    1.085   .     S
C393   C403    1.390   .     A
C394   H410    1.085   .     S
C394   C396    1.403   .     A
C394   C404    1.390   .     A
C395   C397    1.401   .     A
C396   C398    1.401   .     A
C397   C399    1.393   .     A
C397   H411    1.085   .     S
C398   C400    1.393   .     A
C398   H412    1.085   .     S
C399   C405    1.401   .     A
C399   C401    1.413   .     A
C400   C402    1.413   .     A
C400   C406    1.401   .     A
C401   C403    1.410   .     A
C401   C466    1.400   .     S
C402   C404    1.410   .     A
C402   C465    1.400   1_455 S
C405   H413    1.084   .     S
C405   C451    1.393   .     S
C406   H414    1.084   .     S
C406   C452    1.393   1_455 S
Cu407  O425    1.966   .     S
Cu407  O421    1.970   .     S
Cu407  Cu408   2.682   .     S
Cu407  O424    1.957   .     S
Cu407  N420    2.015   .     S
Cu407  O428    1.957   .     S
Cu408  O422    1.970   .     S
Cu408  N419    2.015   .     S
Cu408  O423    1.957   .     S
Cu408  O426    1.966   .     S
Cu408  O427    1.957   .     S
H417   N803    1.029   .     S
N420   N803    1.292   .     S
N420   H802    1.029   .     S
C429   H437    1.112   .     S
C429   H438    1.106   .     S
C429   C517    1.539   .     S
C429   C558    1.539   .     S
C430   H436    1.108   .     S
C430   H435    1.112   .     S
C430   C685    1.539   1_545 S
C430   C687    1.528   1_545 S
C431   H433    1.111   .     S
C431   H432    1.111   .     S
C431   C558    1.528   .     S
C431   H562    1.111   .     S
H434   C687    1.111   1_545 S
C439   C440    1.538   .     S
C439   H447    1.108   .     S
C439   C646    1.536   1_545 S
C439   H704    1.113   1_545 S
C440   H446    1.108   .     S
C440   C441    1.527   .     S
C440   H701    1.112   1_545 S
C441   H442    1.111   .     S
C441   H443    1.111   .     S
C441   H444    1.111   .     S
H445   C568    1.112   .     S
H448   C567    1.113   .     S
C449   O485    1.280   .     A
C449   C453    1.429   .     S
C449   O487    1.289   .     A
C450   O488    1.286   .     A
C450   O486    1.282   .     A
C450   C454    1.425   .     S
C451   C468    1.402   .     A
C451   H479    1.084   .     S
C452   H480    1.084   .     S
C452   C467    1.402   .     A
C452   C406    1.393   1_655 S
C453   C710    1.360   1_545 S
C453   C749    1.539   1_545 S
C454   C581    1.360   .     S
C454   C631    1.536   .     S
C455   O489    1.296   .     A
C455   C460    1.455   .     S
C455   O491    1.291   .     A
C456   O492    1.291   .     A
C456   C459    1.455   .     S
C456   O490    1.297   .     A
C457   C459    1.403   .     A
C457   H473    1.085   .     S
C457   C467    1.390   .     A
C458   H474    1.085   .     S
C458   C460    1.403   .     A
C458   C468    1.390   .     A
C459   C461    1.401   .     A
C460   C462    1.401   .     A
C461   C463    1.393   .     A
C461   H475    1.085   .     S
C462   C464    1.393   .     A
C462   H476    1.085   .     S
C463   C469    1.401   .     A
C463   C465    1.413   .     A
C464   C466    1.413   .     A
C464   C470    1.401   .     A
C465   C467    1.410   .     A
C465   C402    1.400   1_655 S
C466   C468    1.410   .     A
C469   H477    1.084   .     S
C469   C387    1.393   1_655 S
C470   H478    1.084   .     S
Cu471  O489    1.966   .     S
Cu471  O485    1.970   .     S
Cu471  Cu472   2.682   .     S
Cu471  O488    1.957   .     S
Cu471  N484    2.015   .     S
Cu471  O492    1.957   .     S
Cu472  O486    1.970   .     S
Cu472  N483    2.015   .     S
Cu472  O487    1.957   .     S
Cu472  O490    1.966   .     S
Cu472  O491    1.957   .     S
H481   N867    1.029   .     S
N484   N867    1.292   .     S
N484   H866    1.029   .     S
C493   H501    1.112   .     S
C493   H502    1.106   .     S
C493   C581    1.539   .     S
C493   C622    1.539   .     S
C494   H500    1.108   .     S
C494   H499    1.112   .     S
C494   C749    1.539   1_545 S
C494   C751    1.528   1_545 S
C495   H497    1.111   .     S
C495   H496    1.111   .     S
C495   C622    1.528   .     S
C495   H626    1.111   .     S
H498   C751    1.111   1_545 S
C503   C504    1.538   .     S
C503   H511    1.108   .     S
C503   C710    1.536   1_545 S
C503   H768    1.113   1_545 S
C504   H510    1.108   .     S
C504   C505    1.527   .     S
C504   H765    1.112   1_545 S
C505   H506    1.111   .     S
C505   H507    1.111   .     S
C505   H508    1.111   .     S
H509   C632    1.112   .     S
H512   C631    1.113   .     S
C513   O549    1.280   .     A
C513   C517    1.429   .     S
C513   O551    1.289   .     A
C514   O552    1.286   .     A
C514   O550    1.282   .     A
C514   C518    1.425   .     S
C515   C532    1.402   .     A
C515   H543    1.084   .     S
C515   C597    1.393   1_455 S
C516   H544    1.084   .     S
C516   C531    1.402   .     A
C516   C598    1.393   .     S
C518   C645    1.360   .     S
C518   C695    1.536   .     S
C519   O553    1.296   .     A
C519   C524    1.455   .     S
C519   O555    1.291   .     A
C520   O556    1.291   .     A
C520   C523    1.455   .     S
C520   O554    1.297   .     A
C521   C523    1.403   .     A
C521   H537    1.085   .     S
C521   C531    1.390   .     A
C522   H538    1.085   .     S
C522   C524    1.403   .     A
C522   C532    1.390   .     A
C523   C525    1.401   .     A
C524   C526    1.401   .     A
C525   C527    1.393   .     A
C525   H539    1.085   .     S
C526   C528    1.393   .     A
C526   H540    1.085   .     S
C527   C533    1.401   .     A
C527   C529    1.413   .     A
C528   C530    1.413   .     A
C528   C534    1.401   .     A
C529   C531    1.410   .     A
C529   C594    1.400   .     S
C530   C532    1.410   .     A
C530   C593    1.400   1_455 S
C533   H541    1.084   .     S
C533   C579    1.393   .     S
C534   H542    1.084   .     S
C534   C580    1.393   1_455 S
Cu535  O553    1.966   .     S
Cu535  O549    1.970   .     S
Cu535  Cu536   2.682   .     S
Cu535  O552    1.957   .     S
Cu535  N548    2.015   .     S
Cu535  O556    1.957   .     S
Cu536  O550    1.970   .     S
Cu536  N547    2.015   .     S
Cu536  O551    1.957   .     S
Cu536  O554    1.966   .     S
Cu536  O555    1.957   .     S
H545   N931    1.029   .     S
N548   N931    1.292   .     S
N548   H930    1.029   .     S
C557   H565    1.112   .     S
C557   H566    1.106   .     S
C557   C645    1.539   .     S
C557   C686    1.539   .     S
C558   H564    1.108   .     S
C558   H563    1.112   .     S
C559   H561    1.111   .     S
C559   H560    1.111   .     S
C559   C686    1.528   .     S
C559   H690    1.111   .     S
C567   C568    1.538   .     S
C567   H575    1.108   .     S
C568   H574    1.108   .     S
C568   C569    1.527   .     S
C569   H570    1.111   .     S
C569   H571    1.111   .     S
C569   H572    1.111   .     S
H573   C696    1.112   .     S
H576   C695    1.113   .     S
C577   O613    1.280   .     A
C577   C581    1.429   .     S
C577   O615    1.289   .     A
C578   O616    1.286   .     A
C578   O614    1.282   .     A
C578   C582    1.425   .     S
C579   C596    1.402   .     A
C579   H607    1.084   .     S
C580   H608    1.084   .     S
C580   C595    1.402   .     A
C580   C534    1.393   1_655 S
C582   C709    1.360   .     S
C582   C759    1.536   .     S
C583   O617    1.296   .     A
C583   C588    1.455   .     S
C583   O619    1.291   .     A
C584   O620    1.291   .     A
C584   C587    1.455   .     S
C584   O618    1.297   .     A
C585   C587    1.403   .     A
C585   H601    1.085   .     S
C585   C595    1.390   .     A
C586   H602    1.085   .     S
C586   C588    1.403   .     A
C586   C596    1.390   .     A
C587   C589    1.401   .     A
C588   C590    1.401   .     A
C589   C591    1.393   .     A
C589   H603    1.085   .     S
C590   C592    1.393   .     A
C590   H604    1.085   .     S
C591   C597    1.401   .     A
C591   C593    1.413   .     A
C592   C594    1.413   .     A
C592   C598    1.401   .     A
C593   C595    1.410   .     A
C593   C530    1.400   1_655 S
C594   C596    1.410   .     A
C597   H605    1.084   .     S
C597   C515    1.393   1_655 S
C598   H606    1.084   .     S
Cu599  O617    1.966   .     S
Cu599  O613    1.970   .     S
Cu599  Cu600   2.682   .     S
Cu599  O616    1.957   .     S
Cu599  N612    2.015   .     S
Cu599  O620    1.957   .     S
Cu600  O614    1.970   .     S
Cu600  N611    2.015   .     S
Cu600  O615    1.957   .     S
Cu600  O618    1.966   .     S
Cu600  O619    1.957   .     S
H609   N995    1.029   .     S
N612   N995    1.292   .     S
N612   H994    1.029   .     S
C621   H629    1.112   .     S
C621   H630    1.106   .     S
C621   C709    1.539   .     S
C621   C750    1.539   .     S
C622   H628    1.108   .     S
C622   H627    1.112   .     S
C623   H625    1.111   .     S
C623   H624    1.111   .     S
C623   C750    1.528   .     S
C623   H754    1.111   .     S
C631   C632    1.538   .     S
C631   H639    1.108   .     S
C632   H638    1.108   .     S
C632   C633    1.527   .     S
C633   H634    1.111   .     S
C633   H635    1.111   .     S
C633   H636    1.111   .     S
H637   C760    1.112   .     S
H640   C759    1.113   .     S
C641   O677    1.280   .     A
C641   C645    1.429   .     S
C641   O679    1.289   .     A
C642   O680    1.286   .     A
C642   O678    1.282   .     A
C642   C646    1.425   .     S
C643   C660    1.402   .     A
C643   H671    1.084   .     S
C643   C725    1.393   1_455 S
C644   H672    1.084   .     S
C644   C659    1.402   .     A
C644   C726    1.393   .     S
C646   C389    1.360   1_565 S
C646   C439    1.536   1_565 S
C647   O681    1.296   .     A
C647   C652    1.455   .     S
C647   O683    1.291   .     A
C648   O684    1.291   .     A
C648   C651    1.455   .     S
C648   O682    1.297   .     A
C649   C651    1.403   .     A
C649   H665    1.085   .     S
C649   C659    1.390   .     A
C650   H666    1.085   .     S
C650   C652    1.403   .     A
C650   C660    1.390   .     A
C651   C653    1.401   .     A
C652   C654    1.401   .     A
C653   C655    1.393   .     A
C653   H667    1.085   .     S
C654   C656    1.393   .     A
C654   H668    1.085   .     S
C655   C661    1.401   .     A
C655   C657    1.413   .     A
C656   C658    1.413   .     A
C656   C662    1.401   .     A
C657   C659    1.410   .     A
C657   C722    1.400   .     S
C658   C660    1.410   .     A
C658   C721    1.400   1_455 S
C661   H669    1.084   .     S
C661   C707    1.393   .     S
C662   H670    1.084   .     S
C662   C708    1.393   1_455 S
Cu663  O681    1.966   .     S
Cu663  O677    1.970   .     S
Cu663  Cu664   2.682   .     S
Cu663  O680    1.957   .     S
Cu663  N676    2.015   .     S
Cu663  O684    1.957   .     S
Cu664  O678    1.970   .     S
Cu664  N675    2.015   .     S
Cu664  O679    1.957   .     S
Cu664  O682    1.966   .     S
Cu664  O683    1.957   .     S
H673   N1059   1.029   .     S
N676   N1059   1.292   .     S
N676   H1058   1.029   .     S
C685   H693    1.112   .     S
C685   H694    1.106   .     S
C685   C389    1.539   1_565 S
C685   C430    1.539   1_565 S
C686   H692    1.108   .     S
C686   H691    1.112   .     S
C687   H689    1.111   .     S
C687   H688    1.111   .     S
C687   C430    1.528   1_565 S
C687   H434    1.111   1_565 S
C695   C696    1.538   .     S
C695   H703    1.108   .     S
C696   H702    1.108   .     S
C696   C697    1.527   .     S
C697   H698    1.111   .     S
C697   H699    1.111   .     S
C697   H700    1.111   .     S
H701   C440    1.112   1_565 S
H704   C439    1.113   1_565 S
C705   O741    1.280   .     A
C705   C709    1.429   .     S
C705   O743    1.289   .     A
C706   O744    1.286   .     A
C706   O742    1.282   .     A
C706   C710    1.425   .     S
C707   C724    1.402   .     A
C707   H735    1.084   .     S
C708   H736    1.084   .     S
C708   C723    1.402   .     A
C708   C662    1.393   1_655 S
C710   C453    1.360   1_565 S
C710   C503    1.536   1_565 S
C711   O745    1.296   .     A
C711   C716    1.455   .     S
C711   O747    1.291   .     A
C712   O748    1.291   .     A
C712   C715    1.455   .     S
C712   O746    1.297   .     A
C713   C715    1.403   .     A
C713   H729    1.085   .     S
C713   C723    1.390   .     A
C714   H730    1.085   .     S
C714   C716    1.403   .     A
C714   C724    1.390   .     A
C715   C717    1.401   .     A
C716   C718    1.401   .     A
C717   C719    1.393   .     A
C717   H731    1.085   .     S
C718   C720    1.393   .     A
C718   H732    1.085   .     S
C719   C725    1.401   .     A
C719   C721    1.413   .     A
C720   C722    1.413   .     A
C720   C726    1.401   .     A
C721   C723    1.410   .     A
C721   C658    1.400   1_655 S
C722   C724    1.410   .     A
C725   H733    1.084   .     S
C725   C643    1.393   1_655 S
C726   H734    1.084   .     S
Cu727  O745    1.966   .     S
Cu727  O741    1.970   .     S
Cu727  Cu728   2.682   .     S
Cu727  O744    1.957   .     S
Cu727  N740    2.015   .     S
Cu727  O748    1.957   .     S
Cu728  O742    1.970   .     S
Cu728  N739    2.015   .     S
Cu728  O743    1.957   .     S
Cu728  O746    1.966   .     S
Cu728  O747    1.957   .     S
H737   N1123   1.029   .     S
N740   N1123   1.292   .     S
N740   H1122   1.029   .     S
C749   H757    1.112   .     S
C749   H758    1.106   .     S
C749   C453    1.539   1_565 S
C749   C494    1.539   1_565 S
C750   H756    1.108   .     S
C750   H755    1.112   .     S
C751   H753    1.111   .     S
C751   H752    1.111   .     S
C751   C494    1.528   1_565 S
C751   H498    1.111   1_565 S
C759   C760    1.538   .     S
C759   H767    1.108   .     S
C760   H766    1.108   .     S
C760   C761    1.527   .     S
C761   H762    1.111   .     S
C761   H763    1.111   .     S
C761   H764    1.111   .     S
H765   C504    1.112   1_565 S
H768   C503    1.113   1_565 S
C769   O805    1.280   .     A
C769   C773    1.429   .     S
C769   O807    1.289   .     A
C770   O808    1.286   .     A
C770   O806    1.282   .     A
C770   C774    1.425   .     S
C771   C788    1.402   .     A
C771   H799    1.084   .     S
C771   C853    1.393   1_455 S
C772   H800    1.084   .     S
C772   C787    1.402   .     A
C772   C854    1.393   .     S
C773   C1030   1.360   1_545 S
C773   C1069   1.539   1_545 S
C774   C901    1.360   .     S
C774   C951    1.536   .     S
C775   O809    1.296   .     A
C775   C780    1.455   .     S
C775   O811    1.291   .     A
C776   O812    1.291   .     A
C776   C779    1.455   .     S
C776   O810    1.297   .     A
C777   C779    1.403   .     A
C777   H793    1.085   .     S
C777   C787    1.390   .     A
C778   H794    1.085   .     S
C778   C780    1.403   .     A
C778   C788    1.390   .     A
C779   C781    1.401   .     A
C780   C782    1.401   .     A
C781   C783    1.393   .     A
C781   H795    1.085   .     S
C782   C784    1.393   .     A
C782   H796    1.085   .     S
C783   C789    1.401   .     A
C783   C785    1.413   .     A
C784   C786    1.413   .     A
C784   C790    1.401   .     A
C785   C787    1.410   .     A
C785   C850    1.400   .     S
C786   C788    1.410   .     A
C786   C849    1.400   1_455 S
C789   H797    1.084   .     S
C789   C835    1.393   .     S
C790   H798    1.084   .     S
C790   C836    1.393   1_455 S
Cu791  O809    1.966   .     S
Cu791  O805    1.970   .     S
Cu791  Cu792   2.682   .     S
Cu791  O808    1.957   .     S
Cu791  N804    2.015   .     S
Cu791  O812    1.957   .     S
Cu792  O806    1.970   .     S
Cu792  N803    2.015   .     S
Cu792  O807    1.957   .     S
Cu792  O810    1.966   .     S
Cu792  O811    1.957   .     S
H801   N35     1.029   1_556 S
N804   N35     1.292   1_556 S
N804   H34     1.029   1_556 S
C813   H821    1.112   .     S
C813   H822    1.106   .     S
C813   C901    1.539   .     S
C813   C942    1.539   .     S
C814   H820    1.108   .     S
C814   H819    1.112   .     S
C814   C1069   1.539   1_545 S
C814   C1071   1.528   1_545 S
C815   H817    1.111   .     S
C815   H816    1.111   .     S
C815   C942    1.528   .     S
C815   H946    1.111   .     S
H818   C1071   1.111   1_545 S
C823   C824    1.538   .     S
C823   H831    1.108   .     S
C823   C1030   1.536   1_545 S
C823   H1088   1.113   1_545 S
C824   H830    1.108   .     S
C824   C825    1.527   .     S
C824   H1085   1.112   1_545 S
C825   H826    1.111   .     S
C825   H827    1.111   .     S
C825   H828    1.111   .     S
H829   C952    1.112   .     S
H832   C951    1.113   .     S
C833   O869    1.280   .     A
C833   C837    1.429   .     S
C833   O871    1.289   .     A
C834   O872    1.286   .     A
C834   O870    1.282   .     A
C834   C838    1.425   .     S
C835   C852    1.402   .     A
C835   H863    1.084   .     S
C836   H864    1.084   .     S
C836   C851    1.402   .     A
C836   C790    1.393   1_655 S
C837   C1094   1.360   1_545 S
C837   C1133   1.539   1_545 S
C838   C965    1.360   .     S
C838   C1015   1.536   .     S
C839   O873    1.296   .     A
C839   C844    1.455   .     S
C839   O875    1.291   .     A
C840   O876    1.291   .     A
C840   C843    1.455   .     S
C840   O874    1.297   .     A
C841   C843    1.403   .     A
C841   H857    1.085   .     S
C841   C851    1.390   .     A
C842   H858    1.085   .     S
C842   C844    1.403   .     A
C842   C852    1.390   .     A
C843   C845    1.401   .     A
C844   C846    1.401   .     A
C845   C847    1.393   .     A
C845   H859    1.085   .     S
C846   C848    1.393   .     A
C846   H860    1.085   .     S
C847   C853    1.401   .     A
C847   C849    1.413   .     A
C848   C850    1.413   .     A
C848   C854    1.401   .     A
C849   C851    1.410   .     A
C849   C786    1.400   1_655 S
C850   C852    1.410   .     A
C853   H861    1.084   .     S
C853   C771    1.393   1_655 S
C854   H862    1.084   .     S
Cu855  O873    1.966   .     S
Cu855  O869    1.970   .     S
Cu855  Cu856   2.682   .     S
Cu855  O872    1.957   .     S
Cu855  N868    2.015   .     S
Cu855  O876    1.957   .     S
Cu856  O870    1.970   .     S
Cu856  N867    2.015   .     S
Cu856  O871    1.957   .     S
Cu856  O874    1.966   .     S
Cu856  O875    1.957   .     S
H865   N99     1.029   1_556 S
N868   N99     1.292   1_556 S
N868   H98     1.029   1_556 S
C877   H885    1.112   .     S
C877   H886    1.106   .     S
C877   C965    1.539   .     S
C877   C1006   1.539   .     S
C878   H884    1.108   .     S
C878   H883    1.112   .     S
C878   C1133   1.539   1_545 S
C878   C1135   1.528   1_545 S
C879   H881    1.111   .     S
C879   H880    1.111   .     S
C879   C1006   1.528   .     S
C879   H1010   1.111   .     S
H882   C1135   1.111   1_545 S
C887   C888    1.538   .     S
C887   H895    1.108   .     S
C887   C1094   1.536   1_545 S
C887   H1152   1.113   1_545 S
C888   H894    1.108   .     S
C888   C889    1.527   .     S
C888   H1149   1.112   1_545 S
C889   H890    1.111   .     S
C889   H891    1.111   .     S
C889   H892    1.111   .     S
H893   C1016   1.112   .     S
H896   C1015   1.113   .     S
C897   O933    1.280   .     A
C897   C901    1.429   .     S
C897   O935    1.289   .     A
C898   O936    1.286   .     A
C898   O934    1.282   .     A
C898   C902    1.425   .     S
C899   C916    1.402   .     A
C899   H927    1.084   .     S
C899   C981    1.393   1_455 S
C900   H928    1.084   .     S
C900   C915    1.402   .     A
C900   C982    1.393   .     S
C902   C1029   1.360   .     S
C902   C1079   1.536   .     S
C903   O937    1.296   .     A
C903   C908    1.455   .     S
C903   O939    1.291   .     A
C904   O940    1.291   .     A
C904   C907    1.455   .     S
C904   O938    1.297   .     A
C905   C907    1.403   .     A
C905   H921    1.085   .     S
C905   C915    1.390   .     A
C906   H922    1.085   .     S
C906   C908    1.403   .     A
C906   C916    1.390   .     A
C907   C909    1.401   .     A
C908   C910    1.401   .     A
C909   C911    1.393   .     A
C909   H923    1.085   .     S
C910   C912    1.393   .     A
C910   H924    1.085   .     S
C911   C917    1.401   .     A
C911   C913    1.413   .     A
C912   C914    1.413   .     A
C912   C918    1.401   .     A
C913   C915    1.410   .     A
C913   C978    1.400   .     S
C914   C916    1.410   .     A
C914   C977    1.400   1_455 S
C917   H925    1.084   .     S
C917   C963    1.393   .     S
C918   H926    1.084   .     S
C918   C964    1.393   1_455 S
Cu919  O937    1.966   .     S
Cu919  O933    1.970   .     S
Cu919  Cu920   2.682   .     S
Cu919  O936    1.957   .     S
Cu919  N932    2.015   .     S
Cu919  O940    1.957   .     S
Cu920  O934    1.970   .     S
Cu920  N931    2.015   .     S
Cu920  O935    1.957   .     S
Cu920  O938    1.966   .     S
Cu920  O939    1.957   .     S
H929   N163    1.029   1_556 S
N932   N163    1.292   1_556 S
N932   H162    1.029   1_556 S
C941   H949    1.112   .     S
C941   H950    1.106   .     S
C941   C1029   1.539   .     S
C941   C1070   1.539   .     S
C942   H948    1.108   .     S
C942   H947    1.112   .     S
C943   H945    1.111   .     S
C943   H944    1.111   .     S
C943   C1070   1.528   .     S
C943   H1074   1.111   .     S
C951   C952    1.538   .     S
C951   H959    1.108   .     S
C952   H958    1.108   .     S
C952   C953    1.527   .     S
C953   H954    1.111   .     S
C953   H955    1.111   .     S
C953   H956    1.111   .     S
H957   C1080   1.112   .     S
H960   C1079   1.113   .     S
C961   O997    1.280   .     A
C961   C965    1.429   .     S
C961   O999    1.289   .     A
C962   O1000   1.286   .     A
C962   O998    1.282   .     A
C962   C966    1.425   .     S
C963   C980    1.402   .     A
C963   H991    1.084   .     S
C964   H992    1.084   .     S
C964   C979    1.402   .     A
C964   C918    1.393   1_655 S
C966   C1093   1.360   .     S
C966   C1143   1.536   .     S
C967   O1001   1.296   .     A
C967   C972    1.455   .     S
C967   O1003   1.291   .     A
C968   O1004   1.291   .     A
C968   C971    1.455   .     S
C968   O1002   1.297   .     A
C969   C971    1.403   .     A
C969   H985    1.085   .     S
C969   C979    1.390   .     A
C970   H986    1.085   .     S
C970   C972    1.403   .     A
C970   C980    1.390   .     A
C971   C973    1.401   .     A
C972   C974    1.401   .     A
C973   C975    1.393   .     A
C973   H987    1.085   .     S
C974   C976    1.393   .     A
C974   H988    1.085   .     S
C975   C981    1.401   .     A
C975   C977    1.413   .     A
C976   C978    1.413   .     A
C976   C982    1.401   .     A
C977   C979    1.410   .     A
C977   C914    1.400   1_655 S
C978   C980    1.410   .     A
C981   H989    1.084   .     S
C981   C899    1.393   1_655 S
C982   H990    1.084   .     S
Cu983  O1001   1.966   .     S
Cu983  O997    1.970   .     S
Cu983  Cu984   2.682   .     S
Cu983  O1000   1.957   .     S
Cu983  N996    2.015   .     S
Cu983  O1004   1.957   .     S
Cu984  O998    1.970   .     S
Cu984  N995    2.015   .     S
Cu984  O999    1.957   .     S
Cu984  O1002   1.966   .     S
Cu984  O1003   1.957   .     S
H993   N227    1.029   1_556 S
N996   N227    1.292   1_556 S
N996   H226    1.029   1_556 S
C1005  H1013   1.112   .     S
C1005  H1014   1.106   .     S
C1005  C1093   1.539   .     S
C1005  C1134   1.539   .     S
C1006  H1012   1.108   .     S
C1006  H1011   1.112   .     S
C1007  H1009   1.111   .     S
C1007  H1008   1.111   .     S
C1007  C1134   1.528   .     S
C1007  H1138   1.111   .     S
C1015  C1016   1.538   .     S
C1015  H1023   1.108   .     S
C1016  H1022   1.108   .     S
C1016  C1017   1.527   .     S
C1017  H1018   1.111   .     S
C1017  H1019   1.111   .     S
C1017  H1020   1.111   .     S
H1021  C1144   1.112   .     S
H1024  C1143   1.113   .     S
C1025  O1061   1.280   .     A
C1025  C1029   1.429   .     S
C1025  O1063   1.289   .     A
C1026  O1064   1.286   .     A
C1026  O1062   1.282   .     A
C1026  C1030   1.425   .     S
C1027  C1044   1.402   .     A
C1027  H1055   1.084   .     S
C1027  C1109   1.393   1_455 S
C1028  H1056   1.084   .     S
C1028  C1043   1.402   .     A
C1028  C1110   1.393   .     S
C1030  C773    1.360   1_565 S
C1030  C823    1.536   1_565 S
C1031  O1065   1.296   .     A
C1031  C1036   1.455   .     S
C1031  O1067   1.291   .     A
C1032  O1068   1.291   .     A
C1032  C1035   1.455   .     S
C1032  O1066   1.297   .     A
C1033  C1035   1.403   .     A
C1033  H1049   1.085   .     S
C1033  C1043   1.390   .     A
C1034  H1050   1.085   .     S
C1034  C1036   1.403   .     A
C1034  C1044   1.390   .     A
C1035  C1037   1.401   .     A
C1036  C1038   1.401   .     A
C1037  C1039   1.393   .     A
C1037  H1051   1.085   .     S
C1038  C1040   1.393   .     A
C1038  H1052   1.085   .     S
C1039  C1045   1.401   .     A
C1039  C1041   1.413   .     A
C1040  C1042   1.413   .     A
C1040  C1046   1.401   .     A
C1041  C1043   1.410   .     A
C1041  C1106   1.400   .     S
C1042  C1044   1.410   .     A
C1042  C1105   1.400   1_455 S
C1045  H1053   1.084   .     S
C1045  C1091   1.393   .     S
C1046  H1054   1.084   .     S
C1046  C1092   1.393   1_455 S
Cu1047 O1065   1.966   .     S
Cu1047 O1061   1.970   .     S
Cu1047 Cu1048  2.682   .     S
Cu1047 O1064   1.957   .     S
Cu1047 N1060   2.015   .     S
Cu1047 O1068   1.957   .     S
Cu1048 O1062   1.970   .     S
Cu1048 N1059   2.015   .     S
Cu1048 O1063   1.957   .     S
Cu1048 O1066   1.966   .     S
Cu1048 O1067   1.957   .     S
H1057  N291    1.029   1_556 S
N1060  N291    1.292   1_556 S
N1060  H290    1.029   1_556 S
C1069  H1077   1.112   .     S
C1069  H1078   1.106   .     S
C1069  C773    1.539   1_565 S
C1069  C814    1.539   1_565 S
C1070  H1076   1.108   .     S
C1070  H1075   1.112   .     S
C1071  H1073   1.111   .     S
C1071  H1072   1.111   .     S
C1071  C814    1.528   1_565 S
C1071  H818    1.111   1_565 S
C1079  C1080   1.538   .     S
C1079  H1087   1.108   .     S
C1080  H1086   1.108   .     S
C1080  C1081   1.527   .     S
C1081  H1082   1.111   .     S
C1081  H1083   1.111   .     S
C1081  H1084   1.111   .     S
H1085  C824    1.112   1_565 S
H1088  C823    1.113   1_565 S
C1089  O1125   1.280   .     A
C1089  C1093   1.429   .     S
C1089  O1127   1.289   .     A
C1090  O1128   1.286   .     A
C1090  O1126   1.282   .     A
C1090  C1094   1.425   .     S
C1091  C1108   1.402   .     A
C1091  H1119   1.084   .     S
C1092  H1120   1.084   .     S
C1092  C1107   1.402   .     A
C1092  C1046   1.393   1_655 S
C1094  C837    1.360   1_565 S
C1094  C887    1.536   1_565 S
C1095  O1129   1.296   .     A
C1095  C1100   1.455   .     S
C1095  O1131   1.291   .     A
C1096  O1132   1.291   .     A
C1096  C1099   1.455   .     S
C1096  O1130   1.297   .     A
C1097  C1099   1.403   .     A
C1097  H1113   1.085   .     S
C1097  C1107   1.390   .     A
C1098  H1114   1.085   .     S
C1098  C1100   1.403   .     A
C1098  C1108   1.390   .     A
C1099  C1101   1.401   .     A
C1100  C1102   1.401   .     A
C1101  C1103   1.393   .     A
C1101  H1115   1.085   .     S
C1102  C1104   1.393   .     A
C1102  H1116   1.085   .     S
C1103  C1109   1.401   .     A
C1103  C1105   1.413   .     A
C1104  C1106   1.413   .     A
C1104  C1110   1.401   .     A
C1105  C1107   1.410   .     A
C1105  C1042   1.400   1_655 S
C1106  C1108   1.410   .     A
C1109  H1117   1.084   .     S
C1109  C1027   1.393   1_655 S
C1110  H1118   1.084   .     S
Cu1111 O1129   1.966   .     S
Cu1111 O1125   1.970   .     S
Cu1111 Cu1112  2.682   .     S
Cu1111 O1128   1.957   .     S
Cu1111 N1124   2.015   .     S
Cu1111 O1132   1.957   .     S
Cu1112 O1126   1.970   .     S
Cu1112 N1123   2.015   .     S
Cu1112 O1127   1.957   .     S
Cu1112 O1130   1.966   .     S
Cu1112 O1131   1.957   .     S
H1121  N355    1.029   1_556 S
N1124  N355    1.292   1_556 S
N1124  H354    1.029   1_556 S
C1133  H1141   1.112   .     S
C1133  H1142   1.106   .     S
C1133  C837    1.539   1_565 S
C1133  C878    1.539   1_565 S
C1134  H1140   1.108   .     S
C1134  H1139   1.112   .     S
C1135  H1137   1.111   .     S
C1135  H1136   1.111   .     S
C1135  C878    1.528   1_565 S
C1135  H882    1.111   1_565 S
C1143  C1144   1.538   .     S
C1143  H1151   1.108   .     S
C1144  H1150   1.108   .     S
C1144  C1145   1.527   .     S
C1145  H1146   1.111   .     S
C1145  H1147   1.111   .     S
C1145  H1148   1.111   .     S
H1149  C888    1.112   1_565 S
H1152  C887    1.113   1_565 S
