data_str_m2_o1_o10_pcu_sym.160
_audit_creation_date              2020-01-03
_audit_creation_method            'Materials Studio'
_symmetry_space_group_name_H-M    'P1'
_symmetry_Int_Tables_number       1
_symmetry_cell_setting            triclinic
loop_
_symmetry_equiv_pos_as_xyz
  x,y,z
_cell_length_a                    26.6367
_cell_length_b                    32.4167
_cell_length_c                    29.0350
_cell_angle_alpha                 90.3239
_cell_angle_beta                  98.5272
_cell_angle_gamma                 95.7733
loop_
_atom_site_label
_atom_site_type_symbol
_atom_site_fract_x
_atom_site_fract_y
_atom_site_fract_z
_atom_site_U_iso_or_equiv
_atom_site_adp_type
_atom_site_occupancy
C1     C     0.16668   0.08767   0.16679   0.00000  Uiso   1.00
C2     C     0.16665   0.24566   0.16655   0.00000  Uiso   1.00
C3     C     0.06815   0.16591   0.15479   0.00000  Uiso   1.00
C4     C     0.26518   0.16742   0.17854   0.00000  Uiso   1.00
C5     C     0.01266   0.16007   0.14926   0.00000  Uiso   1.00
C6     C     0.32067   0.17326   0.18407   0.00000  Uiso   1.00
C7     C     0.12257   0.01796   0.14590   0.00000  Uiso   1.00
C8     C     0.21076   0.31537   0.18744   0.00000  Uiso   1.00
C9     C     0.12372   0.30806   0.14286   0.00000  Uiso   1.00
C10    C     0.20961   0.02527   0.19047   0.00000  Uiso   1.00
C11    C     0.16698   0.29043   0.16576   0.00000  Uiso   1.00
C12    C     0.16635   0.04290   0.16757   0.00000  Uiso   1.00
C13    C     0.13407   0.13876   0.01997   0.00000  Uiso   1.00
C14    C     0.19927   0.19457   0.31337   0.00000  Uiso   1.00
C15    C     0.13389   0.13881   0.30388   0.00000  Uiso   1.00
C16    C     0.19945   0.19452   0.02945   0.00000  Uiso   1.00
Cu17   Cu    0.16667   0.16667   0.21355   0.00000  Uiso   1.00
Cu18   Cu    0.16667   0.16666   0.11978   0.00000  Uiso   1.00
N19    N     0.16668   0.16668   0.28403   0.00000  Uiso   1.00
N20    N     0.16665   0.16666   0.04931   0.00000  Uiso   1.00
O21    O     0.16666   0.10655   0.20625   0.00000  Uiso   1.00
O22    O     0.16667   0.22678   0.12709   0.00000  Uiso   1.00
O23    O     0.16666   0.10654   0.12706   0.00000  Uiso   1.00
O24    O     0.16667   0.22679   0.20628   0.00000  Uiso   1.00
O25    O     0.09161   0.16667   0.19712   0.00000  Uiso   1.00
O26    O     0.24172   0.16666   0.13621   0.00000  Uiso   1.00
O27    O     0.09161   0.16666   0.11793   0.00000  Uiso   1.00
O28    O     0.24172   0.16667   0.21540   0.00000  Uiso   1.00
C29    C     0.32058   0.13446   0.10570   0.00000  Uiso   1.00
C30    C     0.29739   0.09141   0.11734   0.00000  Uiso   1.00
H31    H     0.32128   0.07859   0.14731   0.00000  Uiso   1.00
H32    H     0.25856   0.09255   0.12581   0.00000  Uiso   1.00
H33    H     0.29446   0.07002   0.08681   0.00000  Uiso   1.00
H34    H     0.29274   0.15124   0.08289   0.00000  Uiso   1.00
H35    H     0.01541   0.12906   0.08260   0.00000  Uiso   1.00
C36    C     0.01275   0.19887   0.22764   0.00000  Uiso   1.00
C37    C     0.03595   0.24192   0.21600   0.00000  Uiso   1.00
H38    H     0.01205   0.25476   0.18605   0.00000  Uiso   1.00
H39    H     0.03890   0.26330   0.24654   0.00000  Uiso   1.00
H40    H     0.07477   0.24078   0.20751   0.00000  Uiso   1.00
H41    H     0.31792   0.20427   0.25074   0.00000  Uiso   1.00
H42    H     0.04059   0.18209   0.25045   0.00000  Uiso   1.00
C43    C     0.07308   0.03665   0.12960   0.00000  Uiso   1.00
H44    H     0.07485   0.07017   0.13767   0.00000  Uiso   1.00
H45    H     0.06168   0.03197   0.09151   0.00000  Uiso   1.00
H46    H     0.04254   0.02186   0.14803   0.00000  Uiso   1.00
C47    C     0.26025   0.29669   0.20374   0.00000  Uiso   1.00
H48    H     0.25848   0.26316   0.19567   0.00000  Uiso   1.00
H49    H     0.27163   0.30135   0.24184   0.00000  Uiso   1.00
H50    H     0.29080   0.31147   0.18532   0.00000  Uiso   1.00
C51    C     0.07969   0.28111   0.11375   0.00000  Uiso   1.00
C52    C     0.08632   0.28032   0.06237   0.00000  Uiso   1.00
H53    H     0.12247   0.26757   0.05788   0.00000  Uiso   1.00
H54    H     0.05407   0.26037   0.04219   0.00000  Uiso   1.00
H55    H     0.08689   0.31197   0.04799   0.00000  Uiso   1.00
H56    H     0.07643   0.24881   0.12580   0.00000  Uiso   1.00
H57    H     0.04214   0.29178   0.11701   0.00000  Uiso   1.00
C58    C     0.25365   0.05223   0.21959   0.00000  Uiso   1.00
C59    C     0.24702   0.05301   0.27097   0.00000  Uiso   1.00
H60    H     0.27927   0.07296   0.29114   0.00000  Uiso   1.00
H61    H     0.21087   0.06577   0.27546   0.00000  Uiso   1.00
H62    H     0.24645   0.02136   0.28535   0.00000  Uiso   1.00
H63    H     0.29120   0.04155   0.21632   0.00000  Uiso   1.00
H64    H     0.25689   0.08452   0.20753   0.00000  Uiso   1.00
C65    C     0.09789   0.10638   0.03874   0.00000  Uiso   1.00
H66    H     0.05811   0.10841   0.02190   0.00000  Uiso   1.00
H67    H     0.10902   0.07495   0.03263   0.00000  Uiso   1.00
H68    H     0.09630   0.10943   0.07547   0.00000  Uiso   1.00
C69    C     0.23543   0.22696   0.29459   0.00000  Uiso   1.00
H70    H     0.23704   0.22390   0.25786   0.00000  Uiso   1.00
H71    H     0.22426   0.25839   0.30068   0.00000  Uiso   1.00
H72    H     0.27521   0.22496   0.31144   0.00000  Uiso   1.00
C73    C     0.09622   0.10709   0.27460   0.00000  Uiso   1.00
H74    H     0.09539   0.10789   0.23722   0.00000  Uiso   1.00
H75    H     0.10444   0.07525   0.28485   0.00000  Uiso   1.00
H76    H     0.05661   0.11165   0.27939   0.00000  Uiso   1.00
C77    C     0.23712   0.22624   0.05873   0.00000  Uiso   1.00
H78    H     0.23794   0.22545   0.09612   0.00000  Uiso   1.00
H79    H     0.27673   0.22167   0.05394   0.00000  Uiso   1.00
H80    H     0.22891   0.25808   0.04848   0.00000  Uiso   1.00
C81    C     0.50002   0.08767   0.16679   0.00000  Uiso   1.00
C82    C     0.49998   0.24566   0.16655   0.00000  Uiso   1.00
C83    C     0.40148   0.16591   0.15479   0.00000  Uiso   1.00
C84    C     0.59852   0.16742   0.17854   0.00000  Uiso   1.00
C85    C     0.34600   0.16007   0.14926   0.00000  Uiso   1.00
C86    C     0.65400   0.17326   0.18407   0.00000  Uiso   1.00
C87    C     0.45591   0.01796   0.14590   0.00000  Uiso   1.00
C88    C     0.54409   0.31537   0.18744   0.00000  Uiso   1.00
C89    C     0.45705   0.30806   0.14286   0.00000  Uiso   1.00
C90    C     0.54294   0.02527   0.19047   0.00000  Uiso   1.00
C91    C     0.50031   0.29043   0.16576   0.00000  Uiso   1.00
C92    C     0.49969   0.04290   0.16757   0.00000  Uiso   1.00
C93    C     0.46740   0.13876   0.01997   0.00000  Uiso   1.00
C94    C     0.53260   0.19457   0.31337   0.00000  Uiso   1.00
C95    C     0.46722   0.13881   0.30388   0.00000  Uiso   1.00
C96    C     0.53278   0.19452   0.02945   0.00000  Uiso   1.00
Cu97   Cu    0.50000   0.16667   0.21355   0.00000  Uiso   1.00
Cu98   Cu    0.50000   0.16666   0.11978   0.00000  Uiso   1.00
N99    N     0.50001   0.16668   0.28403   0.00000  Uiso   1.00
N100   N     0.49999   0.16666   0.04931   0.00000  Uiso   1.00
O101   O     0.50000   0.10655   0.20625   0.00000  Uiso   1.00
O102   O     0.50000   0.22678   0.12709   0.00000  Uiso   1.00
O103   O     0.50000   0.10654   0.12706   0.00000  Uiso   1.00
O104   O     0.50000   0.22679   0.20628   0.00000  Uiso   1.00
O105   O     0.42495   0.16667   0.19712   0.00000  Uiso   1.00
O106   O     0.57505   0.16666   0.13621   0.00000  Uiso   1.00
O107   O     0.42494   0.16666   0.11793   0.00000  Uiso   1.00
O108   O     0.57506   0.16667   0.21540   0.00000  Uiso   1.00
C109   C     0.65392   0.13446   0.10570   0.00000  Uiso   1.00
C110   C     0.63072   0.09141   0.11734   0.00000  Uiso   1.00
H111   H     0.65461   0.07859   0.14731   0.00000  Uiso   1.00
H112   H     0.59190   0.09255   0.12581   0.00000  Uiso   1.00
H113   H     0.62779   0.07002   0.08681   0.00000  Uiso   1.00
H114   H     0.62608   0.15124   0.08289   0.00000  Uiso   1.00
H115   H     0.34874   0.12906   0.08260   0.00000  Uiso   1.00
C116   C     0.34608   0.19887   0.22764   0.00000  Uiso   1.00
C117   C     0.36929   0.24192   0.21600   0.00000  Uiso   1.00
H118   H     0.34538   0.25476   0.18605   0.00000  Uiso   1.00
H119   H     0.37224   0.26330   0.24654   0.00000  Uiso   1.00
H120   H     0.40810   0.24078   0.20751   0.00000  Uiso   1.00
H121   H     0.65126   0.20427   0.25074   0.00000  Uiso   1.00
H122   H     0.37392   0.18209   0.25045   0.00000  Uiso   1.00
C123   C     0.40642   0.03665   0.12960   0.00000  Uiso   1.00
H124   H     0.40818   0.07017   0.13767   0.00000  Uiso   1.00
H125   H     0.39502   0.03197   0.09151   0.00000  Uiso   1.00
H126   H     0.37587   0.02186   0.14803   0.00000  Uiso   1.00
C127   C     0.59358   0.29669   0.20374   0.00000  Uiso   1.00
H128   H     0.59181   0.26316   0.19567   0.00000  Uiso   1.00
H129   H     0.60496   0.30135   0.24184   0.00000  Uiso   1.00
H130   H     0.62413   0.31147   0.18532   0.00000  Uiso   1.00
C131   C     0.41302   0.28111   0.11375   0.00000  Uiso   1.00
C132   C     0.41965   0.28032   0.06237   0.00000  Uiso   1.00
H133   H     0.45580   0.26757   0.05788   0.00000  Uiso   1.00
H134   H     0.38740   0.26037   0.04219   0.00000  Uiso   1.00
H135   H     0.42022   0.31197   0.04799   0.00000  Uiso   1.00
H136   H     0.40977   0.24881   0.12580   0.00000  Uiso   1.00
H137   H     0.37547   0.29178   0.11701   0.00000  Uiso   1.00
C138   C     0.58698   0.05223   0.21959   0.00000  Uiso   1.00
C139   C     0.58035   0.05301   0.27097   0.00000  Uiso   1.00
H140   H     0.61260   0.07296   0.29114   0.00000  Uiso   1.00
H141   H     0.54420   0.06577   0.27546   0.00000  Uiso   1.00
H142   H     0.57978   0.02136   0.28535   0.00000  Uiso   1.00
H143   H     0.62453   0.04155   0.21632   0.00000  Uiso   1.00
H144   H     0.59023   0.08452   0.20753   0.00000  Uiso   1.00
C145   C     0.43122   0.10638   0.03874   0.00000  Uiso   1.00
H146   H     0.39144   0.10841   0.02190   0.00000  Uiso   1.00
H147   H     0.44236   0.07495   0.03263   0.00000  Uiso   1.00
H148   H     0.42963   0.10943   0.07547   0.00000  Uiso   1.00
C149   C     0.56876   0.22696   0.29459   0.00000  Uiso   1.00
H150   H     0.57037   0.22390   0.25786   0.00000  Uiso   1.00
H151   H     0.55759   0.25839   0.30068   0.00000  Uiso   1.00
H152   H     0.60854   0.22496   0.31144   0.00000  Uiso   1.00
C153   C     0.42955   0.10709   0.27460   0.00000  Uiso   1.00
H154   H     0.42872   0.10789   0.23722   0.00000  Uiso   1.00
H155   H     0.43778   0.07525   0.28485   0.00000  Uiso   1.00
H156   H     0.38994   0.11165   0.27939   0.00000  Uiso   1.00
C157   C     0.57045   0.22624   0.05873   0.00000  Uiso   1.00
H158   H     0.57128   0.22545   0.09612   0.00000  Uiso   1.00
H159   H     0.61006   0.22167   0.05394   0.00000  Uiso   1.00
H160   H     0.56224   0.25808   0.04848   0.00000  Uiso   1.00
C161   C     0.83335   0.08767   0.16679   0.00000  Uiso   1.00
C162   C     0.83332   0.24566   0.16655   0.00000  Uiso   1.00
C163   C     0.73482   0.16591   0.15479   0.00000  Uiso   1.00
C164   C     0.93185   0.16742   0.17854   0.00000  Uiso   1.00
C165   C     0.67933   0.16007   0.14926   0.00000  Uiso   1.00
C166   C     0.98734   0.17326   0.18407   0.00000  Uiso   1.00
C167   C     0.78924   0.01796   0.14590   0.00000  Uiso   1.00
C168   C     0.87743   0.31537   0.18744   0.00000  Uiso   1.00
C169   C     0.79039   0.30806   0.14286   0.00000  Uiso   1.00
C170   C     0.87628   0.02527   0.19047   0.00000  Uiso   1.00
C171   C     0.83365   0.29043   0.16576   0.00000  Uiso   1.00
C172   C     0.83302   0.04290   0.16757   0.00000  Uiso   1.00
C173   C     0.80073   0.13876   0.01997   0.00000  Uiso   1.00
C174   C     0.86593   0.19457   0.31337   0.00000  Uiso   1.00
C175   C     0.80055   0.13881   0.30388   0.00000  Uiso   1.00
C176   C     0.86611   0.19452   0.02945   0.00000  Uiso   1.00
Cu177  Cu    0.83333   0.16667   0.21355   0.00000  Uiso   1.00
Cu178  Cu    0.83333   0.16666   0.11978   0.00000  Uiso   1.00
N179   N     0.83335   0.16668   0.28403   0.00000  Uiso   1.00
N180   N     0.83332   0.16666   0.04931   0.00000  Uiso   1.00
O181   O     0.83333   0.10655   0.20625   0.00000  Uiso   1.00
O182   O     0.83334   0.22678   0.12709   0.00000  Uiso   1.00
O183   O     0.83333   0.10654   0.12706   0.00000  Uiso   1.00
O184   O     0.83334   0.22679   0.20628   0.00000  Uiso   1.00
O185   O     0.75828   0.16667   0.19712   0.00000  Uiso   1.00
O186   O     0.90839   0.16666   0.13621   0.00000  Uiso   1.00
O187   O     0.75828   0.16666   0.11793   0.00000  Uiso   1.00
O188   O     0.90839   0.16667   0.21540   0.00000  Uiso   1.00
C189   C     0.98725   0.13446   0.10570   0.00000  Uiso   1.00
C190   C     0.96405   0.09141   0.11734   0.00000  Uiso   1.00
H191   H     0.98794   0.07859   0.14731   0.00000  Uiso   1.00
H192   H     0.92523   0.09255   0.12581   0.00000  Uiso   1.00
H193   H     0.96112   0.07002   0.08681   0.00000  Uiso   1.00
H194   H     0.95941   0.15124   0.08289   0.00000  Uiso   1.00
H195   H     0.68208   0.12906   0.08260   0.00000  Uiso   1.00
C196   C     0.67942   0.19887   0.22764   0.00000  Uiso   1.00
C197   C     0.70262   0.24192   0.21600   0.00000  Uiso   1.00
H198   H     0.67872   0.25476   0.18605   0.00000  Uiso   1.00
H199   H     0.70557   0.26330   0.24654   0.00000  Uiso   1.00
H200   H     0.74143   0.24078   0.20751   0.00000  Uiso   1.00
H201   H     0.98459   0.20427   0.25074   0.00000  Uiso   1.00
H202   H     0.70726   0.18209   0.25045   0.00000  Uiso   1.00
C203   C     0.73975   0.03665   0.12960   0.00000  Uiso   1.00
H204   H     0.74152   0.07017   0.13767   0.00000  Uiso   1.00
H205   H     0.72835   0.03197   0.09151   0.00000  Uiso   1.00
H206   H     0.70920   0.02186   0.14803   0.00000  Uiso   1.00
C207   C     0.92691   0.29669   0.20374   0.00000  Uiso   1.00
H208   H     0.92515   0.26316   0.19567   0.00000  Uiso   1.00
H209   H     0.93830   0.30135   0.24184   0.00000  Uiso   1.00
H210   H     0.95747   0.31147   0.18532   0.00000  Uiso   1.00
C211   C     0.74635   0.28111   0.11375   0.00000  Uiso   1.00
C212   C     0.75298   0.28032   0.06237   0.00000  Uiso   1.00
H213   H     0.78914   0.26757   0.05788   0.00000  Uiso   1.00
H214   H     0.72074   0.26037   0.04219   0.00000  Uiso   1.00
H215   H     0.75355   0.31197   0.04799   0.00000  Uiso   1.00
H216   H     0.74310   0.24881   0.12580   0.00000  Uiso   1.00
H217   H     0.70880   0.29178   0.11701   0.00000  Uiso   1.00
C218   C     0.92031   0.05223   0.21959   0.00000  Uiso   1.00
C219   C     0.91369   0.05301   0.27097   0.00000  Uiso   1.00
H220   H     0.94593   0.07296   0.29114   0.00000  Uiso   1.00
H221   H     0.87753   0.06577   0.27546   0.00000  Uiso   1.00
H222   H     0.91311   0.02136   0.28535   0.00000  Uiso   1.00
H223   H     0.95786   0.04155   0.21632   0.00000  Uiso   1.00
H224   H     0.92356   0.08452   0.20753   0.00000  Uiso   1.00
C225   C     0.76456   0.10638   0.03874   0.00000  Uiso   1.00
H226   H     0.72478   0.10841   0.02190   0.00000  Uiso   1.00
H227   H     0.77569   0.07495   0.03263   0.00000  Uiso   1.00
H228   H     0.76297   0.10943   0.07547   0.00000  Uiso   1.00
C229   C     0.90209   0.22696   0.29459   0.00000  Uiso   1.00
H230   H     0.90370   0.22390   0.25786   0.00000  Uiso   1.00
H231   H     0.89093   0.25839   0.30068   0.00000  Uiso   1.00
H232   H     0.94187   0.22496   0.31144   0.00000  Uiso   1.00
C233   C     0.76289   0.10709   0.27460   0.00000  Uiso   1.00
H234   H     0.76206   0.10789   0.23722   0.00000  Uiso   1.00
H235   H     0.77111   0.07525   0.28485   0.00000  Uiso   1.00
H236   H     0.72327   0.11165   0.27939   0.00000  Uiso   1.00
C237   C     0.90378   0.22624   0.05873   0.00000  Uiso   1.00
H238   H     0.90461   0.22545   0.09612   0.00000  Uiso   1.00
H239   H     0.94340   0.22167   0.05394   0.00000  Uiso   1.00
H240   H     0.89557   0.25808   0.04848   0.00000  Uiso   1.00
C241   C     0.16668   0.42100   0.16679   0.00000  Uiso   1.00
C242   C     0.16665   0.57900   0.16655   0.00000  Uiso   1.00
C243   C     0.06815   0.49924   0.15479   0.00000  Uiso   1.00
C244   C     0.26518   0.50076   0.17854   0.00000  Uiso   1.00
C245   C     0.01266   0.49341   0.14926   0.00000  Uiso   1.00
C246   C     0.32067   0.50659   0.18407   0.00000  Uiso   1.00
C247   C     0.12257   0.35130   0.14590   0.00000  Uiso   1.00
C248   C     0.21076   0.64871   0.18744   0.00000  Uiso   1.00
C249   C     0.12372   0.64139   0.14286   0.00000  Uiso   1.00
C250   C     0.20961   0.35861   0.19047   0.00000  Uiso   1.00
C251   C     0.16698   0.62376   0.16576   0.00000  Uiso   1.00
C252   C     0.16635   0.37624   0.16757   0.00000  Uiso   1.00
C253   C     0.13407   0.47210   0.01997   0.00000  Uiso   1.00
C254   C     0.19927   0.52791   0.31337   0.00000  Uiso   1.00
C255   C     0.13389   0.47214   0.30388   0.00000  Uiso   1.00
C256   C     0.19945   0.52786   0.02945   0.00000  Uiso   1.00
Cu257  Cu    0.16667   0.50001   0.21355   0.00000  Uiso   1.00
Cu258  Cu    0.16667   0.49999   0.11978   0.00000  Uiso   1.00
N259   N     0.16668   0.50001   0.28403   0.00000  Uiso   1.00
N260   N     0.16665   0.49999   0.04931   0.00000  Uiso   1.00
O261   O     0.16666   0.43989   0.20625   0.00000  Uiso   1.00
O262   O     0.16667   0.56011   0.12709   0.00000  Uiso   1.00
O263   O     0.16666   0.43988   0.12706   0.00000  Uiso   1.00
O264   O     0.16667   0.56012   0.20628   0.00000  Uiso   1.00
O265   O     0.09161   0.50000   0.19712   0.00000  Uiso   1.00
O266   O     0.24172   0.50000   0.13621   0.00000  Uiso   1.00
O267   O     0.09161   0.49999   0.11793   0.00000  Uiso   1.00
O268   O     0.24172   0.50001   0.21540   0.00000  Uiso   1.00
C269   C     0.32058   0.46779   0.10570   0.00000  Uiso   1.00
C270   C     0.29739   0.42474   0.11734   0.00000  Uiso   1.00
H271   H     0.32128   0.41192   0.14731   0.00000  Uiso   1.00
H272   H     0.25856   0.42588   0.12581   0.00000  Uiso   1.00
H273   H     0.29446   0.40336   0.08681   0.00000  Uiso   1.00
H274   H     0.29274   0.48457   0.08289   0.00000  Uiso   1.00
H275   H     0.01541   0.46239   0.08260   0.00000  Uiso   1.00
C276   C     0.01275   0.53221   0.22764   0.00000  Uiso   1.00
C277   C     0.03595   0.57525   0.21600   0.00000  Uiso   1.00
H278   H     0.01205   0.58809   0.18605   0.00000  Uiso   1.00
H279   H     0.03890   0.59663   0.24654   0.00000  Uiso   1.00
H280   H     0.07477   0.57412   0.20751   0.00000  Uiso   1.00
H281   H     0.31792   0.53761   0.25074   0.00000  Uiso   1.00
H282   H     0.04059   0.51542   0.25045   0.00000  Uiso   1.00
C283   C     0.07308   0.36998   0.12960   0.00000  Uiso   1.00
H284   H     0.07485   0.40350   0.13767   0.00000  Uiso   1.00
H285   H     0.06168   0.36531   0.09151   0.00000  Uiso   1.00
H286   H     0.04254   0.35520   0.14803   0.00000  Uiso   1.00
C287   C     0.26025   0.63002   0.20374   0.00000  Uiso   1.00
H288   H     0.25848   0.59650   0.19567   0.00000  Uiso   1.00
H289   H     0.27163   0.63469   0.24184   0.00000  Uiso   1.00
H290   H     0.29080   0.64481   0.18532   0.00000  Uiso   1.00
C291   C     0.07969   0.61444   0.11375   0.00000  Uiso   1.00
C292   C     0.08632   0.61366   0.06237   0.00000  Uiso   1.00
H293   H     0.12247   0.60090   0.05788   0.00000  Uiso   1.00
H294   H     0.05407   0.59371   0.04219   0.00000  Uiso   1.00
H295   H     0.08689   0.64530   0.04799   0.00000  Uiso   1.00
H296   H     0.07643   0.58215   0.12580   0.00000  Uiso   1.00
H297   H     0.04214   0.62512   0.11701   0.00000  Uiso   1.00
C298   C     0.25365   0.38556   0.21959   0.00000  Uiso   1.00
C299   C     0.24702   0.38634   0.27097   0.00000  Uiso   1.00
H300   H     0.27927   0.40629   0.29114   0.00000  Uiso   1.00
H301   H     0.21087   0.39910   0.27546   0.00000  Uiso   1.00
H302   H     0.24645   0.35470   0.28535   0.00000  Uiso   1.00
H303   H     0.29120   0.37489   0.21632   0.00000  Uiso   1.00
H304   H     0.25689   0.41785   0.20753   0.00000  Uiso   1.00
C305   C     0.09789   0.43972   0.03874   0.00000  Uiso   1.00
H306   H     0.05811   0.44175   0.02190   0.00000  Uiso   1.00
H307   H     0.10902   0.40828   0.03263   0.00000  Uiso   1.00
H308   H     0.09630   0.44276   0.07547   0.00000  Uiso   1.00
C309   C     0.23543   0.56029   0.29459   0.00000  Uiso   1.00
H310   H     0.23704   0.55723   0.25786   0.00000  Uiso   1.00
H311   H     0.22426   0.59172   0.30068   0.00000  Uiso   1.00
H312   H     0.27521   0.55829   0.31144   0.00000  Uiso   1.00
C313   C     0.09622   0.44043   0.27460   0.00000  Uiso   1.00
H314   H     0.09539   0.44122   0.23722   0.00000  Uiso   1.00
H315   H     0.10444   0.40858   0.28485   0.00000  Uiso   1.00
H316   H     0.05661   0.44498   0.27939   0.00000  Uiso   1.00
C317   C     0.23712   0.55957   0.05873   0.00000  Uiso   1.00
H318   H     0.23794   0.55878   0.09612   0.00000  Uiso   1.00
H319   H     0.27673   0.55501   0.05394   0.00000  Uiso   1.00
H320   H     0.22891   0.59142   0.04848   0.00000  Uiso   1.00
C321   C     0.50002   0.42100   0.16679   0.00000  Uiso   1.00
C322   C     0.49998   0.57900   0.16655   0.00000  Uiso   1.00
C323   C     0.40148   0.49924   0.15479   0.00000  Uiso   1.00
C324   C     0.59852   0.50076   0.17854   0.00000  Uiso   1.00
C325   C     0.34600   0.49341   0.14926   0.00000  Uiso   1.00
C326   C     0.65400   0.50659   0.18407   0.00000  Uiso   1.00
C327   C     0.45591   0.35130   0.14590   0.00000  Uiso   1.00
C328   C     0.54409   0.64871   0.18744   0.00000  Uiso   1.00
C329   C     0.45705   0.64139   0.14286   0.00000  Uiso   1.00
C330   C     0.54294   0.35861   0.19047   0.00000  Uiso   1.00
C331   C     0.50031   0.62376   0.16576   0.00000  Uiso   1.00
C332   C     0.49969   0.37624   0.16757   0.00000  Uiso   1.00
C333   C     0.46740   0.47210   0.01997   0.00000  Uiso   1.00
C334   C     0.53260   0.52791   0.31337   0.00000  Uiso   1.00
C335   C     0.46722   0.47214   0.30388   0.00000  Uiso   1.00
C336   C     0.53278   0.52786   0.02945   0.00000  Uiso   1.00
Cu337  Cu    0.50000   0.50001   0.21355   0.00000  Uiso   1.00
Cu338  Cu    0.50000   0.49999   0.11978   0.00000  Uiso   1.00
N339   N     0.50001   0.50001   0.28403   0.00000  Uiso   1.00
N340   N     0.49999   0.49999   0.04931   0.00000  Uiso   1.00
O341   O     0.50000   0.43989   0.20625   0.00000  Uiso   1.00
O342   O     0.50000   0.56011   0.12709   0.00000  Uiso   1.00
O343   O     0.50000   0.43988   0.12706   0.00000  Uiso   1.00
O344   O     0.50000   0.56012   0.20628   0.00000  Uiso   1.00
O345   O     0.42495   0.50000   0.19712   0.00000  Uiso   1.00
O346   O     0.57505   0.50000   0.13621   0.00000  Uiso   1.00
O347   O     0.42494   0.49999   0.11793   0.00000  Uiso   1.00
O348   O     0.57506   0.50001   0.21540   0.00000  Uiso   1.00
C349   C     0.65392   0.46779   0.10570   0.00000  Uiso   1.00
C350   C     0.63072   0.42474   0.11734   0.00000  Uiso   1.00
H351   H     0.65461   0.41192   0.14731   0.00000  Uiso   1.00
H352   H     0.59190   0.42588   0.12581   0.00000  Uiso   1.00
H353   H     0.62779   0.40336   0.08681   0.00000  Uiso   1.00
H354   H     0.62608   0.48457   0.08289   0.00000  Uiso   1.00
H355   H     0.34874   0.46239   0.08260   0.00000  Uiso   1.00
C356   C     0.34608   0.53221   0.22764   0.00000  Uiso   1.00
C357   C     0.36929   0.57525   0.21600   0.00000  Uiso   1.00
H358   H     0.34538   0.58809   0.18605   0.00000  Uiso   1.00
H359   H     0.37224   0.59663   0.24654   0.00000  Uiso   1.00
H360   H     0.40810   0.57412   0.20751   0.00000  Uiso   1.00
H361   H     0.65126   0.53761   0.25074   0.00000  Uiso   1.00
H362   H     0.37392   0.51542   0.25045   0.00000  Uiso   1.00
C363   C     0.40642   0.36998   0.12960   0.00000  Uiso   1.00
H364   H     0.40818   0.40350   0.13767   0.00000  Uiso   1.00
H365   H     0.39502   0.36531   0.09151   0.00000  Uiso   1.00
H366   H     0.37587   0.35520   0.14803   0.00000  Uiso   1.00
C367   C     0.59358   0.63002   0.20374   0.00000  Uiso   1.00
H368   H     0.59181   0.59650   0.19567   0.00000  Uiso   1.00
H369   H     0.60496   0.63469   0.24184   0.00000  Uiso   1.00
H370   H     0.62413   0.64481   0.18532   0.00000  Uiso   1.00
C371   C     0.41302   0.61444   0.11375   0.00000  Uiso   1.00
C372   C     0.41965   0.61366   0.06237   0.00000  Uiso   1.00
H373   H     0.45580   0.60090   0.05788   0.00000  Uiso   1.00
H374   H     0.38740   0.59371   0.04219   0.00000  Uiso   1.00
H375   H     0.42022   0.64530   0.04799   0.00000  Uiso   1.00
H376   H     0.40977   0.58215   0.12580   0.00000  Uiso   1.00
H377   H     0.37547   0.62512   0.11701   0.00000  Uiso   1.00
C378   C     0.58698   0.38556   0.21959   0.00000  Uiso   1.00
C379   C     0.58035   0.38634   0.27097   0.00000  Uiso   1.00
H380   H     0.61260   0.40629   0.29114   0.00000  Uiso   1.00
H381   H     0.54420   0.39910   0.27546   0.00000  Uiso   1.00
H382   H     0.57978   0.35470   0.28535   0.00000  Uiso   1.00
H383   H     0.62453   0.37489   0.21632   0.00000  Uiso   1.00
H384   H     0.59023   0.41785   0.20753   0.00000  Uiso   1.00
C385   C     0.43122   0.43972   0.03874   0.00000  Uiso   1.00
H386   H     0.39144   0.44175   0.02190   0.00000  Uiso   1.00
H387   H     0.44236   0.40828   0.03263   0.00000  Uiso   1.00
H388   H     0.42963   0.44276   0.07547   0.00000  Uiso   1.00
C389   C     0.56876   0.56029   0.29459   0.00000  Uiso   1.00
H390   H     0.57037   0.55723   0.25786   0.00000  Uiso   1.00
H391   H     0.55759   0.59172   0.30068   0.00000  Uiso   1.00
H392   H     0.60854   0.55829   0.31144   0.00000  Uiso   1.00
C393   C     0.42955   0.44043   0.27460   0.00000  Uiso   1.00
H394   H     0.42872   0.44122   0.23722   0.00000  Uiso   1.00
H395   H     0.43778   0.40858   0.28485   0.00000  Uiso   1.00
H396   H     0.38994   0.44498   0.27939   0.00000  Uiso   1.00
C397   C     0.57045   0.55957   0.05873   0.00000  Uiso   1.00
H398   H     0.57128   0.55878   0.09612   0.00000  Uiso   1.00
H399   H     0.61006   0.55501   0.05394   0.00000  Uiso   1.00
H400   H     0.56224   0.59142   0.04848   0.00000  Uiso   1.00
C401   C     0.83335   0.42100   0.16679   0.00000  Uiso   1.00
C402   C     0.83332   0.57900   0.16655   0.00000  Uiso   1.00
C403   C     0.73482   0.49924   0.15479   0.00000  Uiso   1.00
C404   C     0.93185   0.50076   0.17854   0.00000  Uiso   1.00
C405   C     0.67933   0.49341   0.14926   0.00000  Uiso   1.00
C406   C     0.98734   0.50659   0.18407   0.00000  Uiso   1.00
C407   C     0.78924   0.35130   0.14590   0.00000  Uiso   1.00
C408   C     0.87743   0.64871   0.18744   0.00000  Uiso   1.00
C409   C     0.79039   0.64139   0.14286   0.00000  Uiso   1.00
C410   C     0.87628   0.35861   0.19047   0.00000  Uiso   1.00
C411   C     0.83365   0.62376   0.16576   0.00000  Uiso   1.00
C412   C     0.83302   0.37624   0.16757   0.00000  Uiso   1.00
C413   C     0.80073   0.47210   0.01997   0.00000  Uiso   1.00
C414   C     0.86593   0.52791   0.31337   0.00000  Uiso   1.00
C415   C     0.80055   0.47214   0.30388   0.00000  Uiso   1.00
C416   C     0.86611   0.52786   0.02945   0.00000  Uiso   1.00
Cu417  Cu    0.83333   0.50001   0.21355   0.00000  Uiso   1.00
Cu418  Cu    0.83333   0.49999   0.11978   0.00000  Uiso   1.00
N419   N     0.83335   0.50001   0.28403   0.00000  Uiso   1.00
N420   N     0.83332   0.49999   0.04931   0.00000  Uiso   1.00
O421   O     0.83333   0.43989   0.20625   0.00000  Uiso   1.00
O422   O     0.83334   0.56011   0.12709   0.00000  Uiso   1.00
O423   O     0.83333   0.43988   0.12706   0.00000  Uiso   1.00
O424   O     0.83334   0.56012   0.20628   0.00000  Uiso   1.00
O425   O     0.75828   0.50000   0.19712   0.00000  Uiso   1.00
O426   O     0.90839   0.50000   0.13621   0.00000  Uiso   1.00
O427   O     0.75828   0.49999   0.11793   0.00000  Uiso   1.00
O428   O     0.90839   0.50001   0.21540   0.00000  Uiso   1.00
C429   C     0.98725   0.46779   0.10570   0.00000  Uiso   1.00
C430   C     0.96405   0.42474   0.11734   0.00000  Uiso   1.00
H431   H     0.98794   0.41192   0.14731   0.00000  Uiso   1.00
H432   H     0.92523   0.42588   0.12581   0.00000  Uiso   1.00
H433   H     0.96112   0.40336   0.08681   0.00000  Uiso   1.00
H434   H     0.95941   0.48457   0.08289   0.00000  Uiso   1.00
H435   H     0.68208   0.46239   0.08260   0.00000  Uiso   1.00
C436   C     0.67942   0.53221   0.22764   0.00000  Uiso   1.00
C437   C     0.70262   0.57525   0.21600   0.00000  Uiso   1.00
H438   H     0.67872   0.58809   0.18605   0.00000  Uiso   1.00
H439   H     0.70557   0.59663   0.24654   0.00000  Uiso   1.00
H440   H     0.74143   0.57412   0.20751   0.00000  Uiso   1.00
H441   H     0.98459   0.53761   0.25074   0.00000  Uiso   1.00
H442   H     0.70726   0.51542   0.25045   0.00000  Uiso   1.00
C443   C     0.73975   0.36998   0.12960   0.00000  Uiso   1.00
H444   H     0.74152   0.40350   0.13767   0.00000  Uiso   1.00
H445   H     0.72835   0.36531   0.09151   0.00000  Uiso   1.00
H446   H     0.70920   0.35520   0.14803   0.00000  Uiso   1.00
C447   C     0.92691   0.63002   0.20374   0.00000  Uiso   1.00
H448   H     0.92515   0.59650   0.19567   0.00000  Uiso   1.00
H449   H     0.93830   0.63469   0.24184   0.00000  Uiso   1.00
H450   H     0.95747   0.64481   0.18532   0.00000  Uiso   1.00
C451   C     0.74635   0.61444   0.11375   0.00000  Uiso   1.00
C452   C     0.75298   0.61366   0.06237   0.00000  Uiso   1.00
H453   H     0.78914   0.60090   0.05788   0.00000  Uiso   1.00
H454   H     0.72074   0.59371   0.04219   0.00000  Uiso   1.00
H455   H     0.75355   0.64530   0.04799   0.00000  Uiso   1.00
H456   H     0.74310   0.58215   0.12580   0.00000  Uiso   1.00
H457   H     0.70880   0.62512   0.11701   0.00000  Uiso   1.00
C458   C     0.92031   0.38556   0.21959   0.00000  Uiso   1.00
C459   C     0.91369   0.38634   0.27097   0.00000  Uiso   1.00
H460   H     0.94593   0.40629   0.29114   0.00000  Uiso   1.00
H461   H     0.87753   0.39910   0.27546   0.00000  Uiso   1.00
H462   H     0.91311   0.35470   0.28535   0.00000  Uiso   1.00
H463   H     0.95786   0.37489   0.21632   0.00000  Uiso   1.00
H464   H     0.92356   0.41785   0.20753   0.00000  Uiso   1.00
C465   C     0.76456   0.43972   0.03874   0.00000  Uiso   1.00
H466   H     0.72478   0.44175   0.02190   0.00000  Uiso   1.00
H467   H     0.77569   0.40828   0.03263   0.00000  Uiso   1.00
H468   H     0.76297   0.44276   0.07547   0.00000  Uiso   1.00
C469   C     0.90209   0.56029   0.29459   0.00000  Uiso   1.00
H470   H     0.90370   0.55723   0.25786   0.00000  Uiso   1.00
H471   H     0.89093   0.59172   0.30068   0.00000  Uiso   1.00
H472   H     0.94187   0.55829   0.31144   0.00000  Uiso   1.00
C473   C     0.76289   0.44043   0.27460   0.00000  Uiso   1.00
H474   H     0.76206   0.44122   0.23722   0.00000  Uiso   1.00
H475   H     0.77111   0.40858   0.28485   0.00000  Uiso   1.00
H476   H     0.72327   0.44498   0.27939   0.00000  Uiso   1.00
C477   C     0.90378   0.55957   0.05873   0.00000  Uiso   1.00
H478   H     0.90461   0.55878   0.09612   0.00000  Uiso   1.00
H479   H     0.94340   0.55501   0.05394   0.00000  Uiso   1.00
H480   H     0.89557   0.59142   0.04848   0.00000  Uiso   1.00
C481   C     0.16668   0.75434   0.16679   0.00000  Uiso   1.00
C482   C     0.16665   0.91233   0.16655   0.00000  Uiso   1.00
C483   C     0.06815   0.83258   0.15479   0.00000  Uiso   1.00
C484   C     0.26518   0.83409   0.17854   0.00000  Uiso   1.00
C485   C     0.01266   0.82674   0.14926   0.00000  Uiso   1.00
C486   C     0.32067   0.83993   0.18407   0.00000  Uiso   1.00
C487   C     0.12257   0.68463   0.14590   0.00000  Uiso   1.00
C488   C     0.21076   0.98204   0.18744   0.00000  Uiso   1.00
C489   C     0.12372   0.97473   0.14286   0.00000  Uiso   1.00
C490   C     0.20961   0.69194   0.19047   0.00000  Uiso   1.00
C491   C     0.16698   0.95710   0.16576   0.00000  Uiso   1.00
C492   C     0.16635   0.70957   0.16757   0.00000  Uiso   1.00
C493   C     0.13407   0.80543   0.01997   0.00000  Uiso   1.00
C494   C     0.19927   0.86124   0.31337   0.00000  Uiso   1.00
C495   C     0.13389   0.80548   0.30388   0.00000  Uiso   1.00
C496   C     0.19945   0.86119   0.02945   0.00000  Uiso   1.00
Cu497  Cu    0.16667   0.83334   0.21355   0.00000  Uiso   1.00
Cu498  Cu    0.16667   0.83333   0.11978   0.00000  Uiso   1.00
N499   N     0.16668   0.83334   0.28403   0.00000  Uiso   1.00
N500   N     0.16665   0.83332   0.04931   0.00000  Uiso   1.00
O501   O     0.16666   0.77322   0.20625   0.00000  Uiso   1.00
O502   O     0.16667   0.89345   0.12709   0.00000  Uiso   1.00
O503   O     0.16666   0.77321   0.12706   0.00000  Uiso   1.00
O504   O     0.16667   0.89346   0.20628   0.00000  Uiso   1.00
O505   O     0.09161   0.83334   0.19712   0.00000  Uiso   1.00
O506   O     0.24172   0.83333   0.13621   0.00000  Uiso   1.00
O507   O     0.09161   0.83333   0.11793   0.00000  Uiso   1.00
O508   O     0.24172   0.83334   0.21540   0.00000  Uiso   1.00
C509   C     0.32058   0.80112   0.10570   0.00000  Uiso   1.00
C510   C     0.29739   0.75808   0.11734   0.00000  Uiso   1.00
H511   H     0.32128   0.74525   0.14731   0.00000  Uiso   1.00
H512   H     0.25856   0.75921   0.12581   0.00000  Uiso   1.00
H513   H     0.29446   0.73669   0.08681   0.00000  Uiso   1.00
H514   H     0.29274   0.81791   0.08289   0.00000  Uiso   1.00
H515   H     0.01541   0.79572   0.08260   0.00000  Uiso   1.00
C516   C     0.01275   0.86554   0.22764   0.00000  Uiso   1.00
C517   C     0.03595   0.90859   0.21600   0.00000  Uiso   1.00
H518   H     0.01205   0.92142   0.18605   0.00000  Uiso   1.00
H519   H     0.03890   0.92997   0.24654   0.00000  Uiso   1.00
H520   H     0.07477   0.90745   0.20751   0.00000  Uiso   1.00
H521   H     0.31792   0.87094   0.25074   0.00000  Uiso   1.00
H522   H     0.04059   0.84875   0.25045   0.00000  Uiso   1.00
C523   C     0.07308   0.70331   0.12960   0.00000  Uiso   1.00
H524   H     0.07485   0.73684   0.13767   0.00000  Uiso   1.00
H525   H     0.06168   0.69864   0.09151   0.00000  Uiso   1.00
H526   H     0.04254   0.68853   0.14803   0.00000  Uiso   1.00
C527   C     0.26025   0.96335   0.20374   0.00000  Uiso   1.00
H528   H     0.25848   0.92983   0.19567   0.00000  Uiso   1.00
H529   H     0.27163   0.96802   0.24184   0.00000  Uiso   1.00
H530   H     0.29080   0.97814   0.18532   0.00000  Uiso   1.00
C531   C     0.07969   0.94777   0.11375   0.00000  Uiso   1.00
C532   C     0.08632   0.94699   0.06237   0.00000  Uiso   1.00
H533   H     0.12247   0.93423   0.05788   0.00000  Uiso   1.00
H534   H     0.05407   0.92704   0.04219   0.00000  Uiso   1.00
H535   H     0.08689   0.97863   0.04799   0.00000  Uiso   1.00
H536   H     0.07643   0.91548   0.12580   0.00000  Uiso   1.00
H537   H     0.04214   0.95845   0.11701   0.00000  Uiso   1.00
C538   C     0.25365   0.71890   0.21959   0.00000  Uiso   1.00
C539   C     0.24702   0.71968   0.27097   0.00000  Uiso   1.00
H540   H     0.27927   0.73962   0.29114   0.00000  Uiso   1.00
H541   H     0.21087   0.73243   0.27546   0.00000  Uiso   1.00
H542   H     0.24645   0.68803   0.28535   0.00000  Uiso   1.00
H543   H     0.29120   0.70822   0.21632   0.00000  Uiso   1.00
H544   H     0.25689   0.75119   0.20753   0.00000  Uiso   1.00
C545   C     0.09789   0.77305   0.03874   0.00000  Uiso   1.00
H546   H     0.05811   0.77508   0.02190   0.00000  Uiso   1.00
H547   H     0.10902   0.74162   0.03263   0.00000  Uiso   1.00
H548   H     0.09630   0.77610   0.07547   0.00000  Uiso   1.00
C549   C     0.23543   0.89363   0.29459   0.00000  Uiso   1.00
H550   H     0.23704   0.89057   0.25786   0.00000  Uiso   1.00
H551   H     0.22426   0.92505   0.30068   0.00000  Uiso   1.00
H552   H     0.27521   0.89163   0.31144   0.00000  Uiso   1.00
C553   C     0.09622   0.77376   0.27460   0.00000  Uiso   1.00
H554   H     0.09539   0.77456   0.23722   0.00000  Uiso   1.00
H555   H     0.10444   0.74191   0.28485   0.00000  Uiso   1.00
H556   H     0.05661   0.77832   0.27939   0.00000  Uiso   1.00
C557   C     0.23712   0.89290   0.05873   0.00000  Uiso   1.00
H558   H     0.23794   0.89211   0.09612   0.00000  Uiso   1.00
H559   H     0.27673   0.88834   0.05394   0.00000  Uiso   1.00
H560   H     0.22891   0.92475   0.04848   0.00000  Uiso   1.00
C561   C     0.50002   0.75434   0.16679   0.00000  Uiso   1.00
C562   C     0.49998   0.91233   0.16655   0.00000  Uiso   1.00
C563   C     0.40148   0.83258   0.15479   0.00000  Uiso   1.00
C564   C     0.59852   0.83409   0.17854   0.00000  Uiso   1.00
C565   C     0.34600   0.82674   0.14926   0.00000  Uiso   1.00
C566   C     0.65400   0.83993   0.18407   0.00000  Uiso   1.00
C567   C     0.45591   0.68463   0.14590   0.00000  Uiso   1.00
C568   C     0.54409   0.98204   0.18744   0.00000  Uiso   1.00
C569   C     0.45705   0.97473   0.14286   0.00000  Uiso   1.00
C570   C     0.54294   0.69194   0.19047   0.00000  Uiso   1.00
C571   C     0.50031   0.95710   0.16576   0.00000  Uiso   1.00
C572   C     0.49969   0.70957   0.16757   0.00000  Uiso   1.00
C573   C     0.46740   0.80543   0.01997   0.00000  Uiso   1.00
C574   C     0.53260   0.86124   0.31337   0.00000  Uiso   1.00
C575   C     0.46722   0.80548   0.30388   0.00000  Uiso   1.00
C576   C     0.53278   0.86119   0.02945   0.00000  Uiso   1.00
Cu577  Cu    0.50000   0.83334   0.21355   0.00000  Uiso   1.00
Cu578  Cu    0.50000   0.83333   0.11978   0.00000  Uiso   1.00
N579   N     0.50001   0.83334   0.28403   0.00000  Uiso   1.00
N580   N     0.49999   0.83332   0.04931   0.00000  Uiso   1.00
O581   O     0.50000   0.77322   0.20625   0.00000  Uiso   1.00
O582   O     0.50000   0.89345   0.12709   0.00000  Uiso   1.00
O583   O     0.50000   0.77321   0.12706   0.00000  Uiso   1.00
O584   O     0.50000   0.89346   0.20628   0.00000  Uiso   1.00
O585   O     0.42495   0.83334   0.19712   0.00000  Uiso   1.00
O586   O     0.57505   0.83333   0.13621   0.00000  Uiso   1.00
O587   O     0.42494   0.83333   0.11793   0.00000  Uiso   1.00
O588   O     0.57506   0.83334   0.21540   0.00000  Uiso   1.00
C589   C     0.65392   0.80112   0.10570   0.00000  Uiso   1.00
C590   C     0.63072   0.75808   0.11734   0.00000  Uiso   1.00
H591   H     0.65461   0.74525   0.14731   0.00000  Uiso   1.00
H592   H     0.59190   0.75921   0.12581   0.00000  Uiso   1.00
H593   H     0.62779   0.73669   0.08681   0.00000  Uiso   1.00
H594   H     0.62608   0.81791   0.08289   0.00000  Uiso   1.00
H595   H     0.34874   0.79572   0.08260   0.00000  Uiso   1.00
C596   C     0.34608   0.86554   0.22764   0.00000  Uiso   1.00
C597   C     0.36929   0.90859   0.21600   0.00000  Uiso   1.00
H598   H     0.34538   0.92142   0.18605   0.00000  Uiso   1.00
H599   H     0.37224   0.92997   0.24654   0.00000  Uiso   1.00
H600   H     0.40810   0.90745   0.20751   0.00000  Uiso   1.00
H601   H     0.65126   0.87094   0.25074   0.00000  Uiso   1.00
H602   H     0.37392   0.84875   0.25045   0.00000  Uiso   1.00
C603   C     0.40642   0.70331   0.12960   0.00000  Uiso   1.00
H604   H     0.40818   0.73684   0.13767   0.00000  Uiso   1.00
H605   H     0.39502   0.69864   0.09151   0.00000  Uiso   1.00
H606   H     0.37587   0.68853   0.14803   0.00000  Uiso   1.00
C607   C     0.59358   0.96335   0.20374   0.00000  Uiso   1.00
H608   H     0.59181   0.92983   0.19567   0.00000  Uiso   1.00
H609   H     0.60496   0.96802   0.24184   0.00000  Uiso   1.00
H610   H     0.62413   0.97814   0.18532   0.00000  Uiso   1.00
C611   C     0.41302   0.94777   0.11375   0.00000  Uiso   1.00
C612   C     0.41965   0.94699   0.06237   0.00000  Uiso   1.00
H613   H     0.45580   0.93423   0.05788   0.00000  Uiso   1.00
H614   H     0.38740   0.92704   0.04219   0.00000  Uiso   1.00
H615   H     0.42022   0.97863   0.04799   0.00000  Uiso   1.00
H616   H     0.40977   0.91548   0.12580   0.00000  Uiso   1.00
H617   H     0.37547   0.95845   0.11701   0.00000  Uiso   1.00
C618   C     0.58698   0.71890   0.21959   0.00000  Uiso   1.00
C619   C     0.58035   0.71968   0.27097   0.00000  Uiso   1.00
H620   H     0.61260   0.73962   0.29114   0.00000  Uiso   1.00
H621   H     0.54420   0.73243   0.27546   0.00000  Uiso   1.00
H622   H     0.57978   0.68803   0.28535   0.00000  Uiso   1.00
H623   H     0.62453   0.70822   0.21632   0.00000  Uiso   1.00
H624   H     0.59023   0.75119   0.20753   0.00000  Uiso   1.00
C625   C     0.43122   0.77305   0.03874   0.00000  Uiso   1.00
H626   H     0.39144   0.77508   0.02190   0.00000  Uiso   1.00
H627   H     0.44236   0.74162   0.03263   0.00000  Uiso   1.00
H628   H     0.42963   0.77610   0.07547   0.00000  Uiso   1.00
C629   C     0.56876   0.89363   0.29459   0.00000  Uiso   1.00
H630   H     0.57037   0.89057   0.25786   0.00000  Uiso   1.00
H631   H     0.55759   0.92505   0.30068   0.00000  Uiso   1.00
H632   H     0.60854   0.89163   0.31144   0.00000  Uiso   1.00
C633   C     0.42955   0.77376   0.27460   0.00000  Uiso   1.00
H634   H     0.42872   0.77456   0.23722   0.00000  Uiso   1.00
H635   H     0.43778   0.74191   0.28485   0.00000  Uiso   1.00
H636   H     0.38994   0.77832   0.27939   0.00000  Uiso   1.00
C637   C     0.57045   0.89290   0.05873   0.00000  Uiso   1.00
H638   H     0.57128   0.89211   0.09612   0.00000  Uiso   1.00
H639   H     0.61006   0.88834   0.05394   0.00000  Uiso   1.00
H640   H     0.56224   0.92475   0.04848   0.00000  Uiso   1.00
C641   C     0.83335   0.75434   0.16679   0.00000  Uiso   1.00
C642   C     0.83332   0.91233   0.16655   0.00000  Uiso   1.00
C643   C     0.73482   0.83258   0.15479   0.00000  Uiso   1.00
C644   C     0.93185   0.83409   0.17854   0.00000  Uiso   1.00
C645   C     0.67933   0.82674   0.14926   0.00000  Uiso   1.00
C646   C     0.98734   0.83993   0.18407   0.00000  Uiso   1.00
C647   C     0.78924   0.68463   0.14590   0.00000  Uiso   1.00
C648   C     0.87743   0.98204   0.18744   0.00000  Uiso   1.00
C649   C     0.79039   0.97473   0.14286   0.00000  Uiso   1.00
C650   C     0.87628   0.69194   0.19047   0.00000  Uiso   1.00
C651   C     0.83365   0.95710   0.16576   0.00000  Uiso   1.00
C652   C     0.83302   0.70957   0.16757   0.00000  Uiso   1.00
C653   C     0.80073   0.80543   0.01997   0.00000  Uiso   1.00
C654   C     0.86593   0.86124   0.31337   0.00000  Uiso   1.00
C655   C     0.80055   0.80548   0.30388   0.00000  Uiso   1.00
C656   C     0.86611   0.86119   0.02945   0.00000  Uiso   1.00
Cu657  Cu    0.83333   0.83334   0.21355   0.00000  Uiso   1.00
Cu658  Cu    0.83333   0.83333   0.11978   0.00000  Uiso   1.00
N659   N     0.83335   0.83334   0.28403   0.00000  Uiso   1.00
N660   N     0.83332   0.83332   0.04931   0.00000  Uiso   1.00
O661   O     0.83333   0.77322   0.20625   0.00000  Uiso   1.00
O662   O     0.83334   0.89345   0.12709   0.00000  Uiso   1.00
O663   O     0.83333   0.77321   0.12706   0.00000  Uiso   1.00
O664   O     0.83334   0.89346   0.20628   0.00000  Uiso   1.00
O665   O     0.75828   0.83334   0.19712   0.00000  Uiso   1.00
O666   O     0.90839   0.83333   0.13621   0.00000  Uiso   1.00
O667   O     0.75828   0.83333   0.11793   0.00000  Uiso   1.00
O668   O     0.90839   0.83334   0.21540   0.00000  Uiso   1.00
C669   C     0.98725   0.80112   0.10570   0.00000  Uiso   1.00
C670   C     0.96405   0.75808   0.11734   0.00000  Uiso   1.00
H671   H     0.98794   0.74525   0.14731   0.00000  Uiso   1.00
H672   H     0.92523   0.75921   0.12581   0.00000  Uiso   1.00
H673   H     0.96112   0.73669   0.08681   0.00000  Uiso   1.00
H674   H     0.95941   0.81791   0.08289   0.00000  Uiso   1.00
H675   H     0.68208   0.79572   0.08260   0.00000  Uiso   1.00
C676   C     0.67942   0.86554   0.22764   0.00000  Uiso   1.00
C677   C     0.70262   0.90859   0.21600   0.00000  Uiso   1.00
H678   H     0.67872   0.92142   0.18605   0.00000  Uiso   1.00
H679   H     0.70557   0.92997   0.24654   0.00000  Uiso   1.00
H680   H     0.74143   0.90745   0.20751   0.00000  Uiso   1.00
H681   H     0.98459   0.87094   0.25074   0.00000  Uiso   1.00
H682   H     0.70726   0.84875   0.25045   0.00000  Uiso   1.00
C683   C     0.73975   0.70331   0.12960   0.00000  Uiso   1.00
H684   H     0.74152   0.73684   0.13767   0.00000  Uiso   1.00
H685   H     0.72835   0.69864   0.09151   0.00000  Uiso   1.00
H686   H     0.70920   0.68853   0.14803   0.00000  Uiso   1.00
C687   C     0.92691   0.96335   0.20374   0.00000  Uiso   1.00
H688   H     0.92515   0.92983   0.19567   0.00000  Uiso   1.00
H689   H     0.93830   0.96802   0.24184   0.00000  Uiso   1.00
H690   H     0.95747   0.97814   0.18532   0.00000  Uiso   1.00
C691   C     0.74635   0.94777   0.11375   0.00000  Uiso   1.00
C692   C     0.75298   0.94699   0.06237   0.00000  Uiso   1.00
H693   H     0.78914   0.93423   0.05788   0.00000  Uiso   1.00
H694   H     0.72074   0.92704   0.04219   0.00000  Uiso   1.00
H695   H     0.75355   0.97863   0.04799   0.00000  Uiso   1.00
H696   H     0.74310   0.91548   0.12580   0.00000  Uiso   1.00
H697   H     0.70880   0.95845   0.11701   0.00000  Uiso   1.00
C698   C     0.92031   0.71890   0.21959   0.00000  Uiso   1.00
C699   C     0.91369   0.71968   0.27097   0.00000  Uiso   1.00
H700   H     0.94593   0.73962   0.29114   0.00000  Uiso   1.00
H701   H     0.87753   0.73243   0.27546   0.00000  Uiso   1.00
H702   H     0.91311   0.68803   0.28535   0.00000  Uiso   1.00
H703   H     0.95786   0.70822   0.21632   0.00000  Uiso   1.00
H704   H     0.92356   0.75119   0.20753   0.00000  Uiso   1.00
C705   C     0.76456   0.77305   0.03874   0.00000  Uiso   1.00
H706   H     0.72478   0.77508   0.02190   0.00000  Uiso   1.00
H707   H     0.77569   0.74162   0.03263   0.00000  Uiso   1.00
H708   H     0.76297   0.77610   0.07547   0.00000  Uiso   1.00
C709   C     0.90209   0.89363   0.29459   0.00000  Uiso   1.00
H710   H     0.90370   0.89057   0.25786   0.00000  Uiso   1.00
H711   H     0.89093   0.92505   0.30068   0.00000  Uiso   1.00
H712   H     0.94187   0.89163   0.31144   0.00000  Uiso   1.00
C713   C     0.76289   0.77376   0.27460   0.00000  Uiso   1.00
H714   H     0.76206   0.77456   0.23722   0.00000  Uiso   1.00
H715   H     0.77111   0.74191   0.28485   0.00000  Uiso   1.00
H716   H     0.72327   0.77832   0.27939   0.00000  Uiso   1.00
C717   C     0.90378   0.89290   0.05873   0.00000  Uiso   1.00
H718   H     0.90461   0.89211   0.09612   0.00000  Uiso   1.00
H719   H     0.94340   0.88834   0.05394   0.00000  Uiso   1.00
H720   H     0.89557   0.92475   0.04848   0.00000  Uiso   1.00
C721   C     0.16668   0.08767   0.50012   0.00000  Uiso   1.00
C722   C     0.16665   0.24566   0.49988   0.00000  Uiso   1.00
C723   C     0.06815   0.16591   0.48812   0.00000  Uiso   1.00
C724   C     0.26518   0.16742   0.51188   0.00000  Uiso   1.00
C725   C     0.01266   0.16007   0.48259   0.00000  Uiso   1.00
C726   C     0.32067   0.17326   0.51741   0.00000  Uiso   1.00
C727   C     0.12257   0.01796   0.47923   0.00000  Uiso   1.00
C728   C     0.21076   0.31537   0.52077   0.00000  Uiso   1.00
C729   C     0.12372   0.30806   0.47619   0.00000  Uiso   1.00
C730   C     0.20961   0.02527   0.52381   0.00000  Uiso   1.00
C731   C     0.16698   0.29043   0.49909   0.00000  Uiso   1.00
C732   C     0.16635   0.04290   0.50091   0.00000  Uiso   1.00
C733   C     0.13407   0.13876   0.35330   0.00000  Uiso   1.00
C734   C     0.19927   0.19457   0.64670   0.00000  Uiso   1.00
C735   C     0.13389   0.13881   0.63722   0.00000  Uiso   1.00
C736   C     0.19945   0.19452   0.36278   0.00000  Uiso   1.00
Cu737  Cu    0.16667   0.16667   0.54689   0.00000  Uiso   1.00
Cu738  Cu    0.16667   0.16666   0.45311   0.00000  Uiso   1.00
N739   N     0.16668   0.16668   0.61736   0.00000  Uiso   1.00
N740   N     0.16665   0.16666   0.38264   0.00000  Uiso   1.00
O741   O     0.16666   0.10655   0.53958   0.00000  Uiso   1.00
O742   O     0.16667   0.22678   0.46042   0.00000  Uiso   1.00
O743   O     0.16666   0.10654   0.46039   0.00000  Uiso   1.00
O744   O     0.16667   0.22679   0.53961   0.00000  Uiso   1.00
O745   O     0.09161   0.16667   0.53046   0.00000  Uiso   1.00
O746   O     0.24172   0.16666   0.46954   0.00000  Uiso   1.00
O747   O     0.09161   0.16666   0.45127   0.00000  Uiso   1.00
O748   O     0.24172   0.16667   0.54873   0.00000  Uiso   1.00
C749   C     0.32058   0.13446   0.43903   0.00000  Uiso   1.00
C750   C     0.29739   0.09141   0.45067   0.00000  Uiso   1.00
H751   H     0.32128   0.07859   0.48064   0.00000  Uiso   1.00
H752   H     0.25856   0.09255   0.45914   0.00000  Uiso   1.00
H753   H     0.29446   0.07002   0.42014   0.00000  Uiso   1.00
H754   H     0.29274   0.15124   0.41622   0.00000  Uiso   1.00
H755   H     0.01541   0.12906   0.41593   0.00000  Uiso   1.00
C756   C     0.01275   0.19887   0.56097   0.00000  Uiso   1.00
C757   C     0.03595   0.24192   0.54934   0.00000  Uiso   1.00
H758   H     0.01205   0.25476   0.51938   0.00000  Uiso   1.00
H759   H     0.03890   0.26330   0.57987   0.00000  Uiso   1.00
H760   H     0.07477   0.24078   0.54085   0.00000  Uiso   1.00
H761   H     0.31792   0.20427   0.58408   0.00000  Uiso   1.00
H762   H     0.04059   0.18209   0.58378   0.00000  Uiso   1.00
C763   C     0.07308   0.03665   0.46293   0.00000  Uiso   1.00
H764   H     0.07485   0.07017   0.47100   0.00000  Uiso   1.00
H765   H     0.06168   0.03197   0.42484   0.00000  Uiso   1.00
H766   H     0.04254   0.02186   0.48137   0.00000  Uiso   1.00
C767   C     0.26025   0.29669   0.53708   0.00000  Uiso   1.00
H768   H     0.25848   0.26316   0.52900   0.00000  Uiso   1.00
H769   H     0.27163   0.30135   0.57517   0.00000  Uiso   1.00
H770   H     0.29080   0.31147   0.51866   0.00000  Uiso   1.00
C771   C     0.07969   0.28111   0.44708   0.00000  Uiso   1.00
C772   C     0.08632   0.28032   0.39570   0.00000  Uiso   1.00
H773   H     0.12247   0.26757   0.39121   0.00000  Uiso   1.00
H774   H     0.05407   0.26037   0.37553   0.00000  Uiso   1.00
H775   H     0.08689   0.31197   0.38132   0.00000  Uiso   1.00
H776   H     0.07643   0.24881   0.45914   0.00000  Uiso   1.00
H777   H     0.04214   0.29178   0.45034   0.00000  Uiso   1.00
C778   C     0.25365   0.05223   0.55292   0.00000  Uiso   1.00
C779   C     0.24702   0.05301   0.60430   0.00000  Uiso   1.00
H780   H     0.27927   0.07296   0.62447   0.00000  Uiso   1.00
H781   H     0.21087   0.06577   0.60879   0.00000  Uiso   1.00
H782   H     0.24645   0.02136   0.61868   0.00000  Uiso   1.00
H783   H     0.29120   0.04155   0.54965   0.00000  Uiso   1.00
H784   H     0.25689   0.08452   0.54087   0.00000  Uiso   1.00
C785   C     0.09789   0.10638   0.37208   0.00000  Uiso   1.00
H786   H     0.05811   0.10841   0.35523   0.00000  Uiso   1.00
H787   H     0.10902   0.07495   0.36596   0.00000  Uiso   1.00
H788   H     0.09630   0.10943   0.40881   0.00000  Uiso   1.00
C789   C     0.23543   0.22696   0.62792   0.00000  Uiso   1.00
H790   H     0.23704   0.22390   0.59120   0.00000  Uiso   1.00
H791   H     0.22426   0.25839   0.63401   0.00000  Uiso   1.00
H792   H     0.27521   0.22496   0.64477   0.00000  Uiso   1.00
C793   C     0.09622   0.10709   0.60793   0.00000  Uiso   1.00
H794   H     0.09539   0.10789   0.57055   0.00000  Uiso   1.00
H795   H     0.10444   0.07525   0.61818   0.00000  Uiso   1.00
H796   H     0.05661   0.11165   0.61273   0.00000  Uiso   1.00
C797   C     0.23712   0.22624   0.39207   0.00000  Uiso   1.00
H798   H     0.23794   0.22545   0.42945   0.00000  Uiso   1.00
H799   H     0.27673   0.22167   0.38728   0.00000  Uiso   1.00
H800   H     0.22891   0.25808   0.38181   0.00000  Uiso   1.00
C801   C     0.50002   0.08767   0.50012   0.00000  Uiso   1.00
C802   C     0.49998   0.24566   0.49988   0.00000  Uiso   1.00
C803   C     0.40148   0.16591   0.48812   0.00000  Uiso   1.00
C804   C     0.59852   0.16742   0.51188   0.00000  Uiso   1.00
C805   C     0.34600   0.16007   0.48259   0.00000  Uiso   1.00
C806   C     0.65400   0.17326   0.51741   0.00000  Uiso   1.00
C807   C     0.45591   0.01796   0.47923   0.00000  Uiso   1.00
C808   C     0.54409   0.31537   0.52077   0.00000  Uiso   1.00
C809   C     0.45705   0.30806   0.47619   0.00000  Uiso   1.00
C810   C     0.54294   0.02527   0.52381   0.00000  Uiso   1.00
C811   C     0.50031   0.29043   0.49909   0.00000  Uiso   1.00
C812   C     0.49969   0.04290   0.50091   0.00000  Uiso   1.00
C813   C     0.46740   0.13876   0.35330   0.00000  Uiso   1.00
C814   C     0.53260   0.19457   0.64670   0.00000  Uiso   1.00
C815   C     0.46722   0.13881   0.63722   0.00000  Uiso   1.00
C816   C     0.53278   0.19452   0.36278   0.00000  Uiso   1.00
Cu817  Cu    0.50000   0.16667   0.54689   0.00000  Uiso   1.00
Cu818  Cu    0.50000   0.16666   0.45311   0.00000  Uiso   1.00
N819   N     0.50001   0.16668   0.61736   0.00000  Uiso   1.00
N820   N     0.49999   0.16666   0.38264   0.00000  Uiso   1.00
O821   O     0.50000   0.10655   0.53958   0.00000  Uiso   1.00
O822   O     0.50000   0.22678   0.46042   0.00000  Uiso   1.00
O823   O     0.50000   0.10654   0.46039   0.00000  Uiso   1.00
O824   O     0.50000   0.22679   0.53961   0.00000  Uiso   1.00
O825   O     0.42495   0.16667   0.53046   0.00000  Uiso   1.00
O826   O     0.57505   0.16666   0.46954   0.00000  Uiso   1.00
O827   O     0.42494   0.16666   0.45127   0.00000  Uiso   1.00
O828   O     0.57506   0.16667   0.54873   0.00000  Uiso   1.00
C829   C     0.65392   0.13446   0.43903   0.00000  Uiso   1.00
C830   C     0.63072   0.09141   0.45067   0.00000  Uiso   1.00
H831   H     0.65461   0.07859   0.48064   0.00000  Uiso   1.00
H832   H     0.59190   0.09255   0.45914   0.00000  Uiso   1.00
H833   H     0.62779   0.07002   0.42014   0.00000  Uiso   1.00
H834   H     0.62608   0.15124   0.41622   0.00000  Uiso   1.00
H835   H     0.34874   0.12906   0.41593   0.00000  Uiso   1.00
C836   C     0.34608   0.19887   0.56097   0.00000  Uiso   1.00
C837   C     0.36929   0.24192   0.54934   0.00000  Uiso   1.00
H838   H     0.34538   0.25476   0.51938   0.00000  Uiso   1.00
H839   H     0.37224   0.26330   0.57987   0.00000  Uiso   1.00
H840   H     0.40810   0.24078   0.54085   0.00000  Uiso   1.00
H841   H     0.65126   0.20427   0.58408   0.00000  Uiso   1.00
H842   H     0.37392   0.18209   0.58378   0.00000  Uiso   1.00
C843   C     0.40642   0.03665   0.46293   0.00000  Uiso   1.00
H844   H     0.40818   0.07017   0.47100   0.00000  Uiso   1.00
H845   H     0.39502   0.03197   0.42484   0.00000  Uiso   1.00
H846   H     0.37587   0.02186   0.48137   0.00000  Uiso   1.00
C847   C     0.59358   0.29669   0.53708   0.00000  Uiso   1.00
H848   H     0.59181   0.26316   0.52900   0.00000  Uiso   1.00
H849   H     0.60496   0.30135   0.57517   0.00000  Uiso   1.00
H850   H     0.62413   0.31147   0.51866   0.00000  Uiso   1.00
C851   C     0.41302   0.28111   0.44708   0.00000  Uiso   1.00
C852   C     0.41965   0.28032   0.39570   0.00000  Uiso   1.00
H853   H     0.45580   0.26757   0.39121   0.00000  Uiso   1.00
H854   H     0.38740   0.26037   0.37553   0.00000  Uiso   1.00
H855   H     0.42022   0.31197   0.38132   0.00000  Uiso   1.00
H856   H     0.40977   0.24881   0.45914   0.00000  Uiso   1.00
H857   H     0.37547   0.29178   0.45034   0.00000  Uiso   1.00
C858   C     0.58698   0.05223   0.55292   0.00000  Uiso   1.00
C859   C     0.58035   0.05301   0.60430   0.00000  Uiso   1.00
H860   H     0.61260   0.07296   0.62447   0.00000  Uiso   1.00
H861   H     0.54420   0.06577   0.60879   0.00000  Uiso   1.00
H862   H     0.57978   0.02136   0.61868   0.00000  Uiso   1.00
H863   H     0.62453   0.04155   0.54965   0.00000  Uiso   1.00
H864   H     0.59023   0.08452   0.54087   0.00000  Uiso   1.00
C865   C     0.43122   0.10638   0.37208   0.00000  Uiso   1.00
H866   H     0.39144   0.10841   0.35523   0.00000  Uiso   1.00
H867   H     0.44236   0.07495   0.36596   0.00000  Uiso   1.00
H868   H     0.42963   0.10943   0.40881   0.00000  Uiso   1.00
C869   C     0.56876   0.22696   0.62792   0.00000  Uiso   1.00
H870   H     0.57037   0.22390   0.59120   0.00000  Uiso   1.00
H871   H     0.55759   0.25839   0.63401   0.00000  Uiso   1.00
H872   H     0.60854   0.22496   0.64477   0.00000  Uiso   1.00
C873   C     0.42955   0.10709   0.60793   0.00000  Uiso   1.00
H874   H     0.42872   0.10789   0.57055   0.00000  Uiso   1.00
H875   H     0.43778   0.07525   0.61818   0.00000  Uiso   1.00
H876   H     0.38994   0.11165   0.61273   0.00000  Uiso   1.00
C877   C     0.57045   0.22624   0.39207   0.00000  Uiso   1.00
H878   H     0.57128   0.22545   0.42945   0.00000  Uiso   1.00
H879   H     0.61006   0.22167   0.38728   0.00000  Uiso   1.00
H880   H     0.56224   0.25808   0.38181   0.00000  Uiso   1.00
C881   C     0.83335   0.08767   0.50012   0.00000  Uiso   1.00
C882   C     0.83332   0.24566   0.49988   0.00000  Uiso   1.00
C883   C     0.73482   0.16591   0.48812   0.00000  Uiso   1.00
C884   C     0.93185   0.16742   0.51188   0.00000  Uiso   1.00
C885   C     0.67933   0.16007   0.48259   0.00000  Uiso   1.00
C886   C     0.98734   0.17326   0.51741   0.00000  Uiso   1.00
C887   C     0.78924   0.01796   0.47923   0.00000  Uiso   1.00
C888   C     0.87743   0.31537   0.52077   0.00000  Uiso   1.00
C889   C     0.79039   0.30806   0.47619   0.00000  Uiso   1.00
C890   C     0.87628   0.02527   0.52381   0.00000  Uiso   1.00
C891   C     0.83365   0.29043   0.49909   0.00000  Uiso   1.00
C892   C     0.83302   0.04290   0.50091   0.00000  Uiso   1.00
C893   C     0.80073   0.13876   0.35330   0.00000  Uiso   1.00
C894   C     0.86593   0.19457   0.64670   0.00000  Uiso   1.00
C895   C     0.80055   0.13881   0.63722   0.00000  Uiso   1.00
C896   C     0.86611   0.19452   0.36278   0.00000  Uiso   1.00
Cu897  Cu    0.83333   0.16667   0.54689   0.00000  Uiso   1.00
Cu898  Cu    0.83333   0.16666   0.45311   0.00000  Uiso   1.00
N899   N     0.83335   0.16668   0.61736   0.00000  Uiso   1.00
N900   N     0.83332   0.16666   0.38264   0.00000  Uiso   1.00
O901   O     0.83333   0.10655   0.53958   0.00000  Uiso   1.00
O902   O     0.83334   0.22678   0.46042   0.00000  Uiso   1.00
O903   O     0.83333   0.10654   0.46039   0.00000  Uiso   1.00
O904   O     0.83334   0.22679   0.53961   0.00000  Uiso   1.00
O905   O     0.75828   0.16667   0.53046   0.00000  Uiso   1.00
O906   O     0.90839   0.16666   0.46954   0.00000  Uiso   1.00
O907   O     0.75828   0.16666   0.45127   0.00000  Uiso   1.00
O908   O     0.90839   0.16667   0.54873   0.00000  Uiso   1.00
C909   C     0.98725   0.13446   0.43903   0.00000  Uiso   1.00
C910   C     0.96405   0.09141   0.45067   0.00000  Uiso   1.00
H911   H     0.98794   0.07859   0.48064   0.00000  Uiso   1.00
H912   H     0.92523   0.09255   0.45914   0.00000  Uiso   1.00
H913   H     0.96112   0.07002   0.42014   0.00000  Uiso   1.00
H914   H     0.95941   0.15124   0.41622   0.00000  Uiso   1.00
H915   H     0.68208   0.12906   0.41593   0.00000  Uiso   1.00
C916   C     0.67942   0.19887   0.56097   0.00000  Uiso   1.00
C917   C     0.70262   0.24192   0.54934   0.00000  Uiso   1.00
H918   H     0.67872   0.25476   0.51938   0.00000  Uiso   1.00
H919   H     0.70557   0.26330   0.57987   0.00000  Uiso   1.00
H920   H     0.74143   0.24078   0.54085   0.00000  Uiso   1.00
H921   H     0.98459   0.20427   0.58408   0.00000  Uiso   1.00
H922   H     0.70726   0.18209   0.58378   0.00000  Uiso   1.00
C923   C     0.73975   0.03665   0.46293   0.00000  Uiso   1.00
H924   H     0.74152   0.07017   0.47100   0.00000  Uiso   1.00
H925   H     0.72835   0.03197   0.42484   0.00000  Uiso   1.00
H926   H     0.70920   0.02186   0.48137   0.00000  Uiso   1.00
C927   C     0.92691   0.29669   0.53708   0.00000  Uiso   1.00
H928   H     0.92515   0.26316   0.52900   0.00000  Uiso   1.00
H929   H     0.93830   0.30135   0.57517   0.00000  Uiso   1.00
H930   H     0.95747   0.31147   0.51866   0.00000  Uiso   1.00
C931   C     0.74635   0.28111   0.44708   0.00000  Uiso   1.00
C932   C     0.75298   0.28032   0.39570   0.00000  Uiso   1.00
H933   H     0.78914   0.26757   0.39121   0.00000  Uiso   1.00
H934   H     0.72074   0.26037   0.37553   0.00000  Uiso   1.00
H935   H     0.75355   0.31197   0.38132   0.00000  Uiso   1.00
H936   H     0.74310   0.24881   0.45914   0.00000  Uiso   1.00
H937   H     0.70880   0.29178   0.45034   0.00000  Uiso   1.00
C938   C     0.92031   0.05223   0.55292   0.00000  Uiso   1.00
C939   C     0.91369   0.05301   0.60430   0.00000  Uiso   1.00
H940   H     0.94593   0.07296   0.62447   0.00000  Uiso   1.00
H941   H     0.87753   0.06577   0.60879   0.00000  Uiso   1.00
H942   H     0.91311   0.02136   0.61868   0.00000  Uiso   1.00
H943   H     0.95786   0.04155   0.54965   0.00000  Uiso   1.00
H944   H     0.92356   0.08452   0.54087   0.00000  Uiso   1.00
C945   C     0.76456   0.10638   0.37208   0.00000  Uiso   1.00
H946   H     0.72478   0.10841   0.35523   0.00000  Uiso   1.00
H947   H     0.77569   0.07495   0.36596   0.00000  Uiso   1.00
H948   H     0.76297   0.10943   0.40881   0.00000  Uiso   1.00
C949   C     0.90209   0.22696   0.62792   0.00000  Uiso   1.00
H950   H     0.90370   0.22390   0.59120   0.00000  Uiso   1.00
H951   H     0.89093   0.25839   0.63401   0.00000  Uiso   1.00
H952   H     0.94187   0.22496   0.64477   0.00000  Uiso   1.00
C953   C     0.76289   0.10709   0.60793   0.00000  Uiso   1.00
H954   H     0.76206   0.10789   0.57055   0.00000  Uiso   1.00
H955   H     0.77111   0.07525   0.61818   0.00000  Uiso   1.00
H956   H     0.72327   0.11165   0.61273   0.00000  Uiso   1.00
C957   C     0.90378   0.22624   0.39207   0.00000  Uiso   1.00
H958   H     0.90461   0.22545   0.42945   0.00000  Uiso   1.00
H959   H     0.94340   0.22167   0.38728   0.00000  Uiso   1.00
H960   H     0.89557   0.25808   0.38181   0.00000  Uiso   1.00
C961   C     0.16668   0.42100   0.50012   0.00000  Uiso   1.00
C962   C     0.16665   0.57900   0.49988   0.00000  Uiso   1.00
C963   C     0.06815   0.49924   0.48812   0.00000  Uiso   1.00
C964   C     0.26518   0.50076   0.51188   0.00000  Uiso   1.00
C965   C     0.01266   0.49341   0.48259   0.00000  Uiso   1.00
C966   C     0.32067   0.50659   0.51741   0.00000  Uiso   1.00
C967   C     0.12257   0.35130   0.47923   0.00000  Uiso   1.00
C968   C     0.21076   0.64871   0.52077   0.00000  Uiso   1.00
C969   C     0.12372   0.64139   0.47619   0.00000  Uiso   1.00
C970   C     0.20961   0.35861   0.52381   0.00000  Uiso   1.00
C971   C     0.16698   0.62376   0.49909   0.00000  Uiso   1.00
C972   C     0.16635   0.37624   0.50091   0.00000  Uiso   1.00
C973   C     0.13407   0.47210   0.35330   0.00000  Uiso   1.00
C974   C     0.19927   0.52791   0.64670   0.00000  Uiso   1.00
C975   C     0.13389   0.47214   0.63722   0.00000  Uiso   1.00
C976   C     0.19945   0.52786   0.36278   0.00000  Uiso   1.00
Cu977  Cu    0.16667   0.50001   0.54689   0.00000  Uiso   1.00
Cu978  Cu    0.16667   0.49999   0.45311   0.00000  Uiso   1.00
N979   N     0.16668   0.50001   0.61736   0.00000  Uiso   1.00
N980   N     0.16665   0.49999   0.38264   0.00000  Uiso   1.00
O981   O     0.16666   0.43989   0.53958   0.00000  Uiso   1.00
O982   O     0.16667   0.56011   0.46042   0.00000  Uiso   1.00
O983   O     0.16666   0.43988   0.46039   0.00000  Uiso   1.00
O984   O     0.16667   0.56012   0.53961   0.00000  Uiso   1.00
O985   O     0.09161   0.50000   0.53046   0.00000  Uiso   1.00
O986   O     0.24172   0.50000   0.46954   0.00000  Uiso   1.00
O987   O     0.09161   0.49999   0.45127   0.00000  Uiso   1.00
O988   O     0.24172   0.50001   0.54873   0.00000  Uiso   1.00
C989   C     0.32058   0.46779   0.43903   0.00000  Uiso   1.00
C990   C     0.29739   0.42474   0.45067   0.00000  Uiso   1.00
H991   H     0.32128   0.41192   0.48064   0.00000  Uiso   1.00
H992   H     0.25856   0.42588   0.45914   0.00000  Uiso   1.00
H993   H     0.29446   0.40336   0.42014   0.00000  Uiso   1.00
H994   H     0.29274   0.48457   0.41622   0.00000  Uiso   1.00
H995   H     0.01541   0.46239   0.41593   0.00000  Uiso   1.00
C996   C     0.01275   0.53221   0.56097   0.00000  Uiso   1.00
C997   C     0.03595   0.57525   0.54934   0.00000  Uiso   1.00
H998   H     0.01205   0.58809   0.51938   0.00000  Uiso   1.00
H999   H     0.03890   0.59663   0.57987   0.00000  Uiso   1.00
H1000  H     0.07477   0.57412   0.54085   0.00000  Uiso   1.00
H1001  H     0.31792   0.53761   0.58408   0.00000  Uiso   1.00
H1002  H     0.04059   0.51542   0.58378   0.00000  Uiso   1.00
C1003  C     0.07308   0.36998   0.46293   0.00000  Uiso   1.00
H1004  H     0.07485   0.40350   0.47100   0.00000  Uiso   1.00
H1005  H     0.06168   0.36531   0.42484   0.00000  Uiso   1.00
H1006  H     0.04254   0.35520   0.48137   0.00000  Uiso   1.00
C1007  C     0.26025   0.63002   0.53708   0.00000  Uiso   1.00
H1008  H     0.25848   0.59650   0.52900   0.00000  Uiso   1.00
H1009  H     0.27163   0.63469   0.57517   0.00000  Uiso   1.00
H1010  H     0.29080   0.64481   0.51866   0.00000  Uiso   1.00
C1011  C     0.07969   0.61444   0.44708   0.00000  Uiso   1.00
C1012  C     0.08632   0.61366   0.39570   0.00000  Uiso   1.00
H1013  H     0.12247   0.60090   0.39121   0.00000  Uiso   1.00
H1014  H     0.05407   0.59371   0.37553   0.00000  Uiso   1.00
H1015  H     0.08689   0.64530   0.38132   0.00000  Uiso   1.00
H1016  H     0.07643   0.58215   0.45914   0.00000  Uiso   1.00
H1017  H     0.04214   0.62512   0.45034   0.00000  Uiso   1.00
C1018  C     0.25365   0.38556   0.55292   0.00000  Uiso   1.00
C1019  C     0.24702   0.38634   0.60430   0.00000  Uiso   1.00
H1020  H     0.27927   0.40629   0.62447   0.00000  Uiso   1.00
H1021  H     0.21087   0.39910   0.60879   0.00000  Uiso   1.00
H1022  H     0.24645   0.35470   0.61868   0.00000  Uiso   1.00
H1023  H     0.29120   0.37489   0.54965   0.00000  Uiso   1.00
H1024  H     0.25689   0.41785   0.54087   0.00000  Uiso   1.00
C1025  C     0.09789   0.43972   0.37208   0.00000  Uiso   1.00
H1026  H     0.05811   0.44175   0.35523   0.00000  Uiso   1.00
H1027  H     0.10902   0.40828   0.36596   0.00000  Uiso   1.00
H1028  H     0.09630   0.44276   0.40881   0.00000  Uiso   1.00
C1029  C     0.23543   0.56029   0.62792   0.00000  Uiso   1.00
H1030  H     0.23704   0.55723   0.59120   0.00000  Uiso   1.00
H1031  H     0.22426   0.59172   0.63401   0.00000  Uiso   1.00
H1032  H     0.27521   0.55829   0.64477   0.00000  Uiso   1.00
C1033  C     0.09622   0.44043   0.60793   0.00000  Uiso   1.00
H1034  H     0.09539   0.44122   0.57055   0.00000  Uiso   1.00
H1035  H     0.10444   0.40858   0.61818   0.00000  Uiso   1.00
H1036  H     0.05661   0.44498   0.61273   0.00000  Uiso   1.00
C1037  C     0.23712   0.55957   0.39207   0.00000  Uiso   1.00
H1038  H     0.23794   0.55878   0.42945   0.00000  Uiso   1.00
H1039  H     0.27673   0.55501   0.38728   0.00000  Uiso   1.00
H1040  H     0.22891   0.59142   0.38181   0.00000  Uiso   1.00
C1041  C     0.50002   0.42100   0.50012   0.00000  Uiso   1.00
C1042  C     0.49998   0.57900   0.49988   0.00000  Uiso   1.00
C1043  C     0.40148   0.49924   0.48812   0.00000  Uiso   1.00
C1044  C     0.59852   0.50076   0.51188   0.00000  Uiso   1.00
C1045  C     0.34600   0.49341   0.48259   0.00000  Uiso   1.00
C1046  C     0.65400   0.50659   0.51741   0.00000  Uiso   1.00
C1047  C     0.45591   0.35130   0.47923   0.00000  Uiso   1.00
C1048  C     0.54409   0.64871   0.52077   0.00000  Uiso   1.00
C1049  C     0.45705   0.64139   0.47619   0.00000  Uiso   1.00
C1050  C     0.54294   0.35861   0.52381   0.00000  Uiso   1.00
C1051  C     0.50031   0.62376   0.49909   0.00000  Uiso   1.00
C1052  C     0.49969   0.37624   0.50091   0.00000  Uiso   1.00
C1053  C     0.46740   0.47210   0.35330   0.00000  Uiso   1.00
C1054  C     0.53260   0.52791   0.64670   0.00000  Uiso   1.00
C1055  C     0.46722   0.47214   0.63722   0.00000  Uiso   1.00
C1056  C     0.53278   0.52786   0.36278   0.00000  Uiso   1.00
Cu1057 Cu    0.50000   0.50001   0.54689   0.00000  Uiso   1.00
Cu1058 Cu    0.50000   0.49999   0.45311   0.00000  Uiso   1.00
N1059  N     0.50001   0.50001   0.61736   0.00000  Uiso   1.00
N1060  N     0.49999   0.49999   0.38264   0.00000  Uiso   1.00
O1061  O     0.50000   0.43989   0.53958   0.00000  Uiso   1.00
O1062  O     0.50000   0.56011   0.46042   0.00000  Uiso   1.00
O1063  O     0.50000   0.43988   0.46039   0.00000  Uiso   1.00
O1064  O     0.50000   0.56012   0.53961   0.00000  Uiso   1.00
O1065  O     0.42495   0.50000   0.53046   0.00000  Uiso   1.00
O1066  O     0.57505   0.50000   0.46954   0.00000  Uiso   1.00
O1067  O     0.42494   0.49999   0.45127   0.00000  Uiso   1.00
O1068  O     0.57506   0.50001   0.54873   0.00000  Uiso   1.00
C1069  C     0.65392   0.46779   0.43903   0.00000  Uiso   1.00
C1070  C     0.63072   0.42474   0.45067   0.00000  Uiso   1.00
H1071  H     0.65461   0.41192   0.48064   0.00000  Uiso   1.00
H1072  H     0.59190   0.42588   0.45914   0.00000  Uiso   1.00
H1073  H     0.62779   0.40336   0.42014   0.00000  Uiso   1.00
H1074  H     0.62608   0.48457   0.41622   0.00000  Uiso   1.00
H1075  H     0.34874   0.46239   0.41593   0.00000  Uiso   1.00
C1076  C     0.34608   0.53221   0.56097   0.00000  Uiso   1.00
C1077  C     0.36929   0.57525   0.54934   0.00000  Uiso   1.00
H1078  H     0.34538   0.58809   0.51938   0.00000  Uiso   1.00
H1079  H     0.37224   0.59663   0.57987   0.00000  Uiso   1.00
H1080  H     0.40810   0.57412   0.54085   0.00000  Uiso   1.00
H1081  H     0.65126   0.53761   0.58408   0.00000  Uiso   1.00
H1082  H     0.37392   0.51542   0.58378   0.00000  Uiso   1.00
C1083  C     0.40642   0.36998   0.46293   0.00000  Uiso   1.00
H1084  H     0.40818   0.40350   0.47100   0.00000  Uiso   1.00
H1085  H     0.39502   0.36531   0.42484   0.00000  Uiso   1.00
H1086  H     0.37587   0.35520   0.48137   0.00000  Uiso   1.00
C1087  C     0.59358   0.63002   0.53708   0.00000  Uiso   1.00
H1088  H     0.59181   0.59650   0.52900   0.00000  Uiso   1.00
H1089  H     0.60496   0.63469   0.57517   0.00000  Uiso   1.00
H1090  H     0.62413   0.64481   0.51866   0.00000  Uiso   1.00
C1091  C     0.41302   0.61444   0.44708   0.00000  Uiso   1.00
C1092  C     0.41965   0.61366   0.39570   0.00000  Uiso   1.00
H1093  H     0.45580   0.60090   0.39121   0.00000  Uiso   1.00
H1094  H     0.38740   0.59371   0.37553   0.00000  Uiso   1.00
H1095  H     0.42022   0.64530   0.38132   0.00000  Uiso   1.00
H1096  H     0.40977   0.58215   0.45914   0.00000  Uiso   1.00
H1097  H     0.37547   0.62512   0.45034   0.00000  Uiso   1.00
C1098  C     0.58698   0.38556   0.55292   0.00000  Uiso   1.00
C1099  C     0.58035   0.38634   0.60430   0.00000  Uiso   1.00
H1100  H     0.61260   0.40629   0.62447   0.00000  Uiso   1.00
H1101  H     0.54420   0.39910   0.60879   0.00000  Uiso   1.00
H1102  H     0.57978   0.35470   0.61868   0.00000  Uiso   1.00
H1103  H     0.62453   0.37489   0.54965   0.00000  Uiso   1.00
H1104  H     0.59023   0.41785   0.54087   0.00000  Uiso   1.00
C1105  C     0.43122   0.43972   0.37208   0.00000  Uiso   1.00
H1106  H     0.39144   0.44175   0.35523   0.00000  Uiso   1.00
H1107  H     0.44236   0.40828   0.36596   0.00000  Uiso   1.00
H1108  H     0.42963   0.44276   0.40881   0.00000  Uiso   1.00
C1109  C     0.56876   0.56029   0.62792   0.00000  Uiso   1.00
H1110  H     0.57037   0.55723   0.59120   0.00000  Uiso   1.00
H1111  H     0.55759   0.59172   0.63401   0.00000  Uiso   1.00
H1112  H     0.60854   0.55829   0.64477   0.00000  Uiso   1.00
C1113  C     0.42955   0.44043   0.60793   0.00000  Uiso   1.00
H1114  H     0.42872   0.44122   0.57055   0.00000  Uiso   1.00
H1115  H     0.43778   0.40858   0.61818   0.00000  Uiso   1.00
H1116  H     0.38994   0.44498   0.61273   0.00000  Uiso   1.00
C1117  C     0.57045   0.55957   0.39207   0.00000  Uiso   1.00
H1118  H     0.57128   0.55878   0.42945   0.00000  Uiso   1.00
H1119  H     0.61006   0.55501   0.38728   0.00000  Uiso   1.00
H1120  H     0.56224   0.59142   0.38181   0.00000  Uiso   1.00
C1121  C     0.83335   0.42100   0.50012   0.00000  Uiso   1.00
C1122  C     0.83332   0.57900   0.49988   0.00000  Uiso   1.00
C1123  C     0.73482   0.49924   0.48812   0.00000  Uiso   1.00
C1124  C     0.93185   0.50076   0.51188   0.00000  Uiso   1.00
C1125  C     0.67933   0.49341   0.48259   0.00000  Uiso   1.00
C1126  C     0.98734   0.50659   0.51741   0.00000  Uiso   1.00
C1127  C     0.78924   0.35130   0.47923   0.00000  Uiso   1.00
C1128  C     0.87743   0.64871   0.52077   0.00000  Uiso   1.00
C1129  C     0.79039   0.64139   0.47619   0.00000  Uiso   1.00
C1130  C     0.87628   0.35861   0.52381   0.00000  Uiso   1.00
C1131  C     0.83365   0.62376   0.49909   0.00000  Uiso   1.00
C1132  C     0.83302   0.37624   0.50091   0.00000  Uiso   1.00
C1133  C     0.80073   0.47210   0.35330   0.00000  Uiso   1.00
C1134  C     0.86593   0.52791   0.64670   0.00000  Uiso   1.00
C1135  C     0.80055   0.47214   0.63722   0.00000  Uiso   1.00
C1136  C     0.86611   0.52786   0.36278   0.00000  Uiso   1.00
Cu1137 Cu    0.83333   0.50001   0.54689   0.00000  Uiso   1.00
Cu1138 Cu    0.83333   0.49999   0.45311   0.00000  Uiso   1.00
N1139  N     0.83335   0.50001   0.61736   0.00000  Uiso   1.00
N1140  N     0.83332   0.49999   0.38264   0.00000  Uiso   1.00
O1141  O     0.83333   0.43989   0.53958   0.00000  Uiso   1.00
O1142  O     0.83334   0.56011   0.46042   0.00000  Uiso   1.00
O1143  O     0.83333   0.43988   0.46039   0.00000  Uiso   1.00
O1144  O     0.83334   0.56012   0.53961   0.00000  Uiso   1.00
O1145  O     0.75828   0.50000   0.53046   0.00000  Uiso   1.00
O1146  O     0.90839   0.50000   0.46954   0.00000  Uiso   1.00
O1147  O     0.75828   0.49999   0.45127   0.00000  Uiso   1.00
O1148  O     0.90839   0.50001   0.54873   0.00000  Uiso   1.00
C1149  C     0.98725   0.46779   0.43903   0.00000  Uiso   1.00
C1150  C     0.96405   0.42474   0.45067   0.00000  Uiso   1.00
H1151  H     0.98794   0.41192   0.48064   0.00000  Uiso   1.00
H1152  H     0.92523   0.42588   0.45914   0.00000  Uiso   1.00
H1153  H     0.96112   0.40336   0.42014   0.00000  Uiso   1.00
H1154  H     0.95941   0.48457   0.41622   0.00000  Uiso   1.00
H1155  H     0.68208   0.46239   0.41593   0.00000  Uiso   1.00
C1156  C     0.67942   0.53221   0.56097   0.00000  Uiso   1.00
C1157  C     0.70262   0.57525   0.54934   0.00000  Uiso   1.00
H1158  H     0.67872   0.58809   0.51938   0.00000  Uiso   1.00
H1159  H     0.70557   0.59663   0.57987   0.00000  Uiso   1.00
H1160  H     0.74143   0.57412   0.54085   0.00000  Uiso   1.00
H1161  H     0.98459   0.53761   0.58408   0.00000  Uiso   1.00
H1162  H     0.70726   0.51542   0.58378   0.00000  Uiso   1.00
C1163  C     0.73975   0.36998   0.46293   0.00000  Uiso   1.00
H1164  H     0.74152   0.40350   0.47100   0.00000  Uiso   1.00
H1165  H     0.72835   0.36531   0.42484   0.00000  Uiso   1.00
H1166  H     0.70920   0.35520   0.48137   0.00000  Uiso   1.00
C1167  C     0.92691   0.63002   0.53708   0.00000  Uiso   1.00
H1168  H     0.92515   0.59650   0.52900   0.00000  Uiso   1.00
H1169  H     0.93830   0.63469   0.57517   0.00000  Uiso   1.00
H1170  H     0.95747   0.64481   0.51866   0.00000  Uiso   1.00
C1171  C     0.74635   0.61444   0.44708   0.00000  Uiso   1.00
C1172  C     0.75298   0.61366   0.39570   0.00000  Uiso   1.00
H1173  H     0.78914   0.60090   0.39121   0.00000  Uiso   1.00
H1174  H     0.72074   0.59371   0.37553   0.00000  Uiso   1.00
H1175  H     0.75355   0.64530   0.38132   0.00000  Uiso   1.00
H1176  H     0.74310   0.58215   0.45914   0.00000  Uiso   1.00
H1177  H     0.70880   0.62512   0.45034   0.00000  Uiso   1.00
C1178  C     0.92031   0.38556   0.55292   0.00000  Uiso   1.00
C1179  C     0.91369   0.38634   0.60430   0.00000  Uiso   1.00
H1180  H     0.94593   0.40629   0.62447   0.00000  Uiso   1.00
H1181  H     0.87753   0.39910   0.60879   0.00000  Uiso   1.00
H1182  H     0.91311   0.35470   0.61868   0.00000  Uiso   1.00
H1183  H     0.95786   0.37489   0.54965   0.00000  Uiso   1.00
H1184  H     0.92356   0.41785   0.54087   0.00000  Uiso   1.00
C1185  C     0.76456   0.43972   0.37208   0.00000  Uiso   1.00
H1186  H     0.72478   0.44175   0.35523   0.00000  Uiso   1.00
H1187  H     0.77569   0.40828   0.36596   0.00000  Uiso   1.00
H1188  H     0.76297   0.44276   0.40881   0.00000  Uiso   1.00
C1189  C     0.90209   0.56029   0.62792   0.00000  Uiso   1.00
H1190  H     0.90370   0.55723   0.59120   0.00000  Uiso   1.00
H1191  H     0.89093   0.59172   0.63401   0.00000  Uiso   1.00
H1192  H     0.94187   0.55829   0.64477   0.00000  Uiso   1.00
C1193  C     0.76289   0.44043   0.60793   0.00000  Uiso   1.00
H1194  H     0.76206   0.44122   0.57055   0.00000  Uiso   1.00
H1195  H     0.77111   0.40858   0.61818   0.00000  Uiso   1.00
H1196  H     0.72327   0.44498   0.61273   0.00000  Uiso   1.00
C1197  C     0.90378   0.55957   0.39207   0.00000  Uiso   1.00
H1198  H     0.90461   0.55878   0.42945   0.00000  Uiso   1.00
H1199  H     0.94340   0.55501   0.38728   0.00000  Uiso   1.00
H1200  H     0.89557   0.59142   0.38181   0.00000  Uiso   1.00
C1201  C     0.16668   0.75434   0.50012   0.00000  Uiso   1.00
C1202  C     0.16665   0.91233   0.49988   0.00000  Uiso   1.00
C1203  C     0.06815   0.83258   0.48812   0.00000  Uiso   1.00
C1204  C     0.26518   0.83409   0.51188   0.00000  Uiso   1.00
C1205  C     0.01266   0.82674   0.48259   0.00000  Uiso   1.00
C1206  C     0.32067   0.83993   0.51741   0.00000  Uiso   1.00
C1207  C     0.12257   0.68463   0.47923   0.00000  Uiso   1.00
C1208  C     0.21076   0.98204   0.52077   0.00000  Uiso   1.00
C1209  C     0.12372   0.97473   0.47619   0.00000  Uiso   1.00
C1210  C     0.20961   0.69194   0.52381   0.00000  Uiso   1.00
C1211  C     0.16698   0.95710   0.49909   0.00000  Uiso   1.00
C1212  C     0.16635   0.70957   0.50091   0.00000  Uiso   1.00
C1213  C     0.13407   0.80543   0.35330   0.00000  Uiso   1.00
C1214  C     0.19927   0.86124   0.64670   0.00000  Uiso   1.00
C1215  C     0.13389   0.80548   0.63722   0.00000  Uiso   1.00
C1216  C     0.19945   0.86119   0.36278   0.00000  Uiso   1.00
Cu1217 Cu    0.16667   0.83334   0.54689   0.00000  Uiso   1.00
Cu1218 Cu    0.16667   0.83333   0.45311   0.00000  Uiso   1.00
N1219  N     0.16668   0.83334   0.61736   0.00000  Uiso   1.00
N1220  N     0.16665   0.83332   0.38264   0.00000  Uiso   1.00
O1221  O     0.16666   0.77322   0.53958   0.00000  Uiso   1.00
O1222  O     0.16667   0.89345   0.46042   0.00000  Uiso   1.00
O1223  O     0.16666   0.77321   0.46039   0.00000  Uiso   1.00
O1224  O     0.16667   0.89346   0.53961   0.00000  Uiso   1.00
O1225  O     0.09161   0.83334   0.53046   0.00000  Uiso   1.00
O1226  O     0.24172   0.83333   0.46954   0.00000  Uiso   1.00
O1227  O     0.09161   0.83333   0.45127   0.00000  Uiso   1.00
O1228  O     0.24172   0.83334   0.54873   0.00000  Uiso   1.00
C1229  C     0.32058   0.80112   0.43903   0.00000  Uiso   1.00
C1230  C     0.29739   0.75808   0.45067   0.00000  Uiso   1.00
H1231  H     0.32128   0.74525   0.48064   0.00000  Uiso   1.00
H1232  H     0.25856   0.75921   0.45914   0.00000  Uiso   1.00
H1233  H     0.29446   0.73669   0.42014   0.00000  Uiso   1.00
H1234  H     0.29274   0.81791   0.41622   0.00000  Uiso   1.00
H1235  H     0.01541   0.79572   0.41593   0.00000  Uiso   1.00
C1236  C     0.01275   0.86554   0.56097   0.00000  Uiso   1.00
C1237  C     0.03595   0.90859   0.54934   0.00000  Uiso   1.00
H1238  H     0.01205   0.92142   0.51938   0.00000  Uiso   1.00
H1239  H     0.03890   0.92997   0.57987   0.00000  Uiso   1.00
H1240  H     0.07477   0.90745   0.54085   0.00000  Uiso   1.00
H1241  H     0.31792   0.87094   0.58408   0.00000  Uiso   1.00
H1242  H     0.04059   0.84875   0.58378   0.00000  Uiso   1.00
C1243  C     0.07308   0.70331   0.46293   0.00000  Uiso   1.00
H1244  H     0.07485   0.73684   0.47100   0.00000  Uiso   1.00
H1245  H     0.06168   0.69864   0.42484   0.00000  Uiso   1.00
H1246  H     0.04254   0.68853   0.48137   0.00000  Uiso   1.00
C1247  C     0.26025   0.96335   0.53708   0.00000  Uiso   1.00
H1248  H     0.25848   0.92983   0.52900   0.00000  Uiso   1.00
H1249  H     0.27163   0.96802   0.57517   0.00000  Uiso   1.00
H1250  H     0.29080   0.97814   0.51866   0.00000  Uiso   1.00
C1251  C     0.07969   0.94777   0.44708   0.00000  Uiso   1.00
C1252  C     0.08632   0.94699   0.39570   0.00000  Uiso   1.00
H1253  H     0.12247   0.93423   0.39121   0.00000  Uiso   1.00
H1254  H     0.05407   0.92704   0.37553   0.00000  Uiso   1.00
H1255  H     0.08689   0.97863   0.38132   0.00000  Uiso   1.00
H1256  H     0.07643   0.91548   0.45914   0.00000  Uiso   1.00
H1257  H     0.04214   0.95845   0.45034   0.00000  Uiso   1.00
C1258  C     0.25365   0.71890   0.55292   0.00000  Uiso   1.00
C1259  C     0.24702   0.71968   0.60430   0.00000  Uiso   1.00
H1260  H     0.27927   0.73962   0.62447   0.00000  Uiso   1.00
H1261  H     0.21087   0.73243   0.60879   0.00000  Uiso   1.00
H1262  H     0.24645   0.68803   0.61868   0.00000  Uiso   1.00
H1263  H     0.29120   0.70822   0.54965   0.00000  Uiso   1.00
H1264  H     0.25689   0.75119   0.54087   0.00000  Uiso   1.00
C1265  C     0.09789   0.77305   0.37208   0.00000  Uiso   1.00
H1266  H     0.05811   0.77508   0.35523   0.00000  Uiso   1.00
H1267  H     0.10902   0.74162   0.36596   0.00000  Uiso   1.00
H1268  H     0.09630   0.77610   0.40881   0.00000  Uiso   1.00
C1269  C     0.23543   0.89363   0.62792   0.00000  Uiso   1.00
H1270  H     0.23704   0.89057   0.59120   0.00000  Uiso   1.00
H1271  H     0.22426   0.92505   0.63401   0.00000  Uiso   1.00
H1272  H     0.27521   0.89163   0.64477   0.00000  Uiso   1.00
C1273  C     0.09622   0.77376   0.60793   0.00000  Uiso   1.00
H1274  H     0.09539   0.77456   0.57055   0.00000  Uiso   1.00
H1275  H     0.10444   0.74191   0.61818   0.00000  Uiso   1.00
H1276  H     0.05661   0.77832   0.61273   0.00000  Uiso   1.00
C1277  C     0.23712   0.89290   0.39207   0.00000  Uiso   1.00
H1278  H     0.23794   0.89211   0.42945   0.00000  Uiso   1.00
H1279  H     0.27673   0.88834   0.38728   0.00000  Uiso   1.00
H1280  H     0.22891   0.92475   0.38181   0.00000  Uiso   1.00
C1281  C     0.50002   0.75434   0.50012   0.00000  Uiso   1.00
C1282  C     0.49998   0.91233   0.49988   0.00000  Uiso   1.00
C1283  C     0.40148   0.83258   0.48812   0.00000  Uiso   1.00
C1284  C     0.59852   0.83409   0.51188   0.00000  Uiso   1.00
C1285  C     0.34600   0.82674   0.48259   0.00000  Uiso   1.00
C1286  C     0.65400   0.83993   0.51741   0.00000  Uiso   1.00
C1287  C     0.45591   0.68463   0.47923   0.00000  Uiso   1.00
C1288  C     0.54409   0.98204   0.52077   0.00000  Uiso   1.00
C1289  C     0.45705   0.97473   0.47619   0.00000  Uiso   1.00
C1290  C     0.54294   0.69194   0.52381   0.00000  Uiso   1.00
C1291  C     0.50031   0.95710   0.49909   0.00000  Uiso   1.00
C1292  C     0.49969   0.70957   0.50091   0.00000  Uiso   1.00
C1293  C     0.46740   0.80543   0.35330   0.00000  Uiso   1.00
C1294  C     0.53260   0.86124   0.64670   0.00000  Uiso   1.00
C1295  C     0.46722   0.80548   0.63722   0.00000  Uiso   1.00
C1296  C     0.53278   0.86119   0.36278   0.00000  Uiso   1.00
Cu1297 Cu    0.50000   0.83334   0.54689   0.00000  Uiso   1.00
Cu1298 Cu    0.50000   0.83333   0.45311   0.00000  Uiso   1.00
N1299  N     0.50001   0.83334   0.61736   0.00000  Uiso   1.00
N1300  N     0.49999   0.83332   0.38264   0.00000  Uiso   1.00
O1301  O     0.50000   0.77322   0.53958   0.00000  Uiso   1.00
O1302  O     0.50000   0.89345   0.46042   0.00000  Uiso   1.00
O1303  O     0.50000   0.77321   0.46039   0.00000  Uiso   1.00
O1304  O     0.50000   0.89346   0.53961   0.00000  Uiso   1.00
O1305  O     0.42495   0.83334   0.53046   0.00000  Uiso   1.00
O1306  O     0.57505   0.83333   0.46954   0.00000  Uiso   1.00
O1307  O     0.42494   0.83333   0.45127   0.00000  Uiso   1.00
O1308  O     0.57506   0.83334   0.54873   0.00000  Uiso   1.00
C1309  C     0.65392   0.80112   0.43903   0.00000  Uiso   1.00
C1310  C     0.63072   0.75808   0.45067   0.00000  Uiso   1.00
H1311  H     0.65461   0.74525   0.48064   0.00000  Uiso   1.00
H1312  H     0.59190   0.75921   0.45914   0.00000  Uiso   1.00
H1313  H     0.62779   0.73669   0.42014   0.00000  Uiso   1.00
H1314  H     0.62608   0.81791   0.41622   0.00000  Uiso   1.00
H1315  H     0.34874   0.79572   0.41593   0.00000  Uiso   1.00
C1316  C     0.34608   0.86554   0.56097   0.00000  Uiso   1.00
C1317  C     0.36929   0.90859   0.54934   0.00000  Uiso   1.00
H1318  H     0.34538   0.92142   0.51938   0.00000  Uiso   1.00
H1319  H     0.37224   0.92997   0.57987   0.00000  Uiso   1.00
H1320  H     0.40810   0.90745   0.54085   0.00000  Uiso   1.00
H1321  H     0.65126   0.87094   0.58408   0.00000  Uiso   1.00
H1322  H     0.37392   0.84875   0.58378   0.00000  Uiso   1.00
C1323  C     0.40642   0.70331   0.46293   0.00000  Uiso   1.00
H1324  H     0.40818   0.73684   0.47100   0.00000  Uiso   1.00
H1325  H     0.39502   0.69864   0.42484   0.00000  Uiso   1.00
H1326  H     0.37587   0.68853   0.48137   0.00000  Uiso   1.00
C1327  C     0.59358   0.96335   0.53708   0.00000  Uiso   1.00
H1328  H     0.59181   0.92983   0.52900   0.00000  Uiso   1.00
H1329  H     0.60496   0.96802   0.57517   0.00000  Uiso   1.00
H1330  H     0.62413   0.97814   0.51866   0.00000  Uiso   1.00
C1331  C     0.41302   0.94777   0.44708   0.00000  Uiso   1.00
C1332  C     0.41965   0.94699   0.39570   0.00000  Uiso   1.00
H1333  H     0.45580   0.93423   0.39121   0.00000  Uiso   1.00
H1334  H     0.38740   0.92704   0.37553   0.00000  Uiso   1.00
H1335  H     0.42022   0.97863   0.38132   0.00000  Uiso   1.00
H1336  H     0.40977   0.91548   0.45914   0.00000  Uiso   1.00
H1337  H     0.37547   0.95845   0.45034   0.00000  Uiso   1.00
C1338  C     0.58698   0.71890   0.55292   0.00000  Uiso   1.00
C1339  C     0.58035   0.71968   0.60430   0.00000  Uiso   1.00
H1340  H     0.61260   0.73962   0.62447   0.00000  Uiso   1.00
H1341  H     0.54420   0.73243   0.60879   0.00000  Uiso   1.00
H1342  H     0.57978   0.68803   0.61868   0.00000  Uiso   1.00
H1343  H     0.62453   0.70822   0.54965   0.00000  Uiso   1.00
H1344  H     0.59023   0.75119   0.54087   0.00000  Uiso   1.00
C1345  C     0.43122   0.77305   0.37208   0.00000  Uiso   1.00
H1346  H     0.39144   0.77508   0.35523   0.00000  Uiso   1.00
H1347  H     0.44236   0.74162   0.36596   0.00000  Uiso   1.00
H1348  H     0.42963   0.77610   0.40881   0.00000  Uiso   1.00
C1349  C     0.56876   0.89363   0.62792   0.00000  Uiso   1.00
H1350  H     0.57037   0.89057   0.59120   0.00000  Uiso   1.00
H1351  H     0.55759   0.92505   0.63401   0.00000  Uiso   1.00
H1352  H     0.60854   0.89163   0.64477   0.00000  Uiso   1.00
C1353  C     0.42955   0.77376   0.60793   0.00000  Uiso   1.00
H1354  H     0.42872   0.77456   0.57055   0.00000  Uiso   1.00
H1355  H     0.43778   0.74191   0.61818   0.00000  Uiso   1.00
H1356  H     0.38994   0.77832   0.61273   0.00000  Uiso   1.00
C1357  C     0.57045   0.89290   0.39207   0.00000  Uiso   1.00
H1358  H     0.57128   0.89211   0.42945   0.00000  Uiso   1.00
H1359  H     0.61006   0.88834   0.38728   0.00000  Uiso   1.00
H1360  H     0.56224   0.92475   0.38181   0.00000  Uiso   1.00
C1361  C     0.83335   0.75434   0.50012   0.00000  Uiso   1.00
C1362  C     0.83332   0.91233   0.49988   0.00000  Uiso   1.00
C1363  C     0.73482   0.83258   0.48812   0.00000  Uiso   1.00
C1364  C     0.93185   0.83409   0.51188   0.00000  Uiso   1.00
C1365  C     0.67933   0.82674   0.48259   0.00000  Uiso   1.00
C1366  C     0.98734   0.83993   0.51741   0.00000  Uiso   1.00
C1367  C     0.78924   0.68463   0.47923   0.00000  Uiso   1.00
C1368  C     0.87743   0.98204   0.52077   0.00000  Uiso   1.00
C1369  C     0.79039   0.97473   0.47619   0.00000  Uiso   1.00
C1370  C     0.87628   0.69194   0.52381   0.00000  Uiso   1.00
C1371  C     0.83365   0.95710   0.49909   0.00000  Uiso   1.00
C1372  C     0.83302   0.70957   0.50091   0.00000  Uiso   1.00
C1373  C     0.80073   0.80543   0.35330   0.00000  Uiso   1.00
C1374  C     0.86593   0.86124   0.64670   0.00000  Uiso   1.00
C1375  C     0.80055   0.80548   0.63722   0.00000  Uiso   1.00
C1376  C     0.86611   0.86119   0.36278   0.00000  Uiso   1.00
Cu1377 Cu    0.83333   0.83334   0.54689   0.00000  Uiso   1.00
Cu1378 Cu    0.83333   0.83333   0.45311   0.00000  Uiso   1.00
N1379  N     0.83335   0.83334   0.61736   0.00000  Uiso   1.00
N1380  N     0.83332   0.83332   0.38264   0.00000  Uiso   1.00
O1381  O     0.83333   0.77322   0.53958   0.00000  Uiso   1.00
O1382  O     0.83334   0.89345   0.46042   0.00000  Uiso   1.00
O1383  O     0.83333   0.77321   0.46039   0.00000  Uiso   1.00
O1384  O     0.83334   0.89346   0.53961   0.00000  Uiso   1.00
O1385  O     0.75828   0.83334   0.53046   0.00000  Uiso   1.00
O1386  O     0.90839   0.83333   0.46954   0.00000  Uiso   1.00
O1387  O     0.75828   0.83333   0.45127   0.00000  Uiso   1.00
O1388  O     0.90839   0.83334   0.54873   0.00000  Uiso   1.00
C1389  C     0.98725   0.80112   0.43903   0.00000  Uiso   1.00
C1390  C     0.96405   0.75808   0.45067   0.00000  Uiso   1.00
H1391  H     0.98794   0.74525   0.48064   0.00000  Uiso   1.00
H1392  H     0.92523   0.75921   0.45914   0.00000  Uiso   1.00
H1393  H     0.96112   0.73669   0.42014   0.00000  Uiso   1.00
H1394  H     0.95941   0.81791   0.41622   0.00000  Uiso   1.00
H1395  H     0.68208   0.79572   0.41593   0.00000  Uiso   1.00
C1396  C     0.67942   0.86554   0.56097   0.00000  Uiso   1.00
C1397  C     0.70262   0.90859   0.54934   0.00000  Uiso   1.00
H1398  H     0.67872   0.92142   0.51938   0.00000  Uiso   1.00
H1399  H     0.70557   0.92997   0.57987   0.00000  Uiso   1.00
H1400  H     0.74143   0.90745   0.54085   0.00000  Uiso   1.00
H1401  H     0.98459   0.87094   0.58408   0.00000  Uiso   1.00
H1402  H     0.70726   0.84875   0.58378   0.00000  Uiso   1.00
C1403  C     0.73975   0.70331   0.46293   0.00000  Uiso   1.00
H1404  H     0.74152   0.73684   0.47100   0.00000  Uiso   1.00
H1405  H     0.72835   0.69864   0.42484   0.00000  Uiso   1.00
H1406  H     0.70920   0.68853   0.48137   0.00000  Uiso   1.00
C1407  C     0.92691   0.96335   0.53708   0.00000  Uiso   1.00
H1408  H     0.92515   0.92983   0.52900   0.00000  Uiso   1.00
H1409  H     0.93830   0.96802   0.57517   0.00000  Uiso   1.00
H1410  H     0.95747   0.97814   0.51866   0.00000  Uiso   1.00
C1411  C     0.74635   0.94777   0.44708   0.00000  Uiso   1.00
C1412  C     0.75298   0.94699   0.39570   0.00000  Uiso   1.00
H1413  H     0.78914   0.93423   0.39121   0.00000  Uiso   1.00
H1414  H     0.72074   0.92704   0.37553   0.00000  Uiso   1.00
H1415  H     0.75355   0.97863   0.38132   0.00000  Uiso   1.00
H1416  H     0.74310   0.91548   0.45914   0.00000  Uiso   1.00
H1417  H     0.70880   0.95845   0.45034   0.00000  Uiso   1.00
C1418  C     0.92031   0.71890   0.55292   0.00000  Uiso   1.00
C1419  C     0.91369   0.71968   0.60430   0.00000  Uiso   1.00
H1420  H     0.94593   0.73962   0.62447   0.00000  Uiso   1.00
H1421  H     0.87753   0.73243   0.60879   0.00000  Uiso   1.00
H1422  H     0.91311   0.68803   0.61868   0.00000  Uiso   1.00
H1423  H     0.95786   0.70822   0.54965   0.00000  Uiso   1.00
H1424  H     0.92356   0.75119   0.54087   0.00000  Uiso   1.00
C1425  C     0.76456   0.77305   0.37208   0.00000  Uiso   1.00
H1426  H     0.72478   0.77508   0.35523   0.00000  Uiso   1.00
H1427  H     0.77569   0.74162   0.36596   0.00000  Uiso   1.00
H1428  H     0.76297   0.77610   0.40881   0.00000  Uiso   1.00
C1429  C     0.90209   0.89363   0.62792   0.00000  Uiso   1.00
H1430  H     0.90370   0.89057   0.59120   0.00000  Uiso   1.00
H1431  H     0.89093   0.92505   0.63401   0.00000  Uiso   1.00
H1432  H     0.94187   0.89163   0.64477   0.00000  Uiso   1.00
C1433  C     0.76289   0.77376   0.60793   0.00000  Uiso   1.00
H1434  H     0.76206   0.77456   0.57055   0.00000  Uiso   1.00
H1435  H     0.77111   0.74191   0.61818   0.00000  Uiso   1.00
H1436  H     0.72327   0.77832   0.61273   0.00000  Uiso   1.00
C1437  C     0.90378   0.89290   0.39207   0.00000  Uiso   1.00
H1438  H     0.90461   0.89211   0.42945   0.00000  Uiso   1.00
H1439  H     0.94340   0.88834   0.38728   0.00000  Uiso   1.00
H1440  H     0.89557   0.92475   0.38181   0.00000  Uiso   1.00
C1441  C     0.16668   0.08767   0.83345   0.00000  Uiso   1.00
C1442  C     0.16665   0.24566   0.83321   0.00000  Uiso   1.00
C1443  C     0.06815   0.16591   0.82146   0.00000  Uiso   1.00
C1444  C     0.26518   0.16742   0.84521   0.00000  Uiso   1.00
C1445  C     0.01266   0.16007   0.81593   0.00000  Uiso   1.00
C1446  C     0.32067   0.17326   0.85074   0.00000  Uiso   1.00
C1447  C     0.12257   0.01796   0.81256   0.00000  Uiso   1.00
C1448  C     0.21076   0.31537   0.85410   0.00000  Uiso   1.00
C1449  C     0.12372   0.30806   0.80953   0.00000  Uiso   1.00
C1450  C     0.20961   0.02527   0.85714   0.00000  Uiso   1.00
C1451  C     0.16698   0.29043   0.83243   0.00000  Uiso   1.00
C1452  C     0.16635   0.04290   0.83424   0.00000  Uiso   1.00
C1453  C     0.13407   0.13876   0.68663   0.00000  Uiso   1.00
C1454  C     0.19927   0.19457   0.98003   0.00000  Uiso   1.00
C1455  C     0.13389   0.13881   0.97055   0.00000  Uiso   1.00
C1456  C     0.19945   0.19452   0.69612   0.00000  Uiso   1.00
Cu1457 Cu    0.16667   0.16667   0.88022   0.00000  Uiso   1.00
Cu1458 Cu    0.16667   0.16666   0.78645   0.00000  Uiso   1.00
N1459  N     0.16668   0.16668   0.95069   0.00000  Uiso   1.00
N1460  N     0.16665   0.16666   0.71597   0.00000  Uiso   1.00
O1461  O     0.16666   0.10655   0.87291   0.00000  Uiso   1.00
O1462  O     0.16667   0.22678   0.79375   0.00000  Uiso   1.00
O1463  O     0.16666   0.10654   0.79372   0.00000  Uiso   1.00
O1464  O     0.16667   0.22679   0.87294   0.00000  Uiso   1.00
O1465  O     0.09161   0.16667   0.86379   0.00000  Uiso   1.00
O1466  O     0.24172   0.16666   0.80288   0.00000  Uiso   1.00
O1467  O     0.09161   0.16666   0.78460   0.00000  Uiso   1.00
O1468  O     0.24172   0.16667   0.88207   0.00000  Uiso   1.00
C1469  C     0.32058   0.13446   0.77237   0.00000  Uiso   1.00
C1470  C     0.29739   0.09141   0.78401   0.00000  Uiso   1.00
H1471  H     0.32128   0.07859   0.81397   0.00000  Uiso   1.00
H1472  H     0.25856   0.09255   0.79248   0.00000  Uiso   1.00
H1473  H     0.29446   0.07002   0.75348   0.00000  Uiso   1.00
H1474  H     0.29274   0.15124   0.74956   0.00000  Uiso   1.00
H1475  H     0.01541   0.12906   0.74926   0.00000  Uiso   1.00
C1476  C     0.01275   0.19887   0.89430   0.00000  Uiso   1.00
C1477  C     0.03595   0.24192   0.88267   0.00000  Uiso   1.00
H1478  H     0.01205   0.25476   0.85272   0.00000  Uiso   1.00
H1479  H     0.03890   0.26330   0.91321   0.00000  Uiso   1.00
H1480  H     0.07477   0.24078   0.87418   0.00000  Uiso   1.00
H1481  H     0.31792   0.20427   0.91741   0.00000  Uiso   1.00
H1482  H     0.04059   0.18209   0.91711   0.00000  Uiso   1.00
C1483  C     0.07308   0.03665   0.79627   0.00000  Uiso   1.00
H1484  H     0.07485   0.07017   0.80433   0.00000  Uiso   1.00
H1485  H     0.06168   0.03197   0.75818   0.00000  Uiso   1.00
H1486  H     0.04254   0.02186   0.81470   0.00000  Uiso   1.00
C1487  C     0.26025   0.29669   0.87041   0.00000  Uiso   1.00
H1488  H     0.25848   0.26316   0.86234   0.00000  Uiso   1.00
H1489  H     0.27163   0.30135   0.90850   0.00000  Uiso   1.00
H1490  H     0.29080   0.31147   0.85199   0.00000  Uiso   1.00
C1491  C     0.07969   0.28111   0.78041   0.00000  Uiso   1.00
C1492  C     0.08632   0.28032   0.72904   0.00000  Uiso   1.00
H1493  H     0.12247   0.26757   0.72455   0.00000  Uiso   1.00
H1494  H     0.05407   0.26037   0.70886   0.00000  Uiso   1.00
H1495  H     0.08689   0.31197   0.71465   0.00000  Uiso   1.00
H1496  H     0.07643   0.24881   0.79247   0.00000  Uiso   1.00
H1497  H     0.04214   0.29178   0.78368   0.00000  Uiso   1.00
C1498  C     0.25365   0.05223   0.88625   0.00000  Uiso   1.00
C1499  C     0.24702   0.05301   0.93763   0.00000  Uiso   1.00
H1500  H     0.27927   0.07296   0.95781   0.00000  Uiso   1.00
H1501  H     0.21087   0.06577   0.94212   0.00000  Uiso   1.00
H1502  H     0.24645   0.02136   0.95201   0.00000  Uiso   1.00
H1503  H     0.29120   0.04155   0.88299   0.00000  Uiso   1.00
H1504  H     0.25689   0.08452   0.87420   0.00000  Uiso   1.00
C1505  C     0.09789   0.10638   0.70541   0.00000  Uiso   1.00
H1506  H     0.05811   0.10841   0.68857   0.00000  Uiso   1.00
H1507  H     0.10902   0.07495   0.69929   0.00000  Uiso   1.00
H1508  H     0.09630   0.10943   0.74214   0.00000  Uiso   1.00
C1509  C     0.23543   0.22696   0.96125   0.00000  Uiso   1.00
H1510  H     0.23704   0.22390   0.92453   0.00000  Uiso   1.00
H1511  H     0.22426   0.25839   0.96734   0.00000  Uiso   1.00
H1512  H     0.27521   0.22496   0.97811   0.00000  Uiso   1.00
C1513  C     0.09622   0.10709   0.94127   0.00000  Uiso   1.00
H1514  H     0.09539   0.10789   0.90388   0.00000  Uiso   1.00
H1515  H     0.10444   0.07525   0.95152   0.00000  Uiso   1.00
H1516  H     0.05661   0.11165   0.94606   0.00000  Uiso   1.00
C1517  C     0.23712   0.22624   0.72540   0.00000  Uiso   1.00
H1518  H     0.23794   0.22545   0.76278   0.00000  Uiso   1.00
H1519  H     0.27673   0.22167   0.72061   0.00000  Uiso   1.00
H1520  H     0.22891   0.25808   0.71514   0.00000  Uiso   1.00
C1521  C     0.50002   0.08767   0.83345   0.00000  Uiso   1.00
C1522  C     0.49998   0.24566   0.83321   0.00000  Uiso   1.00
C1523  C     0.40148   0.16591   0.82146   0.00000  Uiso   1.00
C1524  C     0.59852   0.16742   0.84521   0.00000  Uiso   1.00
C1525  C     0.34600   0.16007   0.81593   0.00000  Uiso   1.00
C1526  C     0.65400   0.17326   0.85074   0.00000  Uiso   1.00
C1527  C     0.45591   0.01796   0.81256   0.00000  Uiso   1.00
C1528  C     0.54409   0.31537   0.85410   0.00000  Uiso   1.00
C1529  C     0.45705   0.30806   0.80953   0.00000  Uiso   1.00
C1530  C     0.54294   0.02527   0.85714   0.00000  Uiso   1.00
C1531  C     0.50031   0.29043   0.83243   0.00000  Uiso   1.00
C1532  C     0.49969   0.04290   0.83424   0.00000  Uiso   1.00
C1533  C     0.46740   0.13876   0.68663   0.00000  Uiso   1.00
C1534  C     0.53260   0.19457   0.98003   0.00000  Uiso   1.00
C1535  C     0.46722   0.13881   0.97055   0.00000  Uiso   1.00
C1536  C     0.53278   0.19452   0.69612   0.00000  Uiso   1.00
Cu1537 Cu    0.50000   0.16667   0.88022   0.00000  Uiso   1.00
Cu1538 Cu    0.50000   0.16666   0.78645   0.00000  Uiso   1.00
N1539  N     0.50001   0.16668   0.95069   0.00000  Uiso   1.00
N1540  N     0.49999   0.16666   0.71597   0.00000  Uiso   1.00
O1541  O     0.50000   0.10655   0.87291   0.00000  Uiso   1.00
O1542  O     0.50000   0.22678   0.79375   0.00000  Uiso   1.00
O1543  O     0.50000   0.10654   0.79372   0.00000  Uiso   1.00
O1544  O     0.50000   0.22679   0.87294   0.00000  Uiso   1.00
O1545  O     0.42495   0.16667   0.86379   0.00000  Uiso   1.00
O1546  O     0.57505   0.16666   0.80288   0.00000  Uiso   1.00
O1547  O     0.42494   0.16666   0.78460   0.00000  Uiso   1.00
O1548  O     0.57506   0.16667   0.88207   0.00000  Uiso   1.00
C1549  C     0.65392   0.13446   0.77237   0.00000  Uiso   1.00
C1550  C     0.63072   0.09141   0.78401   0.00000  Uiso   1.00
H1551  H     0.65461   0.07859   0.81397   0.00000  Uiso   1.00
H1552  H     0.59190   0.09255   0.79248   0.00000  Uiso   1.00
H1553  H     0.62779   0.07002   0.75348   0.00000  Uiso   1.00
H1554  H     0.62608   0.15124   0.74956   0.00000  Uiso   1.00
H1555  H     0.34874   0.12906   0.74926   0.00000  Uiso   1.00
C1556  C     0.34608   0.19887   0.89430   0.00000  Uiso   1.00
C1557  C     0.36929   0.24192   0.88267   0.00000  Uiso   1.00
H1558  H     0.34538   0.25476   0.85272   0.00000  Uiso   1.00
H1559  H     0.37224   0.26330   0.91321   0.00000  Uiso   1.00
H1560  H     0.40810   0.24078   0.87418   0.00000  Uiso   1.00
H1561  H     0.65126   0.20427   0.91741   0.00000  Uiso   1.00
H1562  H     0.37392   0.18209   0.91711   0.00000  Uiso   1.00
C1563  C     0.40642   0.03665   0.79627   0.00000  Uiso   1.00
H1564  H     0.40818   0.07017   0.80433   0.00000  Uiso   1.00
H1565  H     0.39502   0.03197   0.75818   0.00000  Uiso   1.00
H1566  H     0.37587   0.02186   0.81470   0.00000  Uiso   1.00
C1567  C     0.59358   0.29669   0.87041   0.00000  Uiso   1.00
H1568  H     0.59181   0.26316   0.86234   0.00000  Uiso   1.00
H1569  H     0.60496   0.30135   0.90850   0.00000  Uiso   1.00
H1570  H     0.62413   0.31147   0.85199   0.00000  Uiso   1.00
C1571  C     0.41302   0.28111   0.78041   0.00000  Uiso   1.00
C1572  C     0.41965   0.28032   0.72904   0.00000  Uiso   1.00
H1573  H     0.45580   0.26757   0.72455   0.00000  Uiso   1.00
H1574  H     0.38740   0.26037   0.70886   0.00000  Uiso   1.00
H1575  H     0.42022   0.31197   0.71465   0.00000  Uiso   1.00
H1576  H     0.40977   0.24881   0.79247   0.00000  Uiso   1.00
H1577  H     0.37547   0.29178   0.78368   0.00000  Uiso   1.00
C1578  C     0.58698   0.05223   0.88625   0.00000  Uiso   1.00
C1579  C     0.58035   0.05301   0.93763   0.00000  Uiso   1.00
H1580  H     0.61260   0.07296   0.95781   0.00000  Uiso   1.00
H1581  H     0.54420   0.06577   0.94212   0.00000  Uiso   1.00
H1582  H     0.57978   0.02136   0.95201   0.00000  Uiso   1.00
H1583  H     0.62453   0.04155   0.88299   0.00000  Uiso   1.00
H1584  H     0.59023   0.08452   0.87420   0.00000  Uiso   1.00
C1585  C     0.43122   0.10638   0.70541   0.00000  Uiso   1.00
H1586  H     0.39144   0.10841   0.68857   0.00000  Uiso   1.00
H1587  H     0.44236   0.07495   0.69929   0.00000  Uiso   1.00
H1588  H     0.42963   0.10943   0.74214   0.00000  Uiso   1.00
C1589  C     0.56876   0.22696   0.96125   0.00000  Uiso   1.00
H1590  H     0.57037   0.22390   0.92453   0.00000  Uiso   1.00
H1591  H     0.55759   0.25839   0.96734   0.00000  Uiso   1.00
H1592  H     0.60854   0.22496   0.97811   0.00000  Uiso   1.00
C1593  C     0.42955   0.10709   0.94127   0.00000  Uiso   1.00
H1594  H     0.42872   0.10789   0.90388   0.00000  Uiso   1.00
H1595  H     0.43778   0.07525   0.95152   0.00000  Uiso   1.00
H1596  H     0.38994   0.11165   0.94606   0.00000  Uiso   1.00
C1597  C     0.57045   0.22624   0.72540   0.00000  Uiso   1.00
H1598  H     0.57128   0.22545   0.76278   0.00000  Uiso   1.00
H1599  H     0.61006   0.22167   0.72061   0.00000  Uiso   1.00
H1600  H     0.56224   0.25808   0.71514   0.00000  Uiso   1.00
C1601  C     0.83335   0.08767   0.83345   0.00000  Uiso   1.00
C1602  C     0.83332   0.24566   0.83321   0.00000  Uiso   1.00
C1603  C     0.73482   0.16591   0.82146   0.00000  Uiso   1.00
C1604  C     0.93185   0.16742   0.84521   0.00000  Uiso   1.00
C1605  C     0.67933   0.16007   0.81593   0.00000  Uiso   1.00
C1606  C     0.98734   0.17326   0.85074   0.00000  Uiso   1.00
C1607  C     0.78924   0.01796   0.81256   0.00000  Uiso   1.00
C1608  C     0.87743   0.31537   0.85410   0.00000  Uiso   1.00
C1609  C     0.79039   0.30806   0.80953   0.00000  Uiso   1.00
C1610  C     0.87628   0.02527   0.85714   0.00000  Uiso   1.00
C1611  C     0.83365   0.29043   0.83243   0.00000  Uiso   1.00
C1612  C     0.83302   0.04290   0.83424   0.00000  Uiso   1.00
C1613  C     0.80073   0.13876   0.68663   0.00000  Uiso   1.00
C1614  C     0.86593   0.19457   0.98003   0.00000  Uiso   1.00
C1615  C     0.80055   0.13881   0.97055   0.00000  Uiso   1.00
C1616  C     0.86611   0.19452   0.69612   0.00000  Uiso   1.00
Cu1617 Cu    0.83333   0.16667   0.88022   0.00000  Uiso   1.00
Cu1618 Cu    0.83333   0.16666   0.78645   0.00000  Uiso   1.00
N1619  N     0.83335   0.16668   0.95069   0.00000  Uiso   1.00
N1620  N     0.83332   0.16666   0.71597   0.00000  Uiso   1.00
O1621  O     0.83333   0.10655   0.87291   0.00000  Uiso   1.00
O1622  O     0.83334   0.22678   0.79375   0.00000  Uiso   1.00
O1623  O     0.83333   0.10654   0.79372   0.00000  Uiso   1.00
O1624  O     0.83334   0.22679   0.87294   0.00000  Uiso   1.00
O1625  O     0.75828   0.16667   0.86379   0.00000  Uiso   1.00
O1626  O     0.90839   0.16666   0.80288   0.00000  Uiso   1.00
O1627  O     0.75828   0.16666   0.78460   0.00000  Uiso   1.00
O1628  O     0.90839   0.16667   0.88207   0.00000  Uiso   1.00
C1629  C     0.98725   0.13446   0.77237   0.00000  Uiso   1.00
C1630  C     0.96405   0.09141   0.78401   0.00000  Uiso   1.00
H1631  H     0.98794   0.07859   0.81397   0.00000  Uiso   1.00
H1632  H     0.92523   0.09255   0.79248   0.00000  Uiso   1.00
H1633  H     0.96112   0.07002   0.75348   0.00000  Uiso   1.00
H1634  H     0.95941   0.15124   0.74956   0.00000  Uiso   1.00
H1635  H     0.68208   0.12906   0.74926   0.00000  Uiso   1.00
C1636  C     0.67942   0.19887   0.89430   0.00000  Uiso   1.00
C1637  C     0.70262   0.24192   0.88267   0.00000  Uiso   1.00
H1638  H     0.67872   0.25476   0.85272   0.00000  Uiso   1.00
H1639  H     0.70557   0.26330   0.91321   0.00000  Uiso   1.00
H1640  H     0.74143   0.24078   0.87418   0.00000  Uiso   1.00
H1641  H     0.98459   0.20427   0.91741   0.00000  Uiso   1.00
H1642  H     0.70726   0.18209   0.91711   0.00000  Uiso   1.00
C1643  C     0.73975   0.03665   0.79627   0.00000  Uiso   1.00
H1644  H     0.74152   0.07017   0.80433   0.00000  Uiso   1.00
H1645  H     0.72835   0.03197   0.75818   0.00000  Uiso   1.00
H1646  H     0.70920   0.02186   0.81470   0.00000  Uiso   1.00
C1647  C     0.92691   0.29669   0.87041   0.00000  Uiso   1.00
H1648  H     0.92515   0.26316   0.86234   0.00000  Uiso   1.00
H1649  H     0.93830   0.30135   0.90850   0.00000  Uiso   1.00
H1650  H     0.95747   0.31147   0.85199   0.00000  Uiso   1.00
C1651  C     0.74635   0.28111   0.78041   0.00000  Uiso   1.00
C1652  C     0.75298   0.28032   0.72904   0.00000  Uiso   1.00
H1653  H     0.78914   0.26757   0.72455   0.00000  Uiso   1.00
H1654  H     0.72074   0.26037   0.70886   0.00000  Uiso   1.00
H1655  H     0.75355   0.31197   0.71465   0.00000  Uiso   1.00
H1656  H     0.74310   0.24881   0.79247   0.00000  Uiso   1.00
H1657  H     0.70880   0.29178   0.78368   0.00000  Uiso   1.00
C1658  C     0.92031   0.05223   0.88625   0.00000  Uiso   1.00
C1659  C     0.91369   0.05301   0.93763   0.00000  Uiso   1.00
H1660  H     0.94593   0.07296   0.95781   0.00000  Uiso   1.00
H1661  H     0.87753   0.06577   0.94212   0.00000  Uiso   1.00
H1662  H     0.91311   0.02136   0.95201   0.00000  Uiso   1.00
H1663  H     0.95786   0.04155   0.88299   0.00000  Uiso   1.00
H1664  H     0.92356   0.08452   0.87420   0.00000  Uiso   1.00
C1665  C     0.76456   0.10638   0.70541   0.00000  Uiso   1.00
H1666  H     0.72478   0.10841   0.68857   0.00000  Uiso   1.00
H1667  H     0.77569   0.07495   0.69929   0.00000  Uiso   1.00
H1668  H     0.76297   0.10943   0.74214   0.00000  Uiso   1.00
C1669  C     0.90209   0.22696   0.96125   0.00000  Uiso   1.00
H1670  H     0.90370   0.22390   0.92453   0.00000  Uiso   1.00
H1671  H     0.89093   0.25839   0.96734   0.00000  Uiso   1.00
H1672  H     0.94187   0.22496   0.97811   0.00000  Uiso   1.00
C1673  C     0.76289   0.10709   0.94127   0.00000  Uiso   1.00
H1674  H     0.76206   0.10789   0.90388   0.00000  Uiso   1.00
H1675  H     0.77111   0.07525   0.95152   0.00000  Uiso   1.00
H1676  H     0.72327   0.11165   0.94606   0.00000  Uiso   1.00
C1677  C     0.90378   0.22624   0.72540   0.00000  Uiso   1.00
H1678  H     0.90461   0.22545   0.76278   0.00000  Uiso   1.00
H1679  H     0.94340   0.22167   0.72061   0.00000  Uiso   1.00
H1680  H     0.89557   0.25808   0.71514   0.00000  Uiso   1.00
C1681  C     0.16668   0.42100   0.83345   0.00000  Uiso   1.00
C1682  C     0.16665   0.57900   0.83321   0.00000  Uiso   1.00
C1683  C     0.06815   0.49924   0.82146   0.00000  Uiso   1.00
C1684  C     0.26518   0.50076   0.84521   0.00000  Uiso   1.00
C1685  C     0.01266   0.49341   0.81593   0.00000  Uiso   1.00
C1686  C     0.32067   0.50659   0.85074   0.00000  Uiso   1.00
C1687  C     0.12257   0.35130   0.81256   0.00000  Uiso   1.00
C1688  C     0.21076   0.64871   0.85410   0.00000  Uiso   1.00
C1689  C     0.12372   0.64139   0.80953   0.00000  Uiso   1.00
C1690  C     0.20961   0.35861   0.85714   0.00000  Uiso   1.00
C1691  C     0.16698   0.62376   0.83243   0.00000  Uiso   1.00
C1692  C     0.16635   0.37624   0.83424   0.00000  Uiso   1.00
C1693  C     0.13407   0.47210   0.68663   0.00000  Uiso   1.00
C1694  C     0.19927   0.52791   0.98003   0.00000  Uiso   1.00
C1695  C     0.13389   0.47214   0.97055   0.00000  Uiso   1.00
C1696  C     0.19945   0.52786   0.69612   0.00000  Uiso   1.00
Cu1697 Cu    0.16667   0.50001   0.88022   0.00000  Uiso   1.00
Cu1698 Cu    0.16667   0.49999   0.78645   0.00000  Uiso   1.00
N1699  N     0.16668   0.50001   0.95069   0.00000  Uiso   1.00
N1700  N     0.16665   0.49999   0.71597   0.00000  Uiso   1.00
O1701  O     0.16666   0.43989   0.87291   0.00000  Uiso   1.00
O1702  O     0.16667   0.56011   0.79375   0.00000  Uiso   1.00
O1703  O     0.16666   0.43988   0.79372   0.00000  Uiso   1.00
O1704  O     0.16667   0.56012   0.87294   0.00000  Uiso   1.00
O1705  O     0.09161   0.50000   0.86379   0.00000  Uiso   1.00
O1706  O     0.24172   0.50000   0.80288   0.00000  Uiso   1.00
O1707  O     0.09161   0.49999   0.78460   0.00000  Uiso   1.00
O1708  O     0.24172   0.50001   0.88207   0.00000  Uiso   1.00
C1709  C     0.32058   0.46779   0.77237   0.00000  Uiso   1.00
C1710  C     0.29739   0.42474   0.78401   0.00000  Uiso   1.00
H1711  H     0.32128   0.41192   0.81397   0.00000  Uiso   1.00
H1712  H     0.25856   0.42588   0.79248   0.00000  Uiso   1.00
H1713  H     0.29446   0.40336   0.75348   0.00000  Uiso   1.00
H1714  H     0.29274   0.48457   0.74956   0.00000  Uiso   1.00
H1715  H     0.01541   0.46239   0.74926   0.00000  Uiso   1.00
C1716  C     0.01275   0.53221   0.89430   0.00000  Uiso   1.00
C1717  C     0.03595   0.57525   0.88267   0.00000  Uiso   1.00
H1718  H     0.01205   0.58809   0.85272   0.00000  Uiso   1.00
H1719  H     0.03890   0.59663   0.91321   0.00000  Uiso   1.00
H1720  H     0.07477   0.57412   0.87418   0.00000  Uiso   1.00
H1721  H     0.31792   0.53761   0.91741   0.00000  Uiso   1.00
H1722  H     0.04059   0.51542   0.91711   0.00000  Uiso   1.00
C1723  C     0.07308   0.36998   0.79627   0.00000  Uiso   1.00
H1724  H     0.07485   0.40350   0.80433   0.00000  Uiso   1.00
H1725  H     0.06168   0.36531   0.75818   0.00000  Uiso   1.00
H1726  H     0.04254   0.35520   0.81470   0.00000  Uiso   1.00
C1727  C     0.26025   0.63002   0.87041   0.00000  Uiso   1.00
H1728  H     0.25848   0.59650   0.86234   0.00000  Uiso   1.00
H1729  H     0.27163   0.63469   0.90850   0.00000  Uiso   1.00
H1730  H     0.29080   0.64481   0.85199   0.00000  Uiso   1.00
C1731  C     0.07969   0.61444   0.78041   0.00000  Uiso   1.00
C1732  C     0.08632   0.61366   0.72904   0.00000  Uiso   1.00
H1733  H     0.12247   0.60090   0.72455   0.00000  Uiso   1.00
H1734  H     0.05407   0.59371   0.70886   0.00000  Uiso   1.00
H1735  H     0.08689   0.64530   0.71465   0.00000  Uiso   1.00
H1736  H     0.07643   0.58215   0.79247   0.00000  Uiso   1.00
H1737  H     0.04214   0.62512   0.78368   0.00000  Uiso   1.00
C1738  C     0.25365   0.38556   0.88625   0.00000  Uiso   1.00
C1739  C     0.24702   0.38634   0.93763   0.00000  Uiso   1.00
H1740  H     0.27927   0.40629   0.95781   0.00000  Uiso   1.00
H1741  H     0.21087   0.39910   0.94212   0.00000  Uiso   1.00
H1742  H     0.24645   0.35470   0.95201   0.00000  Uiso   1.00
H1743  H     0.29120   0.37489   0.88299   0.00000  Uiso   1.00
H1744  H     0.25689   0.41785   0.87420   0.00000  Uiso   1.00
C1745  C     0.09789   0.43972   0.70541   0.00000  Uiso   1.00
H1746  H     0.05811   0.44175   0.68857   0.00000  Uiso   1.00
H1747  H     0.10902   0.40828   0.69929   0.00000  Uiso   1.00
H1748  H     0.09630   0.44276   0.74214   0.00000  Uiso   1.00
C1749  C     0.23543   0.56029   0.96125   0.00000  Uiso   1.00
H1750  H     0.23704   0.55723   0.92453   0.00000  Uiso   1.00
H1751  H     0.22426   0.59172   0.96734   0.00000  Uiso   1.00
H1752  H     0.27521   0.55829   0.97811   0.00000  Uiso   1.00
C1753  C     0.09622   0.44043   0.94127   0.00000  Uiso   1.00
H1754  H     0.09539   0.44122   0.90388   0.00000  Uiso   1.00
H1755  H     0.10444   0.40858   0.95152   0.00000  Uiso   1.00
H1756  H     0.05661   0.44498   0.94606   0.00000  Uiso   1.00
C1757  C     0.23712   0.55957   0.72540   0.00000  Uiso   1.00
H1758  H     0.23794   0.55878   0.76278   0.00000  Uiso   1.00
H1759  H     0.27673   0.55501   0.72061   0.00000  Uiso   1.00
H1760  H     0.22891   0.59142   0.71514   0.00000  Uiso   1.00
C1761  C     0.50002   0.42100   0.83345   0.00000  Uiso   1.00
C1762  C     0.49998   0.57900   0.83321   0.00000  Uiso   1.00
C1763  C     0.40148   0.49924   0.82146   0.00000  Uiso   1.00
C1764  C     0.59852   0.50076   0.84521   0.00000  Uiso   1.00
C1765  C     0.34600   0.49341   0.81593   0.00000  Uiso   1.00
C1766  C     0.65400   0.50659   0.85074   0.00000  Uiso   1.00
C1767  C     0.45591   0.35130   0.81256   0.00000  Uiso   1.00
C1768  C     0.54409   0.64871   0.85410   0.00000  Uiso   1.00
C1769  C     0.45705   0.64139   0.80953   0.00000  Uiso   1.00
C1770  C     0.54294   0.35861   0.85714   0.00000  Uiso   1.00
C1771  C     0.50031   0.62376   0.83243   0.00000  Uiso   1.00
C1772  C     0.49969   0.37624   0.83424   0.00000  Uiso   1.00
C1773  C     0.46740   0.47210   0.68663   0.00000  Uiso   1.00
C1774  C     0.53260   0.52791   0.98003   0.00000  Uiso   1.00
C1775  C     0.46722   0.47214   0.97055   0.00000  Uiso   1.00
C1776  C     0.53278   0.52786   0.69612   0.00000  Uiso   1.00
Cu1777 Cu    0.50000   0.50001   0.88022   0.00000  Uiso   1.00
Cu1778 Cu    0.50000   0.49999   0.78645   0.00000  Uiso   1.00
N1779  N     0.50001   0.50001   0.95069   0.00000  Uiso   1.00
N1780  N     0.49999   0.49999   0.71597   0.00000  Uiso   1.00
O1781  O     0.50000   0.43989   0.87291   0.00000  Uiso   1.00
O1782  O     0.50000   0.56011   0.79375   0.00000  Uiso   1.00
O1783  O     0.50000   0.43988   0.79372   0.00000  Uiso   1.00
O1784  O     0.50000   0.56012   0.87294   0.00000  Uiso   1.00
O1785  O     0.42495   0.50000   0.86379   0.00000  Uiso   1.00
O1786  O     0.57505   0.50000   0.80288   0.00000  Uiso   1.00
O1787  O     0.42494   0.49999   0.78460   0.00000  Uiso   1.00
O1788  O     0.57506   0.50001   0.88207   0.00000  Uiso   1.00
C1789  C     0.65392   0.46779   0.77237   0.00000  Uiso   1.00
C1790  C     0.63072   0.42474   0.78401   0.00000  Uiso   1.00
H1791  H     0.65461   0.41192   0.81397   0.00000  Uiso   1.00
H1792  H     0.59190   0.42588   0.79248   0.00000  Uiso   1.00
H1793  H     0.62779   0.40336   0.75348   0.00000  Uiso   1.00
H1794  H     0.62608   0.48457   0.74956   0.00000  Uiso   1.00
H1795  H     0.34874   0.46239   0.74926   0.00000  Uiso   1.00
C1796  C     0.34608   0.53221   0.89430   0.00000  Uiso   1.00
C1797  C     0.36929   0.57525   0.88267   0.00000  Uiso   1.00
H1798  H     0.34538   0.58809   0.85272   0.00000  Uiso   1.00
H1799  H     0.37224   0.59663   0.91321   0.00000  Uiso   1.00
H1800  H     0.40810   0.57412   0.87418   0.00000  Uiso   1.00
H1801  H     0.65126   0.53761   0.91741   0.00000  Uiso   1.00
H1802  H     0.37392   0.51542   0.91711   0.00000  Uiso   1.00
C1803  C     0.40642   0.36998   0.79627   0.00000  Uiso   1.00
H1804  H     0.40818   0.40350   0.80433   0.00000  Uiso   1.00
H1805  H     0.39502   0.36531   0.75818   0.00000  Uiso   1.00
H1806  H     0.37587   0.35520   0.81470   0.00000  Uiso   1.00
C1807  C     0.59358   0.63002   0.87041   0.00000  Uiso   1.00
H1808  H     0.59181   0.59650   0.86234   0.00000  Uiso   1.00
H1809  H     0.60496   0.63469   0.90850   0.00000  Uiso   1.00
H1810  H     0.62413   0.64481   0.85199   0.00000  Uiso   1.00
C1811  C     0.41302   0.61444   0.78041   0.00000  Uiso   1.00
C1812  C     0.41965   0.61366   0.72904   0.00000  Uiso   1.00
H1813  H     0.45580   0.60090   0.72455   0.00000  Uiso   1.00
H1814  H     0.38740   0.59371   0.70886   0.00000  Uiso   1.00
H1815  H     0.42022   0.64530   0.71465   0.00000  Uiso   1.00
H1816  H     0.40977   0.58215   0.79247   0.00000  Uiso   1.00
H1817  H     0.37547   0.62512   0.78368   0.00000  Uiso   1.00
C1818  C     0.58698   0.38556   0.88625   0.00000  Uiso   1.00
C1819  C     0.58035   0.38634   0.93763   0.00000  Uiso   1.00
H1820  H     0.61260   0.40629   0.95781   0.00000  Uiso   1.00
H1821  H     0.54420   0.39910   0.94212   0.00000  Uiso   1.00
H1822  H     0.57978   0.35470   0.95201   0.00000  Uiso   1.00
H1823  H     0.62453   0.37489   0.88299   0.00000  Uiso   1.00
H1824  H     0.59023   0.41785   0.87420   0.00000  Uiso   1.00
C1825  C     0.43122   0.43972   0.70541   0.00000  Uiso   1.00
H1826  H     0.39144   0.44175   0.68857   0.00000  Uiso   1.00
H1827  H     0.44236   0.40828   0.69929   0.00000  Uiso   1.00
H1828  H     0.42963   0.44276   0.74214   0.00000  Uiso   1.00
C1829  C     0.56876   0.56029   0.96125   0.00000  Uiso   1.00
H1830  H     0.57037   0.55723   0.92453   0.00000  Uiso   1.00
H1831  H     0.55759   0.59172   0.96734   0.00000  Uiso   1.00
H1832  H     0.60854   0.55829   0.97811   0.00000  Uiso   1.00
C1833  C     0.42955   0.44043   0.94127   0.00000  Uiso   1.00
H1834  H     0.42872   0.44122   0.90388   0.00000  Uiso   1.00
H1835  H     0.43778   0.40858   0.95152   0.00000  Uiso   1.00
H1836  H     0.38994   0.44498   0.94606   0.00000  Uiso   1.00
C1837  C     0.57045   0.55957   0.72540   0.00000  Uiso   1.00
H1838  H     0.57128   0.55878   0.76278   0.00000  Uiso   1.00
H1839  H     0.61006   0.55501   0.72061   0.00000  Uiso   1.00
H1840  H     0.56224   0.59142   0.71514   0.00000  Uiso   1.00
C1841  C     0.83335   0.42100   0.83345   0.00000  Uiso   1.00
C1842  C     0.83332   0.57900   0.83321   0.00000  Uiso   1.00
C1843  C     0.73482   0.49924   0.82146   0.00000  Uiso   1.00
C1844  C     0.93185   0.50076   0.84521   0.00000  Uiso   1.00
C1845  C     0.67933   0.49341   0.81593   0.00000  Uiso   1.00
C1846  C     0.98734   0.50659   0.85074   0.00000  Uiso   1.00
C1847  C     0.78924   0.35130   0.81256   0.00000  Uiso   1.00
C1848  C     0.87743   0.64871   0.85410   0.00000  Uiso   1.00
C1849  C     0.79039   0.64139   0.80953   0.00000  Uiso   1.00
C1850  C     0.87628   0.35861   0.85714   0.00000  Uiso   1.00
C1851  C     0.83365   0.62376   0.83243   0.00000  Uiso   1.00
C1852  C     0.83302   0.37624   0.83424   0.00000  Uiso   1.00
C1853  C     0.80073   0.47210   0.68663   0.00000  Uiso   1.00
C1854  C     0.86593   0.52791   0.98003   0.00000  Uiso   1.00
C1855  C     0.80055   0.47214   0.97055   0.00000  Uiso   1.00
C1856  C     0.86611   0.52786   0.69612   0.00000  Uiso   1.00
Cu1857 Cu    0.83333   0.50001   0.88022   0.00000  Uiso   1.00
Cu1858 Cu    0.83333   0.49999   0.78645   0.00000  Uiso   1.00
N1859  N     0.83335   0.50001   0.95069   0.00000  Uiso   1.00
N1860  N     0.83332   0.49999   0.71597   0.00000  Uiso   1.00
O1861  O     0.83333   0.43989   0.87291   0.00000  Uiso   1.00
O1862  O     0.83334   0.56011   0.79375   0.00000  Uiso   1.00
O1863  O     0.83333   0.43988   0.79372   0.00000  Uiso   1.00
O1864  O     0.83334   0.56012   0.87294   0.00000  Uiso   1.00
O1865  O     0.75828   0.50000   0.86379   0.00000  Uiso   1.00
O1866  O     0.90839   0.50000   0.80288   0.00000  Uiso   1.00
O1867  O     0.75828   0.49999   0.78460   0.00000  Uiso   1.00
O1868  O     0.90839   0.50001   0.88207   0.00000  Uiso   1.00
C1869  C     0.98725   0.46779   0.77237   0.00000  Uiso   1.00
C1870  C     0.96405   0.42474   0.78401   0.00000  Uiso   1.00
H1871  H     0.98794   0.41192   0.81397   0.00000  Uiso   1.00
H1872  H     0.92523   0.42588   0.79248   0.00000  Uiso   1.00
H1873  H     0.96112   0.40336   0.75348   0.00000  Uiso   1.00
H1874  H     0.95941   0.48457   0.74956   0.00000  Uiso   1.00
H1875  H     0.68208   0.46239   0.74926   0.00000  Uiso   1.00
C1876  C     0.67942   0.53221   0.89430   0.00000  Uiso   1.00
C1877  C     0.70262   0.57525   0.88267   0.00000  Uiso   1.00
H1878  H     0.67872   0.58809   0.85272   0.00000  Uiso   1.00
H1879  H     0.70557   0.59663   0.91321   0.00000  Uiso   1.00
H1880  H     0.74143   0.57412   0.87418   0.00000  Uiso   1.00
H1881  H     0.98459   0.53761   0.91741   0.00000  Uiso   1.00
H1882  H     0.70726   0.51542   0.91711   0.00000  Uiso   1.00
C1883  C     0.73975   0.36998   0.79627   0.00000  Uiso   1.00
H1884  H     0.74152   0.40350   0.80433   0.00000  Uiso   1.00
H1885  H     0.72835   0.36531   0.75818   0.00000  Uiso   1.00
H1886  H     0.70920   0.35520   0.81470   0.00000  Uiso   1.00
C1887  C     0.92691   0.63002   0.87041   0.00000  Uiso   1.00
H1888  H     0.92515   0.59650   0.86234   0.00000  Uiso   1.00
H1889  H     0.93830   0.63469   0.90850   0.00000  Uiso   1.00
H1890  H     0.95747   0.64481   0.85199   0.00000  Uiso   1.00
C1891  C     0.74635   0.61444   0.78041   0.00000  Uiso   1.00
C1892  C     0.75298   0.61366   0.72904   0.00000  Uiso   1.00
H1893  H     0.78914   0.60090   0.72455   0.00000  Uiso   1.00
H1894  H     0.72074   0.59371   0.70886   0.00000  Uiso   1.00
H1895  H     0.75355   0.64530   0.71465   0.00000  Uiso   1.00
H1896  H     0.74310   0.58215   0.79247   0.00000  Uiso   1.00
H1897  H     0.70880   0.62512   0.78368   0.00000  Uiso   1.00
C1898  C     0.92031   0.38556   0.88625   0.00000  Uiso   1.00
C1899  C     0.91369   0.38634   0.93763   0.00000  Uiso   1.00
H1900  H     0.94593   0.40629   0.95781   0.00000  Uiso   1.00
H1901  H     0.87753   0.39910   0.94212   0.00000  Uiso   1.00
H1902  H     0.91311   0.35470   0.95201   0.00000  Uiso   1.00
H1903  H     0.95786   0.37489   0.88299   0.00000  Uiso   1.00
H1904  H     0.92356   0.41785   0.87420   0.00000  Uiso   1.00
C1905  C     0.76456   0.43972   0.70541   0.00000  Uiso   1.00
H1906  H     0.72478   0.44175   0.68857   0.00000  Uiso   1.00
H1907  H     0.77569   0.40828   0.69929   0.00000  Uiso   1.00
H1908  H     0.76297   0.44276   0.74214   0.00000  Uiso   1.00
C1909  C     0.90209   0.56029   0.96125   0.00000  Uiso   1.00
H1910  H     0.90370   0.55723   0.92453   0.00000  Uiso   1.00
H1911  H     0.89093   0.59172   0.96734   0.00000  Uiso   1.00
H1912  H     0.94187   0.55829   0.97811   0.00000  Uiso   1.00
C1913  C     0.76289   0.44043   0.94127   0.00000  Uiso   1.00
H1914  H     0.76206   0.44122   0.90388   0.00000  Uiso   1.00
H1915  H     0.77111   0.40858   0.95152   0.00000  Uiso   1.00
H1916  H     0.72327   0.44498   0.94606   0.00000  Uiso   1.00
C1917  C     0.90378   0.55957   0.72540   0.00000  Uiso   1.00
H1918  H     0.90461   0.55878   0.76278   0.00000  Uiso   1.00
H1919  H     0.94340   0.55501   0.72061   0.00000  Uiso   1.00
H1920  H     0.89557   0.59142   0.71514   0.00000  Uiso   1.00
C1921  C     0.16668   0.75434   0.83345   0.00000  Uiso   1.00
C1922  C     0.16665   0.91233   0.83321   0.00000  Uiso   1.00
C1923  C     0.06815   0.83258   0.82146   0.00000  Uiso   1.00
C1924  C     0.26518   0.83409   0.84521   0.00000  Uiso   1.00
C1925  C     0.01266   0.82674   0.81593   0.00000  Uiso   1.00
C1926  C     0.32067   0.83993   0.85074   0.00000  Uiso   1.00
C1927  C     0.12257   0.68463   0.81256   0.00000  Uiso   1.00
C1928  C     0.21076   0.98204   0.85410   0.00000  Uiso   1.00
C1929  C     0.12372   0.97473   0.80953   0.00000  Uiso   1.00
C1930  C     0.20961   0.69194   0.85714   0.00000  Uiso   1.00
C1931  C     0.16698   0.95710   0.83243   0.00000  Uiso   1.00
C1932  C     0.16635   0.70957   0.83424   0.00000  Uiso   1.00
C1933  C     0.13407   0.80543   0.68663   0.00000  Uiso   1.00
C1934  C     0.19927   0.86124   0.98003   0.00000  Uiso   1.00
C1935  C     0.13389   0.80548   0.97055   0.00000  Uiso   1.00
C1936  C     0.19945   0.86119   0.69612   0.00000  Uiso   1.00
Cu1937 Cu    0.16667   0.83334   0.88022   0.00000  Uiso   1.00
Cu1938 Cu    0.16667   0.83333   0.78645   0.00000  Uiso   1.00
N1939  N     0.16668   0.83334   0.95069   0.00000  Uiso   1.00
N1940  N     0.16665   0.83332   0.71597   0.00000  Uiso   1.00
O1941  O     0.16666   0.77322   0.87291   0.00000  Uiso   1.00
O1942  O     0.16667   0.89345   0.79375   0.00000  Uiso   1.00
O1943  O     0.16666   0.77321   0.79372   0.00000  Uiso   1.00
O1944  O     0.16667   0.89346   0.87294   0.00000  Uiso   1.00
O1945  O     0.09161   0.83334   0.86379   0.00000  Uiso   1.00
O1946  O     0.24172   0.83333   0.80288   0.00000  Uiso   1.00
O1947  O     0.09161   0.83333   0.78460   0.00000  Uiso   1.00
O1948  O     0.24172   0.83334   0.88207   0.00000  Uiso   1.00
C1949  C     0.32058   0.80112   0.77237   0.00000  Uiso   1.00
C1950  C     0.29739   0.75808   0.78401   0.00000  Uiso   1.00
H1951  H     0.32128   0.74525   0.81397   0.00000  Uiso   1.00
H1952  H     0.25856   0.75921   0.79248   0.00000  Uiso   1.00
H1953  H     0.29446   0.73669   0.75348   0.00000  Uiso   1.00
H1954  H     0.29274   0.81791   0.74956   0.00000  Uiso   1.00
H1955  H     0.01541   0.79572   0.74926   0.00000  Uiso   1.00
C1956  C     0.01275   0.86554   0.89430   0.00000  Uiso   1.00
C1957  C     0.03595   0.90859   0.88267   0.00000  Uiso   1.00
H1958  H     0.01205   0.92142   0.85272   0.00000  Uiso   1.00
H1959  H     0.03890   0.92997   0.91321   0.00000  Uiso   1.00
H1960  H     0.07477   0.90745   0.87418   0.00000  Uiso   1.00
H1961  H     0.31792   0.87094   0.91741   0.00000  Uiso   1.00
H1962  H     0.04059   0.84875   0.91711   0.00000  Uiso   1.00
C1963  C     0.07308   0.70331   0.79627   0.00000  Uiso   1.00
H1964  H     0.07485   0.73684   0.80433   0.00000  Uiso   1.00
H1965  H     0.06168   0.69864   0.75818   0.00000  Uiso   1.00
H1966  H     0.04254   0.68853   0.81470   0.00000  Uiso   1.00
C1967  C     0.26025   0.96335   0.87041   0.00000  Uiso   1.00
H1968  H     0.25848   0.92983   0.86234   0.00000  Uiso   1.00
H1969  H     0.27163   0.96802   0.90850   0.00000  Uiso   1.00
H1970  H     0.29080   0.97814   0.85199   0.00000  Uiso   1.00
C1971  C     0.07969   0.94777   0.78041   0.00000  Uiso   1.00
C1972  C     0.08632   0.94699   0.72904   0.00000  Uiso   1.00
H1973  H     0.12247   0.93423   0.72455   0.00000  Uiso   1.00
H1974  H     0.05407   0.92704   0.70886   0.00000  Uiso   1.00
H1975  H     0.08689   0.97863   0.71465   0.00000  Uiso   1.00
H1976  H     0.07643   0.91548   0.79247   0.00000  Uiso   1.00
H1977  H     0.04214   0.95845   0.78368   0.00000  Uiso   1.00
C1978  C     0.25365   0.71890   0.88625   0.00000  Uiso   1.00
C1979  C     0.24702   0.71968   0.93763   0.00000  Uiso   1.00
H1980  H     0.27927   0.73962   0.95781   0.00000  Uiso   1.00
H1981  H     0.21087   0.73243   0.94212   0.00000  Uiso   1.00
H1982  H     0.24645   0.68803   0.95201   0.00000  Uiso   1.00
H1983  H     0.29120   0.70822   0.88299   0.00000  Uiso   1.00
H1984  H     0.25689   0.75119   0.87420   0.00000  Uiso   1.00
C1985  C     0.09789   0.77305   0.70541   0.00000  Uiso   1.00
H1986  H     0.05811   0.77508   0.68857   0.00000  Uiso   1.00
H1987  H     0.10902   0.74162   0.69929   0.00000  Uiso   1.00
H1988  H     0.09630   0.77610   0.74214   0.00000  Uiso   1.00
C1989  C     0.23543   0.89363   0.96125   0.00000  Uiso   1.00
H1990  H     0.23704   0.89057   0.92453   0.00000  Uiso   1.00
H1991  H     0.22426   0.92505   0.96734   0.00000  Uiso   1.00
H1992  H     0.27521   0.89163   0.97811   0.00000  Uiso   1.00
C1993  C     0.09622   0.77376   0.94127   0.00000  Uiso   1.00
H1994  H     0.09539   0.77456   0.90388   0.00000  Uiso   1.00
H1995  H     0.10444   0.74191   0.95152   0.00000  Uiso   1.00
H1996  H     0.05661   0.77832   0.94606   0.00000  Uiso   1.00
C1997  C     0.23712   0.89290   0.72540   0.00000  Uiso   1.00
H1998  H     0.23794   0.89211   0.76278   0.00000  Uiso   1.00
H1999  H     0.27673   0.88834   0.72061   0.00000  Uiso   1.00
H2000  H     0.22891   0.92475   0.71514   0.00000  Uiso   1.00
C2001  C     0.50002   0.75434   0.83345   0.00000  Uiso   1.00
C2002  C     0.49998   0.91233   0.83321   0.00000  Uiso   1.00
C2003  C     0.40148   0.83258   0.82146   0.00000  Uiso   1.00
C2004  C     0.59852   0.83409   0.84521   0.00000  Uiso   1.00
C2005  C     0.34600   0.82674   0.81593   0.00000  Uiso   1.00
C2006  C     0.65400   0.83993   0.85074   0.00000  Uiso   1.00
C2007  C     0.45591   0.68463   0.81256   0.00000  Uiso   1.00
C2008  C     0.54409   0.98204   0.85410   0.00000  Uiso   1.00
C2009  C     0.45705   0.97473   0.80953   0.00000  Uiso   1.00
C2010  C     0.54294   0.69194   0.85714   0.00000  Uiso   1.00
C2011  C     0.50031   0.95710   0.83243   0.00000  Uiso   1.00
C2012  C     0.49969   0.70957   0.83424   0.00000  Uiso   1.00
C2013  C     0.46740   0.80543   0.68663   0.00000  Uiso   1.00
C2014  C     0.53260   0.86124   0.98003   0.00000  Uiso   1.00
C2015  C     0.46722   0.80548   0.97055   0.00000  Uiso   1.00
C2016  C     0.53278   0.86119   0.69612   0.00000  Uiso   1.00
Cu2017 Cu    0.50000   0.83334   0.88022   0.00000  Uiso   1.00
Cu2018 Cu    0.50000   0.83333   0.78645   0.00000  Uiso   1.00
N2019  N     0.50001   0.83334   0.95069   0.00000  Uiso   1.00
N2020  N     0.49999   0.83332   0.71597   0.00000  Uiso   1.00
O2021  O     0.50000   0.77322   0.87291   0.00000  Uiso   1.00
O2022  O     0.50000   0.89345   0.79375   0.00000  Uiso   1.00
O2023  O     0.50000   0.77321   0.79372   0.00000  Uiso   1.00
O2024  O     0.50000   0.89346   0.87294   0.00000  Uiso   1.00
O2025  O     0.42495   0.83334   0.86379   0.00000  Uiso   1.00
O2026  O     0.57505   0.83333   0.80288   0.00000  Uiso   1.00
O2027  O     0.42494   0.83333   0.78460   0.00000  Uiso   1.00
O2028  O     0.57506   0.83334   0.88207   0.00000  Uiso   1.00
C2029  C     0.65392   0.80112   0.77237   0.00000  Uiso   1.00
C2030  C     0.63072   0.75808   0.78401   0.00000  Uiso   1.00
H2031  H     0.65461   0.74525   0.81397   0.00000  Uiso   1.00
H2032  H     0.59190   0.75921   0.79248   0.00000  Uiso   1.00
H2033  H     0.62779   0.73669   0.75348   0.00000  Uiso   1.00
H2034  H     0.62608   0.81791   0.74956   0.00000  Uiso   1.00
H2035  H     0.34874   0.79572   0.74926   0.00000  Uiso   1.00
C2036  C     0.34608   0.86554   0.89430   0.00000  Uiso   1.00
C2037  C     0.36929   0.90859   0.88267   0.00000  Uiso   1.00
H2038  H     0.34538   0.92142   0.85272   0.00000  Uiso   1.00
H2039  H     0.37224   0.92997   0.91321   0.00000  Uiso   1.00
H2040  H     0.40810   0.90745   0.87418   0.00000  Uiso   1.00
H2041  H     0.65126   0.87094   0.91741   0.00000  Uiso   1.00
H2042  H     0.37392   0.84875   0.91711   0.00000  Uiso   1.00
C2043  C     0.40642   0.70331   0.79627   0.00000  Uiso   1.00
H2044  H     0.40818   0.73684   0.80433   0.00000  Uiso   1.00
H2045  H     0.39502   0.69864   0.75818   0.00000  Uiso   1.00
H2046  H     0.37587   0.68853   0.81470   0.00000  Uiso   1.00
C2047  C     0.59358   0.96335   0.87041   0.00000  Uiso   1.00
H2048  H     0.59181   0.92983   0.86234   0.00000  Uiso   1.00
H2049  H     0.60496   0.96802   0.90850   0.00000  Uiso   1.00
H2050  H     0.62413   0.97814   0.85199   0.00000  Uiso   1.00
C2051  C     0.41302   0.94777   0.78041   0.00000  Uiso   1.00
C2052  C     0.41965   0.94699   0.72904   0.00000  Uiso   1.00
H2053  H     0.45580   0.93423   0.72455   0.00000  Uiso   1.00
H2054  H     0.38740   0.92704   0.70886   0.00000  Uiso   1.00
H2055  H     0.42022   0.97863   0.71465   0.00000  Uiso   1.00
H2056  H     0.40977   0.91548   0.79247   0.00000  Uiso   1.00
H2057  H     0.37547   0.95845   0.78368   0.00000  Uiso   1.00
C2058  C     0.58698   0.71890   0.88625   0.00000  Uiso   1.00
C2059  C     0.58035   0.71968   0.93763   0.00000  Uiso   1.00
H2060  H     0.61260   0.73962   0.95781   0.00000  Uiso   1.00
H2061  H     0.54420   0.73243   0.94212   0.00000  Uiso   1.00
H2062  H     0.57978   0.68803   0.95201   0.00000  Uiso   1.00
H2063  H     0.62453   0.70822   0.88299   0.00000  Uiso   1.00
H2064  H     0.59023   0.75119   0.87420   0.00000  Uiso   1.00
C2065  C     0.43122   0.77305   0.70541   0.00000  Uiso   1.00
H2066  H     0.39144   0.77508   0.68857   0.00000  Uiso   1.00
H2067  H     0.44236   0.74162   0.69929   0.00000  Uiso   1.00
H2068  H     0.42963   0.77610   0.74214   0.00000  Uiso   1.00
C2069  C     0.56876   0.89363   0.96125   0.00000  Uiso   1.00
H2070  H     0.57037   0.89057   0.92453   0.00000  Uiso   1.00
H2071  H     0.55759   0.92505   0.96734   0.00000  Uiso   1.00
H2072  H     0.60854   0.89163   0.97811   0.00000  Uiso   1.00
C2073  C     0.42955   0.77376   0.94127   0.00000  Uiso   1.00
H2074  H     0.42872   0.77456   0.90388   0.00000  Uiso   1.00
H2075  H     0.43778   0.74191   0.95152   0.00000  Uiso   1.00
H2076  H     0.38994   0.77832   0.94606   0.00000  Uiso   1.00
C2077  C     0.57045   0.89290   0.72540   0.00000  Uiso   1.00
H2078  H     0.57128   0.89211   0.76278   0.00000  Uiso   1.00
H2079  H     0.61006   0.88834   0.72061   0.00000  Uiso   1.00
H2080  H     0.56224   0.92475   0.71514   0.00000  Uiso   1.00
C2081  C     0.83335   0.75434   0.83345   0.00000  Uiso   1.00
C2082  C     0.83332   0.91233   0.83321   0.00000  Uiso   1.00
C2083  C     0.73482   0.83258   0.82146   0.00000  Uiso   1.00
C2084  C     0.93185   0.83409   0.84521   0.00000  Uiso   1.00
C2085  C     0.67933   0.82674   0.81593   0.00000  Uiso   1.00
C2086  C     0.98734   0.83993   0.85074   0.00000  Uiso   1.00
C2087  C     0.78924   0.68463   0.81256   0.00000  Uiso   1.00
C2088  C     0.87743   0.98204   0.85410   0.00000  Uiso   1.00
C2089  C     0.79039   0.97473   0.80953   0.00000  Uiso   1.00
C2090  C     0.87628   0.69194   0.85714   0.00000  Uiso   1.00
C2091  C     0.83365   0.95710   0.83243   0.00000  Uiso   1.00
C2092  C     0.83302   0.70957   0.83424   0.00000  Uiso   1.00
C2093  C     0.80073   0.80543   0.68663   0.00000  Uiso   1.00
C2094  C     0.86593   0.86124   0.98003   0.00000  Uiso   1.00
C2095  C     0.80055   0.80548   0.97055   0.00000  Uiso   1.00
C2096  C     0.86611   0.86119   0.69612   0.00000  Uiso   1.00
Cu2097 Cu    0.83333   0.83334   0.88022   0.00000  Uiso   1.00
Cu2098 Cu    0.83333   0.83333   0.78645   0.00000  Uiso   1.00
N2099  N     0.83335   0.83334   0.95069   0.00000  Uiso   1.00
N2100  N     0.83332   0.83332   0.71597   0.00000  Uiso   1.00
O2101  O     0.83333   0.77322   0.87291   0.00000  Uiso   1.00
O2102  O     0.83334   0.89345   0.79375   0.00000  Uiso   1.00
O2103  O     0.83333   0.77321   0.79372   0.00000  Uiso   1.00
O2104  O     0.83334   0.89346   0.87294   0.00000  Uiso   1.00
O2105  O     0.75828   0.83334   0.86379   0.00000  Uiso   1.00
O2106  O     0.90839   0.83333   0.80288   0.00000  Uiso   1.00
O2107  O     0.75828   0.83333   0.78460   0.00000  Uiso   1.00
O2108  O     0.90839   0.83334   0.88207   0.00000  Uiso   1.00
C2109  C     0.98725   0.80112   0.77237   0.00000  Uiso   1.00
C2110  C     0.96405   0.75808   0.78401   0.00000  Uiso   1.00
H2111  H     0.98794   0.74525   0.81397   0.00000  Uiso   1.00
H2112  H     0.92523   0.75921   0.79248   0.00000  Uiso   1.00
H2113  H     0.96112   0.73669   0.75348   0.00000  Uiso   1.00
H2114  H     0.95941   0.81791   0.74956   0.00000  Uiso   1.00
H2115  H     0.68208   0.79572   0.74926   0.00000  Uiso   1.00
C2116  C     0.67942   0.86554   0.89430   0.00000  Uiso   1.00
C2117  C     0.70262   0.90859   0.88267   0.00000  Uiso   1.00
H2118  H     0.67872   0.92142   0.85272   0.00000  Uiso   1.00
H2119  H     0.70557   0.92997   0.91321   0.00000  Uiso   1.00
H2120  H     0.74143   0.90745   0.87418   0.00000  Uiso   1.00
H2121  H     0.98459   0.87094   0.91741   0.00000  Uiso   1.00
H2122  H     0.70726   0.84875   0.91711   0.00000  Uiso   1.00
C2123  C     0.73975   0.70331   0.79627   0.00000  Uiso   1.00
H2124  H     0.74152   0.73684   0.80433   0.00000  Uiso   1.00
H2125  H     0.72835   0.69864   0.75818   0.00000  Uiso   1.00
H2126  H     0.70920   0.68853   0.81470   0.00000  Uiso   1.00
C2127  C     0.92691   0.96335   0.87041   0.00000  Uiso   1.00
H2128  H     0.92515   0.92983   0.86234   0.00000  Uiso   1.00
H2129  H     0.93830   0.96802   0.90850   0.00000  Uiso   1.00
H2130  H     0.95747   0.97814   0.85199   0.00000  Uiso   1.00
C2131  C     0.74635   0.94777   0.78041   0.00000  Uiso   1.00
C2132  C     0.75298   0.94699   0.72904   0.00000  Uiso   1.00
H2133  H     0.78914   0.93423   0.72455   0.00000  Uiso   1.00
H2134  H     0.72074   0.92704   0.70886   0.00000  Uiso   1.00
H2135  H     0.75355   0.97863   0.71465   0.00000  Uiso   1.00
H2136  H     0.74310   0.91548   0.79247   0.00000  Uiso   1.00
H2137  H     0.70880   0.95845   0.78368   0.00000  Uiso   1.00
C2138  C     0.92031   0.71890   0.88625   0.00000  Uiso   1.00
C2139  C     0.91369   0.71968   0.93763   0.00000  Uiso   1.00
H2140  H     0.94593   0.73962   0.95781   0.00000  Uiso   1.00
H2141  H     0.87753   0.73243   0.94212   0.00000  Uiso   1.00
H2142  H     0.91311   0.68803   0.95201   0.00000  Uiso   1.00
H2143  H     0.95786   0.70822   0.88299   0.00000  Uiso   1.00
H2144  H     0.92356   0.75119   0.87420   0.00000  Uiso   1.00
C2145  C     0.76456   0.77305   0.70541   0.00000  Uiso   1.00
H2146  H     0.72478   0.77508   0.68857   0.00000  Uiso   1.00
H2147  H     0.77569   0.74162   0.69929   0.00000  Uiso   1.00
H2148  H     0.76297   0.77610   0.74214   0.00000  Uiso   1.00
C2149  C     0.90209   0.89363   0.96125   0.00000  Uiso   1.00
H2150  H     0.90370   0.89057   0.92453   0.00000  Uiso   1.00
H2151  H     0.89093   0.92505   0.96734   0.00000  Uiso   1.00
H2152  H     0.94187   0.89163   0.97811   0.00000  Uiso   1.00
C2153  C     0.76289   0.77376   0.94127   0.00000  Uiso   1.00
H2154  H     0.76206   0.77456   0.90388   0.00000  Uiso   1.00
H2155  H     0.77111   0.74191   0.95152   0.00000  Uiso   1.00
H2156  H     0.72327   0.77832   0.94606   0.00000  Uiso   1.00
C2157  C     0.90378   0.89290   0.72540   0.00000  Uiso   1.00
H2158  H     0.90461   0.89211   0.76278   0.00000  Uiso   1.00
H2159  H     0.94340   0.88834   0.72061   0.00000  Uiso   1.00
H2160  H     0.89557   0.92475   0.71514   0.00000  Uiso   1.00
loop_
_geom_bond_atom_site_label_1
_geom_bond_atom_site_label_2
_geom_bond_distance
_geom_bond_site_symmetry_2
_ccdc_geom_bond_type
C1     O21     1.296   .     A
C1     C12     1.451   .     S
C1     O23     1.309   .     A
C2     O22     1.296   .     A
C2     C11     1.451   .     S
C2     O24     1.309   .     A
C3     O25     1.293   .     A
C3     C5      1.456   .     S
C3     O27     1.316   .     A
C4     O28     1.316   .     A
C4     C6      1.456   .     S
C4     O26     1.293   .     A
C5     C166    1.384   1_455 S
C5     C189    1.539   1_455 S
C6     C85     1.384   .     S
C6     C116    1.539   .     S
C7     C43     1.519   .     S
C7     C12     1.413   .     A
C7     C489    1.407   1_545 S
C8     C47     1.519   .     S
C8     C11     1.413   .     A
C8     C250    1.407   .     S
C9     C51     1.531   .     S
C9     C11     1.416   .     A
C9     C247    1.407   .     S
C10    C58     1.531   .     S
C10    C12     1.416   .     A
C10    C488    1.407   1_545 S
C13    C65     1.512   .     S
C13    N20     1.382   .     A
C13    C1455   1.434   1_554 S
C14    N19     1.382   .     A
C14    C69     1.512   .     S
C14    C736    1.434   .     S
C15    N19     1.381   .     A
C15    C73     1.522   .     S
C15    C733    1.434   .     S
C16    C77     1.522   .     S
C16    N20     1.381   .     A
C16    C1454   1.434   1_554 S
Cu17   N19     2.046   .     S
Cu17   O24     1.961   .     S
Cu17   O21     1.959   .     S
Cu17   Cu18    2.723   .     S
Cu17   O28     1.992   .     S
Cu17   O25     1.985   .     S
Cu18   O26     1.985   .     S
Cu18   O23     1.961   .     S
Cu18   O22     1.959   .     S
Cu18   O27     1.992   .     S
Cu18   N20     2.046   .     S
C29    H34     1.106   .     S
C29    C30     1.529   .     S
C29    C85     1.539   .     S
C29    H115    1.103   .     S
C30    H31     1.108   .     S
C30    H33     1.111   .     S
C30    H32     1.102   .     S
H35    C189    1.103   1_455 S
C36    H42     1.106   .     S
C36    C37     1.529   .     S
C36    C166    1.539   1_455 S
C36    H201    1.103   1_455 S
C37    H38     1.108   .     S
C37    H40     1.102   .     S
C37    H39     1.111   .     S
H41    C116    1.103   .     S
C43    H44     1.105   .     S
C43    H45     1.108   .     S
C43    H46     1.110   .     S
C47    H49     1.108   .     S
C47    H50     1.110   .     S
C47    H48     1.105   .     S
C51    H56     1.105   .     S
C51    H57     1.108   .     S
C51    C52     1.528   .     S
C52    H55     1.109   .     S
C52    H54     1.111   .     S
C52    H53     1.110   .     S
C58    H64     1.105   .     S
C58    C59     1.528   .     S
C58    H63     1.108   .     S
C59    H60     1.111   .     S
C59    H61     1.110   .     S
C59    H62     1.109   .     S
C65    H67     1.110   .     S
C65    H68     1.078   .     S
C65    H66     1.108   .     S
C69    H71     1.110   .     S
C69    H72     1.108   .     S
C69    H70     1.078   .     S
C73    H74     1.083   .     S
C73    H75     1.110   .     S
C73    H76     1.109   .     S
C77    H78     1.083   .     S
C77    H79     1.109   .     S
C77    H80     1.110   .     S
C81    O101    1.296   .     A
C81    C92     1.451   .     S
C81    O103    1.309   .     A
C82    O102    1.296   .     A
C82    C91     1.451   .     S
C82    O104    1.309   .     A
C83    O105    1.293   .     A
C83    C85     1.456   .     S
C83    O107    1.316   .     A
C84    O108    1.316   .     A
C84    C86     1.456   .     S
C84    O106    1.293   .     A
C86    C165    1.384   .     S
C86    C196    1.539   .     S
C87    C123    1.519   .     S
C87    C92     1.413   .     A
C87    C569    1.407   1_545 S
C88    C127    1.519   .     S
C88    C91     1.413   .     A
C88    C330    1.407   .     S
C89    C131    1.531   .     S
C89    C91     1.416   .     A
C89    C327    1.407   .     S
C90    C138    1.531   .     S
C90    C92     1.416   .     A
C90    C568    1.407   1_545 S
C93    C145    1.512   .     S
C93    N100    1.382   .     A
C93    C1535   1.434   1_554 S
C94    N99     1.382   .     A
C94    C149    1.512   .     S
C94    C816    1.434   .     S
C95    N99     1.381   .     A
C95    C153    1.522   .     S
C95    C813    1.434   .     S
C96    C157    1.522   .     S
C96    N100    1.381   .     A
C96    C1534   1.434   1_554 S
Cu97   N99     2.046   .     S
Cu97   O104    1.961   .     S
Cu97   O101    1.959   .     S
Cu97   Cu98    2.723   .     S
Cu97   O108    1.992   .     S
Cu97   O105    1.985   .     S
Cu98   O106    1.985   .     S
Cu98   O103    1.961   .     S
Cu98   O102    1.959   .     S
Cu98   O107    1.992   .     S
Cu98   N100    2.046   .     S
C109   H114    1.106   .     S
C109   C110    1.529   .     S
C109   C165    1.539   .     S
C109   H195    1.103   .     S
C110   H111    1.108   .     S
C110   H113    1.111   .     S
C110   H112    1.102   .     S
C116   H122    1.106   .     S
C116   C117    1.529   .     S
C117   H118    1.108   .     S
C117   H120    1.102   .     S
C117   H119    1.111   .     S
H121   C196    1.103   .     S
C123   H124    1.105   .     S
C123   H125    1.108   .     S
C123   H126    1.110   .     S
C127   H129    1.108   .     S
C127   H130    1.110   .     S
C127   H128    1.105   .     S
C131   H136    1.105   .     S
C131   H137    1.108   .     S
C131   C132    1.528   .     S
C132   H135    1.109   .     S
C132   H134    1.111   .     S
C132   H133    1.110   .     S
C138   H144    1.105   .     S
C138   C139    1.528   .     S
C138   H143    1.108   .     S
C139   H140    1.111   .     S
C139   H141    1.110   .     S
C139   H142    1.109   .     S
C145   H147    1.110   .     S
C145   H148    1.078   .     S
C145   H146    1.108   .     S
C149   H151    1.110   .     S
C149   H152    1.108   .     S
C149   H150    1.078   .     S
C153   H154    1.083   .     S
C153   H155    1.110   .     S
C153   H156    1.109   .     S
C157   H158    1.083   .     S
C157   H159    1.109   .     S
C157   H160    1.110   .     S
C161   O181    1.296   .     A
C161   C172    1.451   .     S
C161   O183    1.309   .     A
C162   O182    1.296   .     A
C162   C171    1.451   .     S
C162   O184    1.309   .     A
C163   O185    1.293   .     A
C163   C165    1.456   .     S
C163   O187    1.316   .     A
C164   O188    1.316   .     A
C164   C166    1.456   .     S
C164   O186    1.293   .     A
C166   C5      1.384   1_655 S
C166   C36     1.539   1_655 S
C167   C203    1.519   .     S
C167   C172    1.413   .     A
C167   C649    1.407   1_545 S
C168   C207    1.519   .     S
C168   C171    1.413   .     A
C168   C410    1.407   .     S
C169   C211    1.531   .     S
C169   C171    1.416   .     A
C169   C407    1.407   .     S
C170   C218    1.531   .     S
C170   C172    1.416   .     A
C170   C648    1.407   1_545 S
C173   C225    1.512   .     S
C173   N180    1.382   .     A
C173   C1615   1.434   1_554 S
C174   N179    1.382   .     A
C174   C229    1.512   .     S
C174   C896    1.434   .     S
C175   N179    1.381   .     A
C175   C233    1.522   .     S
C175   C893    1.434   .     S
C176   C237    1.522   .     S
C176   N180    1.381   .     A
C176   C1614   1.434   1_554 S
Cu177  N179    2.046   .     S
Cu177  O184    1.961   .     S
Cu177  O181    1.959   .     S
Cu177  Cu178   2.723   .     S
Cu177  O188    1.992   .     S
Cu177  O185    1.985   .     S
Cu178  O186    1.985   .     S
Cu178  O183    1.961   .     S
Cu178  O182    1.959   .     S
Cu178  O187    1.992   .     S
Cu178  N180    2.046   .     S
C189   H194    1.106   .     S
C189   C190    1.529   .     S
C189   C5      1.539   1_655 S
C189   H35     1.103   1_655 S
C190   H191    1.108   .     S
C190   H193    1.111   .     S
C190   H192    1.102   .     S
C196   H202    1.106   .     S
C196   C197    1.529   .     S
C197   H198    1.108   .     S
C197   H200    1.102   .     S
C197   H199    1.111   .     S
H201   C36     1.103   1_655 S
C203   H204    1.105   .     S
C203   H205    1.108   .     S
C203   H206    1.110   .     S
C207   H209    1.108   .     S
C207   H210    1.110   .     S
C207   H208    1.105   .     S
C211   H216    1.105   .     S
C211   H217    1.108   .     S
C211   C212    1.528   .     S
C212   H215    1.109   .     S
C212   H214    1.111   .     S
C212   H213    1.110   .     S
C218   H224    1.105   .     S
C218   C219    1.528   .     S
C218   H223    1.108   .     S
C219   H220    1.111   .     S
C219   H221    1.110   .     S
C219   H222    1.109   .     S
C225   H227    1.110   .     S
C225   H228    1.078   .     S
C225   H226    1.108   .     S
C229   H231    1.110   .     S
C229   H232    1.108   .     S
C229   H230    1.078   .     S
C233   H234    1.083   .     S
C233   H235    1.110   .     S
C233   H236    1.109   .     S
C237   H238    1.083   .     S
C237   H239    1.109   .     S
C237   H240    1.110   .     S
C241   O261    1.296   .     A
C241   C252    1.451   .     S
C241   O263    1.309   .     A
C242   O262    1.296   .     A
C242   C251    1.451   .     S
C242   O264    1.309   .     A
C243   O265    1.293   .     A
C243   C245    1.456   .     S
C243   O267    1.316   .     A
C244   O268    1.316   .     A
C244   C246    1.456   .     S
C244   O266    1.293   .     A
C245   C406    1.384   1_455 S
C245   C429    1.539   1_455 S
C246   C325    1.384   .     S
C246   C356    1.539   .     S
C247   C283    1.519   .     S
C247   C252    1.413   .     A
C248   C287    1.519   .     S
C248   C251    1.413   .     A
C248   C490    1.407   .     S
C249   C291    1.531   .     S
C249   C251    1.416   .     A
C249   C487    1.407   .     S
C250   C298    1.531   .     S
C250   C252    1.416   .     A
C253   C305    1.512   .     S
C253   N260    1.382   .     A
C253   C1695   1.434   1_554 S
C254   N259    1.382   .     A
C254   C309    1.512   .     S
C254   C976    1.434   .     S
C255   N259    1.381   .     A
C255   C313    1.522   .     S
C255   C973    1.434   .     S
C256   C317    1.522   .     S
C256   N260    1.381   .     A
C256   C1694   1.434   1_554 S
Cu257  N259    2.046   .     S
Cu257  O264    1.961   .     S
Cu257  O261    1.959   .     S
Cu257  Cu258   2.723   .     S
Cu257  O268    1.992   .     S
Cu257  O265    1.985   .     S
Cu258  O266    1.985   .     S
Cu258  O263    1.961   .     S
Cu258  O262    1.959   .     S
Cu258  O267    1.992   .     S
Cu258  N260    2.046   .     S
C269   H274    1.106   .     S
C269   C270    1.529   .     S
C269   C325    1.539   .     S
C269   H355    1.103   .     S
C270   H271    1.108   .     S
C270   H273    1.111   .     S
C270   H272    1.102   .     S
H275   C429    1.103   1_455 S
C276   H282    1.106   .     S
C276   C277    1.529   .     S
C276   C406    1.539   1_455 S
C276   H441    1.103   1_455 S
C277   H278    1.108   .     S
C277   H280    1.102   .     S
C277   H279    1.111   .     S
H281   C356    1.103   .     S
C283   H284    1.105   .     S
C283   H285    1.108   .     S
C283   H286    1.110   .     S
C287   H289    1.108   .     S
C287   H290    1.110   .     S
C287   H288    1.105   .     S
C291   H296    1.105   .     S
C291   H297    1.108   .     S
C291   C292    1.528   .     S
C292   H295    1.109   .     S
C292   H294    1.111   .     S
C292   H293    1.110   .     S
C298   H304    1.105   .     S
C298   C299    1.528   .     S
C298   H303    1.108   .     S
C299   H300    1.111   .     S
C299   H301    1.110   .     S
C299   H302    1.109   .     S
C305   H307    1.110   .     S
C305   H308    1.078   .     S
C305   H306    1.108   .     S
C309   H311    1.110   .     S
C309   H312    1.108   .     S
C309   H310    1.078   .     S
C313   H314    1.083   .     S
C313   H315    1.110   .     S
C313   H316    1.109   .     S
C317   H318    1.083   .     S
C317   H319    1.109   .     S
C317   H320    1.110   .     S
C321   O341    1.296   .     A
C321   C332    1.451   .     S
C321   O343    1.309   .     A
C322   O342    1.296   .     A
C322   C331    1.451   .     S
C322   O344    1.309   .     A
C323   O345    1.293   .     A
C323   C325    1.456   .     S
C323   O347    1.316   .     A
C324   O348    1.316   .     A
C324   C326    1.456   .     S
C324   O346    1.293   .     A
C326   C405    1.384   .     S
C326   C436    1.539   .     S
C327   C363    1.519   .     S
C327   C332    1.413   .     A
C328   C367    1.519   .     S
C328   C331    1.413   .     A
C328   C570    1.407   .     S
C329   C371    1.531   .     S
C329   C331    1.416   .     A
C329   C567    1.407   .     S
C330   C378    1.531   .     S
C330   C332    1.416   .     A
C333   C385    1.512   .     S
C333   N340    1.382   .     A
C333   C1775   1.434   1_554 S
C334   N339    1.382   .     A
C334   C389    1.512   .     S
C334   C1056   1.434   .     S
C335   N339    1.381   .     A
C335   C393    1.522   .     S
C335   C1053   1.434   .     S
C336   C397    1.522   .     S
C336   N340    1.381   .     A
C336   C1774   1.434   1_554 S
Cu337  N339    2.046   .     S
Cu337  O344    1.961   .     S
Cu337  O341    1.959   .     S
Cu337  Cu338   2.723   .     S
Cu337  O348    1.992   .     S
Cu337  O345    1.985   .     S
Cu338  O346    1.985   .     S
Cu338  O343    1.961   .     S
Cu338  O342    1.959   .     S
Cu338  O347    1.992   .     S
Cu338  N340    2.046   .     S
C349   H354    1.106   .     S
C349   C350    1.529   .     S
C349   C405    1.539   .     S
C349   H435    1.103   .     S
C350   H351    1.108   .     S
C350   H353    1.111   .     S
C350   H352    1.102   .     S
C356   H362    1.106   .     S
C356   C357    1.529   .     S
C357   H358    1.108   .     S
C357   H360    1.102   .     S
C357   H359    1.111   .     S
H361   C436    1.103   .     S
C363   H364    1.105   .     S
C363   H365    1.108   .     S
C363   H366    1.110   .     S
C367   H369    1.108   .     S
C367   H370    1.110   .     S
C367   H368    1.105   .     S
C371   H376    1.105   .     S
C371   H377    1.108   .     S
C371   C372    1.528   .     S
C372   H375    1.109   .     S
C372   H374    1.111   .     S
C372   H373    1.110   .     S
C378   H384    1.105   .     S
C378   C379    1.528   .     S
C378   H383    1.108   .     S
C379   H380    1.111   .     S
C379   H381    1.110   .     S
C379   H382    1.109   .     S
C385   H387    1.110   .     S
C385   H388    1.078   .     S
C385   H386    1.108   .     S
C389   H391    1.110   .     S
C389   H392    1.108   .     S
C389   H390    1.078   .     S
C393   H394    1.083   .     S
C393   H395    1.110   .     S
C393   H396    1.109   .     S
C397   H398    1.083   .     S
C397   H399    1.109   .     S
C397   H400    1.110   .     S
C401   O421    1.296   .     A
C401   C412    1.451   .     S
C401   O423    1.309   .     A
C402   O422    1.296   .     A
C402   C411    1.451   .     S
C402   O424    1.309   .     A
C403   O425    1.293   .     A
C403   C405    1.456   .     S
C403   O427    1.316   .     A
C404   O428    1.316   .     A
C404   C406    1.456   .     S
C404   O426    1.293   .     A
C406   C245    1.384   1_655 S
C406   C276    1.539   1_655 S
C407   C443    1.519   .     S
C407   C412    1.413   .     A
C408   C447    1.519   .     S
C408   C411    1.413   .     A
C408   C650    1.407   .     S
C409   C451    1.531   .     S
C409   C411    1.416   .     A
C409   C647    1.407   .     S
C410   C458    1.531   .     S
C410   C412    1.416   .     A
C413   C465    1.512   .     S
C413   N420    1.382   .     A
C413   C1855   1.434   1_554 S
C414   N419    1.382   .     A
C414   C469    1.512   .     S
C414   C1136   1.434   .     S
C415   N419    1.381   .     A
C415   C473    1.522   .     S
C415   C1133   1.434   .     S
C416   C477    1.522   .     S
C416   N420    1.381   .     A
C416   C1854   1.434   1_554 S
Cu417  N419    2.046   .     S
Cu417  O424    1.961   .     S
Cu417  O421    1.959   .     S
Cu417  Cu418   2.723   .     S
Cu417  O428    1.992   .     S
Cu417  O425    1.985   .     S
Cu418  O426    1.985   .     S
Cu418  O423    1.961   .     S
Cu418  O422    1.959   .     S
Cu418  O427    1.992   .     S
Cu418  N420    2.046   .     S
C429   H434    1.106   .     S
C429   C430    1.529   .     S
C429   C245    1.539   1_655 S
C429   H275    1.103   1_655 S
C430   H431    1.108   .     S
C430   H433    1.111   .     S
C430   H432    1.102   .     S
C436   H442    1.106   .     S
C436   C437    1.529   .     S
C437   H438    1.108   .     S
C437   H440    1.102   .     S
C437   H439    1.111   .     S
H441   C276    1.103   1_655 S
C443   H444    1.105   .     S
C443   H445    1.108   .     S
C443   H446    1.110   .     S
C447   H449    1.108   .     S
C447   H450    1.110   .     S
C447   H448    1.105   .     S
C451   H456    1.105   .     S
C451   H457    1.108   .     S
C451   C452    1.528   .     S
C452   H455    1.109   .     S
C452   H454    1.111   .     S
C452   H453    1.110   .     S
C458   H464    1.105   .     S
C458   C459    1.528   .     S
C458   H463    1.108   .     S
C459   H460    1.111   .     S
C459   H461    1.110   .     S
C459   H462    1.109   .     S
C465   H467    1.110   .     S
C465   H468    1.078   .     S
C465   H466    1.108   .     S
C469   H471    1.110   .     S
C469   H472    1.108   .     S
C469   H470    1.078   .     S
C473   H474    1.083   .     S
C473   H475    1.110   .     S
C473   H476    1.109   .     S
C477   H478    1.083   .     S
C477   H479    1.109   .     S
C477   H480    1.110   .     S
C481   O501    1.296   .     A
C481   C492    1.451   .     S
C481   O503    1.309   .     A
C482   O502    1.296   .     A
C482   C491    1.451   .     S
C482   O504    1.309   .     A
C483   O505    1.293   .     A
C483   C485    1.456   .     S
C483   O507    1.316   .     A
C484   O508    1.316   .     A
C484   C486    1.456   .     S
C484   O506    1.293   .     A
C485   C646    1.384   1_455 S
C485   C669    1.539   1_455 S
C486   C565    1.384   .     S
C486   C596    1.539   .     S
C487   C523    1.519   .     S
C487   C492    1.413   .     A
C488   C527    1.519   .     S
C488   C491    1.413   .     A
C488   C10     1.407   1_565 S
C489   C531    1.531   .     S
C489   C491    1.416   .     A
C489   C7      1.407   1_565 S
C490   C538    1.531   .     S
C490   C492    1.416   .     A
C493   C545    1.512   .     S
C493   N500    1.382   .     A
C493   C1935   1.434   1_554 S
C494   N499    1.382   .     A
C494   C549    1.512   .     S
C494   C1216   1.434   .     S
C495   N499    1.381   .     A
C495   C553    1.522   .     S
C495   C1213   1.434   .     S
C496   C557    1.522   .     S
C496   N500    1.381   .     A
C496   C1934   1.434   1_554 S
Cu497  N499    2.046   .     S
Cu497  O504    1.961   .     S
Cu497  O501    1.959   .     S
Cu497  Cu498   2.723   .     S
Cu497  O508    1.992   .     S
Cu497  O505    1.985   .     S
Cu498  O506    1.985   .     S
Cu498  O503    1.961   .     S
Cu498  O502    1.959   .     S
Cu498  O507    1.992   .     S
Cu498  N500    2.046   .     S
C509   H514    1.106   .     S
C509   C510    1.529   .     S
C509   C565    1.539   .     S
C509   H595    1.103   .     S
C510   H511    1.108   .     S
C510   H513    1.111   .     S
C510   H512    1.102   .     S
H515   C669    1.103   1_455 S
C516   H522    1.106   .     S
C516   C517    1.529   .     S
C516   C646    1.539   1_455 S
C516   H681    1.103   1_455 S
C517   H518    1.108   .     S
C517   H520    1.102   .     S
C517   H519    1.111   .     S
H521   C596    1.103   .     S
C523   H524    1.105   .     S
C523   H525    1.108   .     S
C523   H526    1.110   .     S
C527   H529    1.108   .     S
C527   H530    1.110   .     S
C527   H528    1.105   .     S
C531   H536    1.105   .     S
C531   H537    1.108   .     S
C531   C532    1.528   .     S
C532   H535    1.109   .     S
C532   H534    1.111   .     S
C532   H533    1.110   .     S
C538   H544    1.105   .     S
C538   C539    1.528   .     S
C538   H543    1.108   .     S
C539   H540    1.111   .     S
C539   H541    1.110   .     S
C539   H542    1.109   .     S
C545   H547    1.110   .     S
C545   H548    1.078   .     S
C545   H546    1.108   .     S
C549   H551    1.110   .     S
C549   H552    1.108   .     S
C549   H550    1.078   .     S
C553   H554    1.083   .     S
C553   H555    1.110   .     S
C553   H556    1.109   .     S
C557   H558    1.083   .     S
C557   H559    1.109   .     S
C557   H560    1.110   .     S
C561   O581    1.296   .     A
C561   C572    1.451   .     S
C561   O583    1.309   .     A
C562   O582    1.296   .     A
C562   C571    1.451   .     S
C562   O584    1.309   .     A
C563   O585    1.293   .     A
C563   C565    1.456   .     S
C563   O587    1.316   .     A
C564   O588    1.316   .     A
C564   C566    1.456   .     S
C564   O586    1.293   .     A
C566   C645    1.384   .     S
C566   C676    1.539   .     S
C567   C603    1.519   .     S
C567   C572    1.413   .     A
C568   C607    1.519   .     S
C568   C571    1.413   .     A
C568   C90     1.407   1_565 S
C569   C611    1.531   .     S
C569   C571    1.416   .     A
C569   C87     1.407   1_565 S
C570   C618    1.531   .     S
C570   C572    1.416   .     A
C573   C625    1.512   .     S
C573   N580    1.382   .     A
C573   C2015   1.434   1_554 S
C574   N579    1.382   .     A
C574   C629    1.512   .     S
C574   C1296   1.434   .     S
C575   N579    1.381   .     A
C575   C633    1.522   .     S
C575   C1293   1.434   .     S
C576   C637    1.522   .     S
C576   N580    1.381   .     A
C576   C2014   1.434   1_554 S
Cu577  N579    2.046   .     S
Cu577  O584    1.961   .     S
Cu577  O581    1.959   .     S
Cu577  Cu578   2.723   .     S
Cu577  O588    1.992   .     S
Cu577  O585    1.985   .     S
Cu578  O586    1.985   .     S
Cu578  O583    1.961   .     S
Cu578  O582    1.959   .     S
Cu578  O587    1.992   .     S
Cu578  N580    2.046   .     S
C589   H594    1.106   .     S
C589   C590    1.529   .     S
C589   C645    1.539   .     S
C589   H675    1.103   .     S
C590   H591    1.108   .     S
C590   H593    1.111   .     S
C590   H592    1.102   .     S
C596   H602    1.106   .     S
C596   C597    1.529   .     S
C597   H598    1.108   .     S
C597   H600    1.102   .     S
C597   H599    1.111   .     S
H601   C676    1.103   .     S
C603   H604    1.105   .     S
C603   H605    1.108   .     S
C603   H606    1.110   .     S
C607   H609    1.108   .     S
C607   H610    1.110   .     S
C607   H608    1.105   .     S
C611   H616    1.105   .     S
C611   H617    1.108   .     S
C611   C612    1.528   .     S
C612   H615    1.109   .     S
C612   H614    1.111   .     S
C612   H613    1.110   .     S
C618   H624    1.105   .     S
C618   C619    1.528   .     S
C618   H623    1.108   .     S
C619   H620    1.111   .     S
C619   H621    1.110   .     S
C619   H622    1.109   .     S
C625   H627    1.110   .     S
C625   H628    1.078   .     S
C625   H626    1.108   .     S
C629   H631    1.110   .     S
C629   H632    1.108   .     S
C629   H630    1.078   .     S
C633   H634    1.083   .     S
C633   H635    1.110   .     S
C633   H636    1.109   .     S
C637   H638    1.083   .     S
C637   H639    1.109   .     S
C637   H640    1.110   .     S
C641   O661    1.296   .     A
C641   C652    1.451   .     S
C641   O663    1.309   .     A
C642   O662    1.296   .     A
C642   C651    1.451   .     S
C642   O664    1.309   .     A
C643   O665    1.293   .     A
C643   C645    1.456   .     S
C643   O667    1.316   .     A
C644   O668    1.316   .     A
C644   C646    1.456   .     S
C644   O666    1.293   .     A
C646   C485    1.384   1_655 S
C646   C516    1.539   1_655 S
C647   C683    1.519   .     S
C647   C652    1.413   .     A
C648   C687    1.519   .     S
C648   C651    1.413   .     A
C648   C170    1.407   1_565 S
C649   C691    1.531   .     S
C649   C651    1.416   .     A
C649   C167    1.407   1_565 S
C650   C698    1.531   .     S
C650   C652    1.416   .     A
C653   C705    1.512   .     S
C653   N660    1.382   .     A
C653   C2095   1.434   1_554 S
C654   N659    1.382   .     A
C654   C709    1.512   .     S
C654   C1376   1.434   .     S
C655   N659    1.381   .     A
C655   C713    1.522   .     S
C655   C1373   1.434   .     S
C656   C717    1.522   .     S
C656   N660    1.381   .     A
C656   C2094   1.434   1_554 S
Cu657  N659    2.046   .     S
Cu657  O664    1.961   .     S
Cu657  O661    1.959   .     S
Cu657  Cu658   2.723   .     S
Cu657  O668    1.992   .     S
Cu657  O665    1.985   .     S
Cu658  O666    1.985   .     S
Cu658  O663    1.961   .     S
Cu658  O662    1.959   .     S
Cu658  O667    1.992   .     S
Cu658  N660    2.046   .     S
C669   H674    1.106   .     S
C669   C670    1.529   .     S
C669   C485    1.539   1_655 S
C669   H515    1.103   1_655 S
C670   H671    1.108   .     S
C670   H673    1.111   .     S
C670   H672    1.102   .     S
C676   H682    1.106   .     S
C676   C677    1.529   .     S
C677   H678    1.108   .     S
C677   H680    1.102   .     S
C677   H679    1.111   .     S
H681   C516    1.103   1_655 S
C683   H684    1.105   .     S
C683   H685    1.108   .     S
C683   H686    1.110   .     S
C687   H689    1.108   .     S
C687   H690    1.110   .     S
C687   H688    1.105   .     S
C691   H696    1.105   .     S
C691   H697    1.108   .     S
C691   C692    1.528   .     S
C692   H695    1.109   .     S
C692   H694    1.111   .     S
C692   H693    1.110   .     S
C698   H704    1.105   .     S
C698   C699    1.528   .     S
C698   H703    1.108   .     S
C699   H700    1.111   .     S
C699   H701    1.110   .     S
C699   H702    1.109   .     S
C705   H707    1.110   .     S
C705   H708    1.078   .     S
C705   H706    1.108   .     S
C709   H711    1.110   .     S
C709   H712    1.108   .     S
C709   H710    1.078   .     S
C713   H714    1.083   .     S
C713   H715    1.110   .     S
C713   H716    1.109   .     S
C717   H718    1.083   .     S
C717   H719    1.109   .     S
C717   H720    1.110   .     S
C721   O741    1.296   .     A
C721   C732    1.451   .     S
C721   O743    1.309   .     A
C722   O742    1.296   .     A
C722   C731    1.451   .     S
C722   O744    1.309   .     A
C723   O745    1.293   .     A
C723   C725    1.456   .     S
C723   O747    1.316   .     A
C724   O748    1.316   .     A
C724   C726    1.456   .     S
C724   O746    1.293   .     A
C725   C886    1.384   1_455 S
C725   C909    1.539   1_455 S
C726   C805    1.384   .     S
C726   C836    1.539   .     S
C727   C763    1.519   .     S
C727   C732    1.413   .     A
C727   C1209   1.407   1_545 S
C728   C767    1.519   .     S
C728   C731    1.413   .     A
C728   C970    1.407   .     S
C729   C771    1.531   .     S
C729   C731    1.416   .     A
C729   C967    1.407   .     S
C730   C778    1.531   .     S
C730   C732    1.416   .     A
C730   C1208   1.407   1_545 S
C733   C785    1.512   .     S
C733   N740    1.382   .     A
C734   N739    1.382   .     A
C734   C789    1.512   .     S
C734   C1456   1.434   .     S
C735   N739    1.381   .     A
C735   C793    1.522   .     S
C735   C1453   1.434   .     S
C736   C797    1.522   .     S
C736   N740    1.381   .     A
Cu737  N739    2.046   .     S
Cu737  O744    1.961   .     S
Cu737  O741    1.959   .     S
Cu737  Cu738   2.723   .     S
Cu737  O748    1.992   .     S
Cu737  O745    1.985   .     S
Cu738  O746    1.985   .     S
Cu738  O743    1.961   .     S
Cu738  O742    1.959   .     S
Cu738  O747    1.992   .     S
Cu738  N740    2.046   .     S
C749   H754    1.106   .     S
C749   C750    1.529   .     S
C749   C805    1.539   .     S
C749   H835    1.103   .     S
C750   H751    1.108   .     S
C750   H753    1.111   .     S
C750   H752    1.102   .     S
H755   C909    1.103   1_455 S
C756   H762    1.106   .     S
C756   C757    1.529   .     S
C756   C886    1.539   1_455 S
C756   H921    1.103   1_455 S
C757   H758    1.108   .     S
C757   H760    1.102   .     S
C757   H759    1.111   .     S
H761   C836    1.103   .     S
C763   H764    1.105   .     S
C763   H765    1.108   .     S
C763   H766    1.110   .     S
C767   H769    1.108   .     S
C767   H770    1.110   .     S
C767   H768    1.105   .     S
C771   H776    1.105   .     S
C771   H777    1.108   .     S
C771   C772    1.528   .     S
C772   H775    1.109   .     S
C772   H774    1.111   .     S
C772   H773    1.110   .     S
C778   H784    1.105   .     S
C778   C779    1.528   .     S
C778   H783    1.108   .     S
C779   H780    1.111   .     S
C779   H781    1.110   .     S
C779   H782    1.109   .     S
C785   H787    1.110   .     S
C785   H788    1.078   .     S
C785   H786    1.108   .     S
C789   H791    1.110   .     S
C789   H792    1.108   .     S
C789   H790    1.078   .     S
C793   H794    1.083   .     S
C793   H795    1.110   .     S
C793   H796    1.109   .     S
C797   H798    1.083   .     S
C797   H799    1.109   .     S
C797   H800    1.110   .     S
C801   O821    1.296   .     A
C801   C812    1.451   .     S
C801   O823    1.309   .     A
C802   O822    1.296   .     A
C802   C811    1.451   .     S
C802   O824    1.309   .     A
C803   O825    1.293   .     A
C803   C805    1.456   .     S
C803   O827    1.316   .     A
C804   O828    1.316   .     A
C804   C806    1.456   .     S
C804   O826    1.293   .     A
C806   C885    1.384   .     S
C806   C916    1.539   .     S
C807   C843    1.519   .     S
C807   C812    1.413   .     A
C807   C1289   1.407   1_545 S
C808   C847    1.519   .     S
C808   C811    1.413   .     A
C808   C1050   1.407   .     S
C809   C851    1.531   .     S
C809   C811    1.416   .     A
C809   C1047   1.407   .     S
C810   C858    1.531   .     S
C810   C812    1.416   .     A
C810   C1288   1.407   1_545 S
C813   C865    1.512   .     S
C813   N820    1.382   .     A
C814   N819    1.382   .     A
C814   C869    1.512   .     S
C814   C1536   1.434   .     S
C815   N819    1.381   .     A
C815   C873    1.522   .     S
C815   C1533   1.434   .     S
C816   C877    1.522   .     S
C816   N820    1.381   .     A
Cu817  N819    2.046   .     S
Cu817  O824    1.961   .     S
Cu817  O821    1.959   .     S
Cu817  Cu818   2.723   .     S
Cu817  O828    1.992   .     S
Cu817  O825    1.985   .     S
Cu818  O826    1.985   .     S
Cu818  O823    1.961   .     S
Cu818  O822    1.959   .     S
Cu818  O827    1.992   .     S
Cu818  N820    2.046   .     S
C829   H834    1.106   .     S
C829   C830    1.529   .     S
C829   C885    1.539   .     S
C829   H915    1.103   .     S
C830   H831    1.108   .     S
C830   H833    1.111   .     S
C830   H832    1.102   .     S
C836   H842    1.106   .     S
C836   C837    1.529   .     S
C837   H838    1.108   .     S
C837   H840    1.102   .     S
C837   H839    1.111   .     S
H841   C916    1.103   .     S
C843   H844    1.105   .     S
C843   H845    1.108   .     S
C843   H846    1.110   .     S
C847   H849    1.108   .     S
C847   H850    1.110   .     S
C847   H848    1.105   .     S
C851   H856    1.105   .     S
C851   H857    1.108   .     S
C851   C852    1.528   .     S
C852   H855    1.109   .     S
C852   H854    1.111   .     S
C852   H853    1.110   .     S
C858   H864    1.105   .     S
C858   C859    1.528   .     S
C858   H863    1.108   .     S
C859   H860    1.111   .     S
C859   H861    1.110   .     S
C859   H862    1.109   .     S
C865   H867    1.110   .     S
C865   H868    1.078   .     S
C865   H866    1.108   .     S
C869   H871    1.110   .     S
C869   H872    1.108   .     S
C869   H870    1.078   .     S
C873   H874    1.083   .     S
C873   H875    1.110   .     S
C873   H876    1.109   .     S
C877   H878    1.083   .     S
C877   H879    1.109   .     S
C877   H880    1.110   .     S
C881   O901    1.296   .     A
C881   C892    1.451   .     S
C881   O903    1.309   .     A
C882   O902    1.296   .     A
C882   C891    1.451   .     S
C882   O904    1.309   .     A
C883   O905    1.293   .     A
C883   C885    1.456   .     S
C883   O907    1.316   .     A
C884   O908    1.316   .     A
C884   C886    1.456   .     S
C884   O906    1.293   .     A
C886   C725    1.384   1_655 S
C886   C756    1.539   1_655 S
C887   C923    1.519   .     S
C887   C892    1.413   .     A
C887   C1369   1.407   1_545 S
C888   C927    1.519   .     S
C888   C891    1.413   .     A
C888   C1130   1.407   .     S
C889   C931    1.531   .     S
C889   C891    1.416   .     A
C889   C1127   1.407   .     S
C890   C938    1.531   .     S
C890   C892    1.416   .     A
C890   C1368   1.407   1_545 S
C893   C945    1.512   .     S
C893   N900    1.382   .     A
C894   N899    1.382   .     A
C894   C949    1.512   .     S
C894   C1616   1.434   .     S
C895   N899    1.381   .     A
C895   C953    1.522   .     S
C895   C1613   1.434   .     S
C896   C957    1.522   .     S
C896   N900    1.381   .     A
Cu897  N899    2.046   .     S
Cu897  O904    1.961   .     S
Cu897  O901    1.959   .     S
Cu897  Cu898   2.723   .     S
Cu897  O908    1.992   .     S
Cu897  O905    1.985   .     S
Cu898  O906    1.985   .     S
Cu898  O903    1.961   .     S
Cu898  O902    1.959   .     S
Cu898  O907    1.992   .     S
Cu898  N900    2.046   .     S
C909   H914    1.106   .     S
C909   C910    1.529   .     S
C909   C725    1.539   1_655 S
C909   H755    1.103   1_655 S
C910   H911    1.108   .     S
C910   H913    1.111   .     S
C910   H912    1.102   .     S
C916   H922    1.106   .     S
C916   C917    1.529   .     S
C917   H918    1.108   .     S
C917   H920    1.102   .     S
C917   H919    1.111   .     S
H921   C756    1.103   1_655 S
C923   H924    1.105   .     S
C923   H925    1.108   .     S
C923   H926    1.110   .     S
C927   H929    1.108   .     S
C927   H930    1.110   .     S
C927   H928    1.105   .     S
C931   H936    1.105   .     S
C931   H937    1.108   .     S
C931   C932    1.528   .     S
C932   H935    1.109   .     S
C932   H934    1.111   .     S
C932   H933    1.110   .     S
C938   H944    1.105   .     S
C938   C939    1.528   .     S
C938   H943    1.108   .     S
C939   H940    1.111   .     S
C939   H941    1.110   .     S
C939   H942    1.109   .     S
C945   H947    1.110   .     S
C945   H948    1.078   .     S
C945   H946    1.108   .     S
C949   H951    1.110   .     S
C949   H952    1.108   .     S
C949   H950    1.078   .     S
C953   H954    1.083   .     S
C953   H955    1.110   .     S
C953   H956    1.109   .     S
C957   H958    1.083   .     S
C957   H959    1.109   .     S
C957   H960    1.110   .     S
C961   O981    1.296   .     A
C961   C972    1.451   .     S
C961   O983    1.309   .     A
C962   O982    1.296   .     A
C962   C971    1.451   .     S
C962   O984    1.309   .     A
C963   O985    1.293   .     A
C963   C965    1.456   .     S
C963   O987    1.316   .     A
C964   O988    1.316   .     A
C964   C966    1.456   .     S
C964   O986    1.293   .     A
C965   C1126   1.384   1_455 S
C965   C1149   1.539   1_455 S
C966   C1045   1.384   .     S
C966   C1076   1.539   .     S
C967   C1003   1.519   .     S
C967   C972    1.413   .     A
C968   C1007   1.519   .     S
C968   C971    1.413   .     A
C968   C1210   1.407   .     S
C969   C1011   1.531   .     S
C969   C971    1.416   .     A
C969   C1207   1.407   .     S
C970   C1018   1.531   .     S
C970   C972    1.416   .     A
C973   C1025   1.512   .     S
C973   N980    1.382   .     A
C974   N979    1.382   .     A
C974   C1029   1.512   .     S
C974   C1696   1.434   .     S
C975   N979    1.381   .     A
C975   C1033   1.522   .     S
C975   C1693   1.434   .     S
C976   C1037   1.522   .     S
C976   N980    1.381   .     A
Cu977  N979    2.046   .     S
Cu977  O984    1.961   .     S
Cu977  O981    1.959   .     S
Cu977  Cu978   2.723   .     S
Cu977  O988    1.992   .     S
Cu977  O985    1.985   .     S
Cu978  O986    1.985   .     S
Cu978  O983    1.961   .     S
Cu978  O982    1.959   .     S
Cu978  O987    1.992   .     S
Cu978  N980    2.046   .     S
C989   H994    1.106   .     S
C989   C990    1.529   .     S
C989   C1045   1.539   .     S
C989   H1075   1.103   .     S
C990   H991    1.108   .     S
C990   H993    1.111   .     S
C990   H992    1.102   .     S
H995   C1149   1.103   1_455 S
C996   H1002   1.106   .     S
C996   C997    1.529   .     S
C996   C1126   1.539   1_455 S
C996   H1161   1.103   1_455 S
C997   H998    1.108   .     S
C997   H1000   1.102   .     S
C997   H999    1.111   .     S
H1001  C1076   1.103   .     S
C1003  H1004   1.105   .     S
C1003  H1005   1.108   .     S
C1003  H1006   1.110   .     S
C1007  H1009   1.108   .     S
C1007  H1010   1.110   .     S
C1007  H1008   1.105   .     S
C1011  H1016   1.105   .     S
C1011  H1017   1.108   .     S
C1011  C1012   1.528   .     S
C1012  H1015   1.109   .     S
C1012  H1014   1.111   .     S
C1012  H1013   1.110   .     S
C1018  H1024   1.105   .     S
C1018  C1019   1.528   .     S
C1018  H1023   1.108   .     S
C1019  H1020   1.111   .     S
C1019  H1021   1.110   .     S
C1019  H1022   1.109   .     S
C1025  H1027   1.110   .     S
C1025  H1028   1.078   .     S
C1025  H1026   1.108   .     S
C1029  H1031   1.110   .     S
C1029  H1032   1.108   .     S
C1029  H1030   1.078   .     S
C1033  H1034   1.083   .     S
C1033  H1035   1.110   .     S
C1033  H1036   1.109   .     S
C1037  H1038   1.083   .     S
C1037  H1039   1.109   .     S
C1037  H1040   1.110   .     S
C1041  O1061   1.296   .     A
C1041  C1052   1.451   .     S
C1041  O1063   1.309   .     A
C1042  O1062   1.296   .     A
C1042  C1051   1.451   .     S
C1042  O1064   1.309   .     A
C1043  O1065   1.293   .     A
C1043  C1045   1.456   .     S
C1043  O1067   1.316   .     A
C1044  O1068   1.316   .     A
C1044  C1046   1.456   .     S
C1044  O1066   1.293   .     A
C1046  C1125   1.384   .     S
C1046  C1156   1.539   .     S
C1047  C1083   1.519   .     S
C1047  C1052   1.413   .     A
C1048  C1087   1.519   .     S
C1048  C1051   1.413   .     A
C1048  C1290   1.407   .     S
C1049  C1091   1.531   .     S
C1049  C1051   1.416   .     A
C1049  C1287   1.407   .     S
C1050  C1098   1.531   .     S
C1050  C1052   1.416   .     A
C1053  C1105   1.512   .     S
C1053  N1060   1.382   .     A
C1054  N1059   1.382   .     A
C1054  C1109   1.512   .     S
C1054  C1776   1.434   .     S
C1055  N1059   1.381   .     A
C1055  C1113   1.522   .     S
C1055  C1773   1.434   .     S
C1056  C1117   1.522   .     S
C1056  N1060   1.381   .     A
Cu1057 N1059   2.046   .     S
Cu1057 O1064   1.961   .     S
Cu1057 O1061   1.959   .     S
Cu1057 Cu1058  2.723   .     S
Cu1057 O1068   1.992   .     S
Cu1057 O1065   1.985   .     S
Cu1058 O1066   1.985   .     S
Cu1058 O1063   1.961   .     S
Cu1058 O1062   1.959   .     S
Cu1058 O1067   1.992   .     S
Cu1058 N1060   2.046   .     S
C1069  H1074   1.106   .     S
C1069  C1070   1.529   .     S
C1069  C1125   1.539   .     S
C1069  H1155   1.103   .     S
C1070  H1071   1.108   .     S
C1070  H1073   1.111   .     S
C1070  H1072   1.102   .     S
C1076  H1082   1.106   .     S
C1076  C1077   1.529   .     S
C1077  H1078   1.108   .     S
C1077  H1080   1.102   .     S
C1077  H1079   1.111   .     S
H1081  C1156   1.103   .     S
C1083  H1084   1.105   .     S
C1083  H1085   1.108   .     S
C1083  H1086   1.110   .     S
C1087  H1089   1.108   .     S
C1087  H1090   1.110   .     S
C1087  H1088   1.105   .     S
C1091  H1096   1.105   .     S
C1091  H1097   1.108   .     S
C1091  C1092   1.528   .     S
C1092  H1095   1.109   .     S
C1092  H1094   1.111   .     S
C1092  H1093   1.110   .     S
C1098  H1104   1.105   .     S
C1098  C1099   1.528   .     S
C1098  H1103   1.108   .     S
C1099  H1100   1.111   .     S
C1099  H1101   1.110   .     S
C1099  H1102   1.109   .     S
C1105  H1107   1.110   .     S
C1105  H1108   1.078   .     S
C1105  H1106   1.108   .     S
C1109  H1111   1.110   .     S
C1109  H1112   1.108   .     S
C1109  H1110   1.078   .     S
C1113  H1114   1.083   .     S
C1113  H1115   1.110   .     S
C1113  H1116   1.109   .     S
C1117  H1118   1.083   .     S
C1117  H1119   1.109   .     S
C1117  H1120   1.110   .     S
C1121  O1141   1.296   .     A
C1121  C1132   1.451   .     S
C1121  O1143   1.309   .     A
C1122  O1142   1.296   .     A
C1122  C1131   1.451   .     S
C1122  O1144   1.309   .     A
C1123  O1145   1.293   .     A
C1123  C1125   1.456   .     S
C1123  O1147   1.316   .     A
C1124  O1148   1.316   .     A
C1124  C1126   1.456   .     S
C1124  O1146   1.293   .     A
C1126  C965    1.384   1_655 S
C1126  C996    1.539   1_655 S
C1127  C1163   1.519   .     S
C1127  C1132   1.413   .     A
C1128  C1167   1.519   .     S
C1128  C1131   1.413   .     A
C1128  C1370   1.407   .     S
C1129  C1171   1.531   .     S
C1129  C1131   1.416   .     A
C1129  C1367   1.407   .     S
C1130  C1178   1.531   .     S
C1130  C1132   1.416   .     A
C1133  C1185   1.512   .     S
C1133  N1140   1.382   .     A
C1134  N1139   1.382   .     A
C1134  C1189   1.512   .     S
C1134  C1856   1.434   .     S
C1135  N1139   1.381   .     A
C1135  C1193   1.522   .     S
C1135  C1853   1.434   .     S
C1136  C1197   1.522   .     S
C1136  N1140   1.381   .     A
Cu1137 N1139   2.046   .     S
Cu1137 O1144   1.961   .     S
Cu1137 O1141   1.959   .     S
Cu1137 Cu1138  2.723   .     S
Cu1137 O1148   1.992   .     S
Cu1137 O1145   1.985   .     S
Cu1138 O1146   1.985   .     S
Cu1138 O1143   1.961   .     S
Cu1138 O1142   1.959   .     S
Cu1138 O1147   1.992   .     S
Cu1138 N1140   2.046   .     S
C1149  H1154   1.106   .     S
C1149  C1150   1.529   .     S
C1149  C965    1.539   1_655 S
C1149  H995    1.103   1_655 S
C1150  H1151   1.108   .     S
C1150  H1153   1.111   .     S
C1150  H1152   1.102   .     S
C1156  H1162   1.106   .     S
C1156  C1157   1.529   .     S
C1157  H1158   1.108   .     S
C1157  H1160   1.102   .     S
C1157  H1159   1.111   .     S
H1161  C996    1.103   1_655 S
C1163  H1164   1.105   .     S
C1163  H1165   1.108   .     S
C1163  H1166   1.110   .     S
C1167  H1169   1.108   .     S
C1167  H1170   1.110   .     S
C1167  H1168   1.105   .     S
C1171  H1176   1.105   .     S
C1171  H1177   1.108   .     S
C1171  C1172   1.528   .     S
C1172  H1175   1.109   .     S
C1172  H1174   1.111   .     S
C1172  H1173   1.110   .     S
C1178  H1184   1.105   .     S
C1178  C1179   1.528   .     S
C1178  H1183   1.108   .     S
C1179  H1180   1.111   .     S
C1179  H1181   1.110   .     S
C1179  H1182   1.109   .     S
C1185  H1187   1.110   .     S
C1185  H1188   1.078   .     S
C1185  H1186   1.108   .     S
C1189  H1191   1.110   .     S
C1189  H1192   1.108   .     S
C1189  H1190   1.078   .     S
C1193  H1194   1.083   .     S
C1193  H1195   1.110   .     S
C1193  H1196   1.109   .     S
C1197  H1198   1.083   .     S
C1197  H1199   1.109   .     S
C1197  H1200   1.110   .     S
C1201  O1221   1.296   .     A
C1201  C1212   1.451   .     S
C1201  O1223   1.309   .     A
C1202  O1222   1.296   .     A
C1202  C1211   1.451   .     S
C1202  O1224   1.309   .     A
C1203  O1225   1.293   .     A
C1203  C1205   1.456   .     S
C1203  O1227   1.316   .     A
C1204  O1228   1.316   .     A
C1204  C1206   1.456   .     S
C1204  O1226   1.293   .     A
C1205  C1366   1.384   1_455 S
C1205  C1389   1.539   1_455 S
C1206  C1285   1.384   .     S
C1206  C1316   1.539   .     S
C1207  C1243   1.519   .     S
C1207  C1212   1.413   .     A
C1208  C1247   1.519   .     S
C1208  C1211   1.413   .     A
C1208  C730    1.407   1_565 S
C1209  C1251   1.531   .     S
C1209  C1211   1.416   .     A
C1209  C727    1.407   1_565 S
C1210  C1258   1.531   .     S
C1210  C1212   1.416   .     A
C1213  C1265   1.512   .     S
C1213  N1220   1.382   .     A
C1214  N1219   1.382   .     A
C1214  C1269   1.512   .     S
C1214  C1936   1.434   .     S
C1215  N1219   1.381   .     A
C1215  C1273   1.522   .     S
C1215  C1933   1.434   .     S
C1216  C1277   1.522   .     S
C1216  N1220   1.381   .     A
Cu1217 N1219   2.046   .     S
Cu1217 O1224   1.961   .     S
Cu1217 O1221   1.959   .     S
Cu1217 Cu1218  2.723   .     S
Cu1217 O1228   1.992   .     S
Cu1217 O1225   1.985   .     S
Cu1218 O1226   1.985   .     S
Cu1218 O1223   1.961   .     S
Cu1218 O1222   1.959   .     S
Cu1218 O1227   1.992   .     S
Cu1218 N1220   2.046   .     S
C1229  H1234   1.106   .     S
C1229  C1230   1.529   .     S
C1229  C1285   1.539   .     S
C1229  H1315   1.103   .     S
C1230  H1231   1.108   .     S
C1230  H1233   1.111   .     S
C1230  H1232   1.102   .     S
H1235  C1389   1.103   1_455 S
C1236  H1242   1.106   .     S
C1236  C1237   1.529   .     S
C1236  C1366   1.539   1_455 S
C1236  H1401   1.103   1_455 S
C1237  H1238   1.108   .     S
C1237  H1240   1.102   .     S
C1237  H1239   1.111   .     S
H1241  C1316   1.103   .     S
C1243  H1244   1.105   .     S
C1243  H1245   1.108   .     S
C1243  H1246   1.110   .     S
C1247  H1249   1.108   .     S
C1247  H1250   1.110   .     S
C1247  H1248   1.105   .     S
C1251  H1256   1.105   .     S
C1251  H1257   1.108   .     S
C1251  C1252   1.528   .     S
C1252  H1255   1.109   .     S
C1252  H1254   1.111   .     S
C1252  H1253   1.110   .     S
C1258  H1264   1.105   .     S
C1258  C1259   1.528   .     S
C1258  H1263   1.108   .     S
C1259  H1260   1.111   .     S
C1259  H1261   1.110   .     S
C1259  H1262   1.109   .     S
C1265  H1267   1.110   .     S
C1265  H1268   1.078   .     S
C1265  H1266   1.108   .     S
C1269  H1271   1.110   .     S
C1269  H1272   1.108   .     S
C1269  H1270   1.078   .     S
C1273  H1274   1.083   .     S
C1273  H1275   1.110   .     S
C1273  H1276   1.109   .     S
C1277  H1278   1.083   .     S
C1277  H1279   1.109   .     S
C1277  H1280   1.110   .     S
C1281  O1301   1.296   .     A
C1281  C1292   1.451   .     S
C1281  O1303   1.309   .     A
C1282  O1302   1.296   .     A
C1282  C1291   1.451   .     S
C1282  O1304   1.309   .     A
C1283  O1305   1.293   .     A
C1283  C1285   1.456   .     S
C1283  O1307   1.316   .     A
C1284  O1308   1.316   .     A
C1284  C1286   1.456   .     S
C1284  O1306   1.293   .     A
C1286  C1365   1.384   .     S
C1286  C1396   1.539   .     S
C1287  C1323   1.519   .     S
C1287  C1292   1.413   .     A
C1288  C1327   1.519   .     S
C1288  C1291   1.413   .     A
C1288  C810    1.407   1_565 S
C1289  C1331   1.531   .     S
C1289  C1291   1.416   .     A
C1289  C807    1.407   1_565 S
C1290  C1338   1.531   .     S
C1290  C1292   1.416   .     A
C1293  C1345   1.512   .     S
C1293  N1300   1.382   .     A
C1294  N1299   1.382   .     A
C1294  C1349   1.512   .     S
C1294  C2016   1.434   .     S
C1295  N1299   1.381   .     A
C1295  C1353   1.522   .     S
C1295  C2013   1.434   .     S
C1296  C1357   1.522   .     S
C1296  N1300   1.381   .     A
Cu1297 N1299   2.046   .     S
Cu1297 O1304   1.961   .     S
Cu1297 O1301   1.959   .     S
Cu1297 Cu1298  2.723   .     S
Cu1297 O1308   1.992   .     S
Cu1297 O1305   1.985   .     S
Cu1298 O1306   1.985   .     S
Cu1298 O1303   1.961   .     S
Cu1298 O1302   1.959   .     S
Cu1298 O1307   1.992   .     S
Cu1298 N1300   2.046   .     S
C1309  H1314   1.106   .     S
C1309  C1310   1.529   .     S
C1309  C1365   1.539   .     S
C1309  H1395   1.103   .     S
C1310  H1311   1.108   .     S
C1310  H1313   1.111   .     S
C1310  H1312   1.102   .     S
C1316  H1322   1.106   .     S
C1316  C1317   1.529   .     S
C1317  H1318   1.108   .     S
C1317  H1320   1.102   .     S
C1317  H1319   1.111   .     S
H1321  C1396   1.103   .     S
C1323  H1324   1.105   .     S
C1323  H1325   1.108   .     S
C1323  H1326   1.110   .     S
C1327  H1329   1.108   .     S
C1327  H1330   1.110   .     S
C1327  H1328   1.105   .     S
C1331  H1336   1.105   .     S
C1331  H1337   1.108   .     S
C1331  C1332   1.528   .     S
C1332  H1335   1.109   .     S
C1332  H1334   1.111   .     S
C1332  H1333   1.110   .     S
C1338  H1344   1.105   .     S
C1338  C1339   1.528   .     S
C1338  H1343   1.108   .     S
C1339  H1340   1.111   .     S
C1339  H1341   1.110   .     S
C1339  H1342   1.109   .     S
C1345  H1347   1.110   .     S
C1345  H1348   1.078   .     S
C1345  H1346   1.108   .     S
C1349  H1351   1.110   .     S
C1349  H1352   1.108   .     S
C1349  H1350   1.078   .     S
C1353  H1354   1.083   .     S
C1353  H1355   1.110   .     S
C1353  H1356   1.109   .     S
C1357  H1358   1.083   .     S
C1357  H1359   1.109   .     S
C1357  H1360   1.110   .     S
C1361  O1381   1.296   .     A
C1361  C1372   1.451   .     S
C1361  O1383   1.309   .     A
C1362  O1382   1.296   .     A
C1362  C1371   1.451   .     S
C1362  O1384   1.309   .     A
C1363  O1385   1.293   .     A
C1363  C1365   1.456   .     S
C1363  O1387   1.316   .     A
C1364  O1388   1.316   .     A
C1364  C1366   1.456   .     S
C1364  O1386   1.293   .     A
C1366  C1205   1.384   1_655 S
C1366  C1236   1.539   1_655 S
C1367  C1403   1.519   .     S
C1367  C1372   1.413   .     A
C1368  C1407   1.519   .     S
C1368  C1371   1.413   .     A
C1368  C890    1.407   1_565 S
C1369  C1411   1.531   .     S
C1369  C1371   1.416   .     A
C1369  C887    1.407   1_565 S
C1370  C1418   1.531   .     S
C1370  C1372   1.416   .     A
C1373  C1425   1.512   .     S
C1373  N1380   1.382   .     A
C1374  N1379   1.382   .     A
C1374  C1429   1.512   .     S
C1374  C2096   1.434   .     S
C1375  N1379   1.381   .     A
C1375  C1433   1.522   .     S
C1375  C2093   1.434   .     S
C1376  C1437   1.522   .     S
C1376  N1380   1.381   .     A
Cu1377 N1379   2.046   .     S
Cu1377 O1384   1.961   .     S
Cu1377 O1381   1.959   .     S
Cu1377 Cu1378  2.723   .     S
Cu1377 O1388   1.992   .     S
Cu1377 O1385   1.985   .     S
Cu1378 O1386   1.985   .     S
Cu1378 O1383   1.961   .     S
Cu1378 O1382   1.959   .     S
Cu1378 O1387   1.992   .     S
Cu1378 N1380   2.046   .     S
C1389  H1394   1.106   .     S
C1389  C1390   1.529   .     S
C1389  C1205   1.539   1_655 S
C1389  H1235   1.103   1_655 S
C1390  H1391   1.108   .     S
C1390  H1393   1.111   .     S
C1390  H1392   1.102   .     S
C1396  H1402   1.106   .     S
C1396  C1397   1.529   .     S
C1397  H1398   1.108   .     S
C1397  H1400   1.102   .     S
C1397  H1399   1.111   .     S
H1401  C1236   1.103   1_655 S
C1403  H1404   1.105   .     S
C1403  H1405   1.108   .     S
C1403  H1406   1.110   .     S
C1407  H1409   1.108   .     S
C1407  H1410   1.110   .     S
C1407  H1408   1.105   .     S
C1411  H1416   1.105   .     S
C1411  H1417   1.108   .     S
C1411  C1412   1.528   .     S
C1412  H1415   1.109   .     S
C1412  H1414   1.111   .     S
C1412  H1413   1.110   .     S
C1418  H1424   1.105   .     S
C1418  C1419   1.528   .     S
C1418  H1423   1.108   .     S
C1419  H1420   1.111   .     S
C1419  H1421   1.110   .     S
C1419  H1422   1.109   .     S
C1425  H1427   1.110   .     S
C1425  H1428   1.078   .     S
C1425  H1426   1.108   .     S
C1429  H1431   1.110   .     S
C1429  H1432   1.108   .     S
C1429  H1430   1.078   .     S
C1433  H1434   1.083   .     S
C1433  H1435   1.110   .     S
C1433  H1436   1.109   .     S
C1437  H1438   1.083   .     S
C1437  H1439   1.109   .     S
C1437  H1440   1.110   .     S
C1441  O1461   1.296   .     A
C1441  C1452   1.451   .     S
C1441  O1463   1.309   .     A
C1442  O1462   1.296   .     A
C1442  C1451   1.451   .     S
C1442  O1464   1.309   .     A
C1443  O1465   1.293   .     A
C1443  C1445   1.456   .     S
C1443  O1467   1.316   .     A
C1444  O1468   1.316   .     A
C1444  C1446   1.456   .     S
C1444  O1466   1.293   .     A
C1445  C1606   1.384   1_455 S
C1445  C1629   1.539   1_455 S
C1446  C1525   1.384   .     S
C1446  C1556   1.539   .     S
C1447  C1483   1.519   .     S
C1447  C1452   1.413   .     A
C1447  C1929   1.407   1_545 S
C1448  C1487   1.519   .     S
C1448  C1451   1.413   .     A
C1448  C1690   1.407   .     S
C1449  C1491   1.531   .     S
C1449  C1451   1.416   .     A
C1449  C1687   1.407   .     S
C1450  C1498   1.531   .     S
C1450  C1452   1.416   .     A
C1450  C1928   1.407   1_545 S
C1453  C1505   1.512   .     S
C1453  N1460   1.382   .     A
C1454  N1459   1.382   .     A
C1454  C1509   1.512   .     S
C1454  C16     1.434   1_556 S
C1455  N1459   1.381   .     A
C1455  C1513   1.522   .     S
C1455  C13     1.434   1_556 S
C1456  C1517   1.522   .     S
C1456  N1460   1.381   .     A
Cu1457 N1459   2.046   .     S
Cu1457 O1464   1.961   .     S
Cu1457 O1461   1.959   .     S
Cu1457 Cu1458  2.723   .     S
Cu1457 O1468   1.992   .     S
Cu1457 O1465   1.985   .     S
Cu1458 O1466   1.985   .     S
Cu1458 O1463   1.961   .     S
Cu1458 O1462   1.959   .     S
Cu1458 O1467   1.992   .     S
Cu1458 N1460   2.046   .     S
C1469  H1474   1.106   .     S
C1469  C1470   1.529   .     S
C1469  C1525   1.539   .     S
C1469  H1555   1.103   .     S
C1470  H1471   1.108   .     S
C1470  H1473   1.111   .     S
C1470  H1472   1.102   .     S
H1475  C1629   1.103   1_455 S
C1476  H1482   1.106   .     S
C1476  C1477   1.529   .     S
C1476  C1606   1.539   1_455 S
C1476  H1641   1.103   1_455 S
C1477  H1478   1.108   .     S
C1477  H1480   1.102   .     S
C1477  H1479   1.111   .     S
H1481  C1556   1.103   .     S
C1483  H1484   1.105   .     S
C1483  H1485   1.108   .     S
C1483  H1486   1.110   .     S
C1487  H1489   1.108   .     S
C1487  H1490   1.110   .     S
C1487  H1488   1.105   .     S
C1491  H1496   1.105   .     S
C1491  H1497   1.108   .     S
C1491  C1492   1.528   .     S
C1492  H1495   1.109   .     S
C1492  H1494   1.111   .     S
C1492  H1493   1.110   .     S
C1498  H1504   1.105   .     S
C1498  C1499   1.528   .     S
C1498  H1503   1.108   .     S
C1499  H1500   1.111   .     S
C1499  H1501   1.110   .     S
C1499  H1502   1.109   .     S
C1505  H1507   1.110   .     S
C1505  H1508   1.078   .     S
C1505  H1506   1.108   .     S
C1509  H1511   1.110   .     S
C1509  H1512   1.108   .     S
C1509  H1510   1.078   .     S
C1513  H1514   1.083   .     S
C1513  H1515   1.110   .     S
C1513  H1516   1.109   .     S
C1517  H1518   1.083   .     S
C1517  H1519   1.109   .     S
C1517  H1520   1.110   .     S
C1521  O1541   1.296   .     A
C1521  C1532   1.451   .     S
C1521  O1543   1.309   .     A
C1522  O1542   1.296   .     A
C1522  C1531   1.451   .     S
C1522  O1544   1.309   .     A
C1523  O1545   1.293   .     A
C1523  C1525   1.456   .     S
C1523  O1547   1.316   .     A
C1524  O1548   1.316   .     A
C1524  C1526   1.456   .     S
C1524  O1546   1.293   .     A
C1526  C1605   1.384   .     S
C1526  C1636   1.539   .     S
C1527  C1563   1.519   .     S
C1527  C1532   1.413   .     A
C1527  C2009   1.407   1_545 S
C1528  C1567   1.519   .     S
C1528  C1531   1.413   .     A
C1528  C1770   1.407   .     S
C1529  C1571   1.531   .     S
C1529  C1531   1.416   .     A
C1529  C1767   1.407   .     S
C1530  C1578   1.531   .     S
C1530  C1532   1.416   .     A
C1530  C2008   1.407   1_545 S
C1533  C1585   1.512   .     S
C1533  N1540   1.382   .     A
C1534  N1539   1.382   .     A
C1534  C1589   1.512   .     S
C1534  C96     1.434   1_556 S
C1535  N1539   1.381   .     A
C1535  C1593   1.522   .     S
C1535  C93     1.434   1_556 S
C1536  C1597   1.522   .     S
C1536  N1540   1.381   .     A
Cu1537 N1539   2.046   .     S
Cu1537 O1544   1.961   .     S
Cu1537 O1541   1.959   .     S
Cu1537 Cu1538  2.723   .     S
Cu1537 O1548   1.992   .     S
Cu1537 O1545   1.985   .     S
Cu1538 O1546   1.985   .     S
Cu1538 O1543   1.961   .     S
Cu1538 O1542   1.959   .     S
Cu1538 O1547   1.992   .     S
Cu1538 N1540   2.046   .     S
C1549  H1554   1.106   .     S
C1549  C1550   1.529   .     S
C1549  C1605   1.539   .     S
C1549  H1635   1.103   .     S
C1550  H1551   1.108   .     S
C1550  H1553   1.111   .     S
C1550  H1552   1.102   .     S
C1556  H1562   1.106   .     S
C1556  C1557   1.529   .     S
C1557  H1558   1.108   .     S
C1557  H1560   1.102   .     S
C1557  H1559   1.111   .     S
H1561  C1636   1.103   .     S
C1563  H1564   1.105   .     S
C1563  H1565   1.108   .     S
C1563  H1566   1.110   .     S
C1567  H1569   1.108   .     S
C1567  H1570   1.110   .     S
C1567  H1568   1.105   .     S
C1571  H1576   1.105   .     S
C1571  H1577   1.108   .     S
C1571  C1572   1.528   .     S
C1572  H1575   1.109   .     S
C1572  H1574   1.111   .     S
C1572  H1573   1.110   .     S
C1578  H1584   1.105   .     S
C1578  C1579   1.528   .     S
C1578  H1583   1.108   .     S
C1579  H1580   1.111   .     S
C1579  H1581   1.110   .     S
C1579  H1582   1.109   .     S
C1585  H1587   1.110   .     S
C1585  H1588   1.078   .     S
C1585  H1586   1.108   .     S
C1589  H1591   1.110   .     S
C1589  H1592   1.108   .     S
C1589  H1590   1.078   .     S
C1593  H1594   1.083   .     S
C1593  H1595   1.110   .     S
C1593  H1596   1.109   .     S
C1597  H1598   1.083   .     S
C1597  H1599   1.109   .     S
C1597  H1600   1.110   .     S
C1601  O1621   1.296   .     A
C1601  C1612   1.451   .     S
C1601  O1623   1.309   .     A
C1602  O1622   1.296   .     A
C1602  C1611   1.451   .     S
C1602  O1624   1.309   .     A
C1603  O1625   1.293   .     A
C1603  C1605   1.456   .     S
C1603  O1627   1.316   .     A
C1604  O1628   1.316   .     A
C1604  C1606   1.456   .     S
C1604  O1626   1.293   .     A
C1606  C1445   1.384   1_655 S
C1606  C1476   1.539   1_655 S
C1607  C1643   1.519   .     S
C1607  C1612   1.413   .     A
C1607  C2089   1.407   1_545 S
C1608  C1647   1.519   .     S
C1608  C1611   1.413   .     A
C1608  C1850   1.407   .     S
C1609  C1651   1.531   .     S
C1609  C1611   1.416   .     A
C1609  C1847   1.407   .     S
C1610  C1658   1.531   .     S
C1610  C1612   1.416   .     A
C1610  C2088   1.407   1_545 S
C1613  C1665   1.512   .     S
C1613  N1620   1.382   .     A
C1614  N1619   1.382   .     A
C1614  C1669   1.512   .     S
C1614  C176    1.434   1_556 S
C1615  N1619   1.381   .     A
C1615  C1673   1.522   .     S
C1615  C173    1.434   1_556 S
C1616  C1677   1.522   .     S
C1616  N1620   1.381   .     A
Cu1617 N1619   2.046   .     S
Cu1617 O1624   1.961   .     S
Cu1617 O1621   1.959   .     S
Cu1617 Cu1618  2.723   .     S
Cu1617 O1628   1.992   .     S
Cu1617 O1625   1.985   .     S
Cu1618 O1626   1.985   .     S
Cu1618 O1623   1.961   .     S
Cu1618 O1622   1.959   .     S
Cu1618 O1627   1.992   .     S
Cu1618 N1620   2.046   .     S
C1629  H1634   1.106   .     S
C1629  C1630   1.529   .     S
C1629  C1445   1.539   1_655 S
C1629  H1475   1.103   1_655 S
C1630  H1631   1.108   .     S
C1630  H1633   1.111   .     S
C1630  H1632   1.102   .     S
C1636  H1642   1.106   .     S
C1636  C1637   1.529   .     S
C1637  H1638   1.108   .     S
C1637  H1640   1.102   .     S
C1637  H1639   1.111   .     S
H1641  C1476   1.103   1_655 S
C1643  H1644   1.105   .     S
C1643  H1645   1.108   .     S
C1643  H1646   1.110   .     S
C1647  H1649   1.108   .     S
C1647  H1650   1.110   .     S
C1647  H1648   1.105   .     S
C1651  H1656   1.105   .     S
C1651  H1657   1.108   .     S
C1651  C1652   1.528   .     S
C1652  H1655   1.109   .     S
C1652  H1654   1.111   .     S
C1652  H1653   1.110   .     S
C1658  H1664   1.105   .     S
C1658  C1659   1.528   .     S
C1658  H1663   1.108   .     S
C1659  H1660   1.111   .     S
C1659  H1661   1.110   .     S
C1659  H1662   1.109   .     S
C1665  H1667   1.110   .     S
C1665  H1668   1.078   .     S
C1665  H1666   1.108   .     S
C1669  H1671   1.110   .     S
C1669  H1672   1.108   .     S
C1669  H1670   1.078   .     S
C1673  H1674   1.083   .     S
C1673  H1675   1.110   .     S
C1673  H1676   1.109   .     S
C1677  H1678   1.083   .     S
C1677  H1679   1.109   .     S
C1677  H1680   1.110   .     S
C1681  O1701   1.296   .     A
C1681  C1692   1.451   .     S
C1681  O1703   1.309   .     A
C1682  O1702   1.296   .     A
C1682  C1691   1.451   .     S
C1682  O1704   1.309   .     A
C1683  O1705   1.293   .     A
C1683  C1685   1.456   .     S
C1683  O1707   1.316   .     A
C1684  O1708   1.316   .     A
C1684  C1686   1.456   .     S
C1684  O1706   1.293   .     A
C1685  C1846   1.384   1_455 S
C1685  C1869   1.539   1_455 S
C1686  C1765   1.384   .     S
C1686  C1796   1.539   .     S
C1687  C1723   1.519   .     S
C1687  C1692   1.413   .     A
C1688  C1727   1.519   .     S
C1688  C1691   1.413   .     A
C1688  C1930   1.407   .     S
C1689  C1731   1.531   .     S
C1689  C1691   1.416   .     A
C1689  C1927   1.407   .     S
C1690  C1738   1.531   .     S
C1690  C1692   1.416   .     A
C1693  C1745   1.512   .     S
C1693  N1700   1.382   .     A
C1694  N1699   1.382   .     A
C1694  C1749   1.512   .     S
C1694  C256    1.434   1_556 S
C1695  N1699   1.381   .     A
C1695  C1753   1.522   .     S
C1695  C253    1.434   1_556 S
C1696  C1757   1.522   .     S
C1696  N1700   1.381   .     A
Cu1697 N1699   2.046   .     S
Cu1697 O1704   1.961   .     S
Cu1697 O1701   1.959   .     S
Cu1697 Cu1698  2.723   .     S
Cu1697 O1708   1.992   .     S
Cu1697 O1705   1.985   .     S
Cu1698 O1706   1.985   .     S
Cu1698 O1703   1.961   .     S
Cu1698 O1702   1.959   .     S
Cu1698 O1707   1.992   .     S
Cu1698 N1700   2.046   .     S
C1709  H1714   1.106   .     S
C1709  C1710   1.529   .     S
C1709  C1765   1.539   .     S
C1709  H1795   1.103   .     S
C1710  H1711   1.108   .     S
C1710  H1713   1.111   .     S
C1710  H1712   1.102   .     S
H1715  C1869   1.103   1_455 S
C1716  H1722   1.106   .     S
C1716  C1717   1.529   .     S
C1716  C1846   1.539   1_455 S
C1716  H1881   1.103   1_455 S
C1717  H1718   1.108   .     S
C1717  H1720   1.102   .     S
C1717  H1719   1.111   .     S
H1721  C1796   1.103   .     S
C1723  H1724   1.105   .     S
C1723  H1725   1.108   .     S
C1723  H1726   1.110   .     S
C1727  H1729   1.108   .     S
C1727  H1730   1.110   .     S
C1727  H1728   1.105   .     S
C1731  H1736   1.105   .     S
C1731  H1737   1.108   .     S
C1731  C1732   1.528   .     S
C1732  H1735   1.109   .     S
C1732  H1734   1.111   .     S
C1732  H1733   1.110   .     S
C1738  H1744   1.105   .     S
C1738  C1739   1.528   .     S
C1738  H1743   1.108   .     S
C1739  H1740   1.111   .     S
C1739  H1741   1.110   .     S
C1739  H1742   1.109   .     S
C1745  H1747   1.110   .     S
C1745  H1748   1.078   .     S
C1745  H1746   1.108   .     S
C1749  H1751   1.110   .     S
C1749  H1752   1.108   .     S
C1749  H1750   1.078   .     S
C1753  H1754   1.083   .     S
C1753  H1755   1.110   .     S
C1753  H1756   1.109   .     S
C1757  H1758   1.083   .     S
C1757  H1759   1.109   .     S
C1757  H1760   1.110   .     S
C1761  O1781   1.296   .     A
C1761  C1772   1.451   .     S
C1761  O1783   1.309   .     A
C1762  O1782   1.296   .     A
C1762  C1771   1.451   .     S
C1762  O1784   1.309   .     A
C1763  O1785   1.293   .     A
C1763  C1765   1.456   .     S
C1763  O1787   1.316   .     A
C1764  O1788   1.316   .     A
C1764  C1766   1.456   .     S
C1764  O1786   1.293   .     A
C1766  C1845   1.384   .     S
C1766  C1876   1.539   .     S
C1767  C1803   1.519   .     S
C1767  C1772   1.413   .     A
C1768  C1807   1.519   .     S
C1768  C1771   1.413   .     A
C1768  C2010   1.407   .     S
C1769  C1811   1.531   .     S
C1769  C1771   1.416   .     A
C1769  C2007   1.407   .     S
C1770  C1818   1.531   .     S
C1770  C1772   1.416   .     A
C1773  C1825   1.512   .     S
C1773  N1780   1.382   .     A
C1774  N1779   1.382   .     A
C1774  C1829   1.512   .     S
C1774  C336    1.434   1_556 S
C1775  N1779   1.381   .     A
C1775  C1833   1.522   .     S
C1775  C333    1.434   1_556 S
C1776  C1837   1.522   .     S
C1776  N1780   1.381   .     A
Cu1777 N1779   2.046   .     S
Cu1777 O1784   1.961   .     S
Cu1777 O1781   1.959   .     S
Cu1777 Cu1778  2.723   .     S
Cu1777 O1788   1.992   .     S
Cu1777 O1785   1.985   .     S
Cu1778 O1786   1.985   .     S
Cu1778 O1783   1.961   .     S
Cu1778 O1782   1.959   .     S
Cu1778 O1787   1.992   .     S
Cu1778 N1780   2.046   .     S
C1789  H1794   1.106   .     S
C1789  C1790   1.529   .     S
C1789  C1845   1.539   .     S
C1789  H1875   1.103   .     S
C1790  H1791   1.108   .     S
C1790  H1793   1.111   .     S
C1790  H1792   1.102   .     S
C1796  H1802   1.106   .     S
C1796  C1797   1.529   .     S
C1797  H1798   1.108   .     S
C1797  H1800   1.102   .     S
C1797  H1799   1.111   .     S
H1801  C1876   1.103   .     S
C1803  H1804   1.105   .     S
C1803  H1805   1.108   .     S
C1803  H1806   1.110   .     S
C1807  H1809   1.108   .     S
C1807  H1810   1.110   .     S
C1807  H1808   1.105   .     S
C1811  H1816   1.105   .     S
C1811  H1817   1.108   .     S
C1811  C1812   1.528   .     S
C1812  H1815   1.109   .     S
C1812  H1814   1.111   .     S
C1812  H1813   1.110   .     S
C1818  H1824   1.105   .     S
C1818  C1819   1.528   .     S
C1818  H1823   1.108   .     S
C1819  H1820   1.111   .     S
C1819  H1821   1.110   .     S
C1819  H1822   1.109   .     S
C1825  H1827   1.110   .     S
C1825  H1828   1.078   .     S
C1825  H1826   1.108   .     S
C1829  H1831   1.110   .     S
C1829  H1832   1.108   .     S
C1829  H1830   1.078   .     S
C1833  H1834   1.083   .     S
C1833  H1835   1.110   .     S
C1833  H1836   1.109   .     S
C1837  H1838   1.083   .     S
C1837  H1839   1.109   .     S
C1837  H1840   1.110   .     S
C1841  O1861   1.296   .     A
C1841  C1852   1.451   .     S
C1841  O1863   1.309   .     A
C1842  O1862   1.296   .     A
C1842  C1851   1.451   .     S
C1842  O1864   1.309   .     A
C1843  O1865   1.293   .     A
C1843  C1845   1.456   .     S
C1843  O1867   1.316   .     A
C1844  O1868   1.316   .     A
C1844  C1846   1.456   .     S
C1844  O1866   1.293   .     A
C1846  C1685   1.384   1_655 S
C1846  C1716   1.539   1_655 S
C1847  C1883   1.519   .     S
C1847  C1852   1.413   .     A
C1848  C1887   1.519   .     S
C1848  C1851   1.413   .     A
C1848  C2090   1.407   .     S
C1849  C1891   1.531   .     S
C1849  C1851   1.416   .     A
C1849  C2087   1.407   .     S
C1850  C1898   1.531   .     S
C1850  C1852   1.416   .     A
C1853  C1905   1.512   .     S
C1853  N1860   1.382   .     A
C1854  N1859   1.382   .     A
C1854  C1909   1.512   .     S
C1854  C416    1.434   1_556 S
C1855  N1859   1.381   .     A
C1855  C1913   1.522   .     S
C1855  C413    1.434   1_556 S
C1856  C1917   1.522   .     S
C1856  N1860   1.381   .     A
Cu1857 N1859   2.046   .     S
Cu1857 O1864   1.961   .     S
Cu1857 O1861   1.959   .     S
Cu1857 Cu1858  2.723   .     S
Cu1857 O1868   1.992   .     S
Cu1857 O1865   1.985   .     S
Cu1858 O1866   1.985   .     S
Cu1858 O1863   1.961   .     S
Cu1858 O1862   1.959   .     S
Cu1858 O1867   1.992   .     S
Cu1858 N1860   2.046   .     S
C1869  H1874   1.106   .     S
C1869  C1870   1.529   .     S
C1869  C1685   1.539   1_655 S
C1869  H1715   1.103   1_655 S
C1870  H1871   1.108   .     S
C1870  H1873   1.111   .     S
C1870  H1872   1.102   .     S
C1876  H1882   1.106   .     S
C1876  C1877   1.529   .     S
C1877  H1878   1.108   .     S
C1877  H1880   1.102   .     S
C1877  H1879   1.111   .     S
H1881  C1716   1.103   1_655 S
C1883  H1884   1.105   .     S
C1883  H1885   1.108   .     S
C1883  H1886   1.110   .     S
C1887  H1889   1.108   .     S
C1887  H1890   1.110   .     S
C1887  H1888   1.105   .     S
C1891  H1896   1.105   .     S
C1891  H1897   1.108   .     S
C1891  C1892   1.528   .     S
C1892  H1895   1.109   .     S
C1892  H1894   1.111   .     S
C1892  H1893   1.110   .     S
C1898  H1904   1.105   .     S
C1898  C1899   1.528   .     S
C1898  H1903   1.108   .     S
C1899  H1900   1.111   .     S
C1899  H1901   1.110   .     S
C1899  H1902   1.109   .     S
C1905  H1907   1.110   .     S
C1905  H1908   1.078   .     S
C1905  H1906   1.108   .     S
C1909  H1911   1.110   .     S
C1909  H1912   1.108   .     S
C1909  H1910   1.078   .     S
C1913  H1914   1.083   .     S
C1913  H1915   1.110   .     S
C1913  H1916   1.109   .     S
C1917  H1918   1.083   .     S
C1917  H1919   1.109   .     S
C1917  H1920   1.110   .     S
C1921  O1941   1.296   .     A
C1921  C1932   1.451   .     S
C1921  O1943   1.309   .     A
C1922  O1942   1.296   .     A
C1922  C1931   1.451   .     S
C1922  O1944   1.309   .     A
C1923  O1945   1.293   .     A
C1923  C1925   1.456   .     S
C1923  O1947   1.316   .     A
C1924  O1948   1.316   .     A
C1924  C1926   1.456   .     S
C1924  O1946   1.293   .     A
C1925  C2086   1.384   1_455 S
C1925  C2109   1.539   1_455 S
C1926  C2005   1.384   .     S
C1926  C2036   1.539   .     S
C1927  C1963   1.519   .     S
C1927  C1932   1.413   .     A
C1928  C1967   1.519   .     S
C1928  C1931   1.413   .     A
C1928  C1450   1.407   1_565 S
C1929  C1971   1.531   .     S
C1929  C1931   1.416   .     A
C1929  C1447   1.407   1_565 S
C1930  C1978   1.531   .     S
C1930  C1932   1.416   .     A
C1933  C1985   1.512   .     S
C1933  N1940   1.382   .     A
C1934  N1939   1.382   .     A
C1934  C1989   1.512   .     S
C1934  C496    1.434   1_556 S
C1935  N1939   1.381   .     A
C1935  C1993   1.522   .     S
C1935  C493    1.434   1_556 S
C1936  C1997   1.522   .     S
C1936  N1940   1.381   .     A
Cu1937 N1939   2.046   .     S
Cu1937 O1944   1.961   .     S
Cu1937 O1941   1.959   .     S
Cu1937 Cu1938  2.723   .     S
Cu1937 O1948   1.992   .     S
Cu1937 O1945   1.985   .     S
Cu1938 O1946   1.985   .     S
Cu1938 O1943   1.961   .     S
Cu1938 O1942   1.959   .     S
Cu1938 O1947   1.992   .     S
Cu1938 N1940   2.046   .     S
C1949  H1954   1.106   .     S
C1949  C1950   1.529   .     S
C1949  C2005   1.539   .     S
C1949  H2035   1.103   .     S
C1950  H1951   1.108   .     S
C1950  H1953   1.111   .     S
C1950  H1952   1.102   .     S
H1955  C2109   1.103   1_455 S
C1956  H1962   1.106   .     S
C1956  C1957   1.529   .     S
C1956  C2086   1.539   1_455 S
C1956  H2121   1.103   1_455 S
C1957  H1958   1.108   .     S
C1957  H1960   1.102   .     S
C1957  H1959   1.111   .     S
H1961  C2036   1.103   .     S
C1963  H1964   1.105   .     S
C1963  H1965   1.108   .     S
C1963  H1966   1.110   .     S
C1967  H1969   1.108   .     S
C1967  H1970   1.110   .     S
C1967  H1968   1.105   .     S
C1971  H1976   1.105   .     S
C1971  H1977   1.108   .     S
C1971  C1972   1.528   .     S
C1972  H1975   1.109   .     S
C1972  H1974   1.111   .     S
C1972  H1973   1.110   .     S
C1978  H1984   1.105   .     S
C1978  C1979   1.528   .     S
C1978  H1983   1.108   .     S
C1979  H1980   1.111   .     S
C1979  H1981   1.110   .     S
C1979  H1982   1.109   .     S
C1985  H1987   1.110   .     S
C1985  H1988   1.078   .     S
C1985  H1986   1.108   .     S
C1989  H1991   1.110   .     S
C1989  H1992   1.108   .     S
C1989  H1990   1.078   .     S
C1993  H1994   1.083   .     S
C1993  H1995   1.110   .     S
C1993  H1996   1.109   .     S
C1997  H1998   1.083   .     S
C1997  H1999   1.109   .     S
C1997  H2000   1.110   .     S
C2001  O2021   1.296   .     A
C2001  C2012   1.451   .     S
C2001  O2023   1.309   .     A
C2002  O2022   1.296   .     A
C2002  C2011   1.451   .     S
C2002  O2024   1.309   .     A
C2003  O2025   1.293   .     A
C2003  C2005   1.456   .     S
C2003  O2027   1.316   .     A
C2004  O2028   1.316   .     A
C2004  C2006   1.456   .     S
C2004  O2026   1.293   .     A
C2006  C2085   1.384   .     S
C2006  C2116   1.539   .     S
C2007  C2043   1.519   .     S
C2007  C2012   1.413   .     A
C2008  C2047   1.519   .     S
C2008  C2011   1.413   .     A
C2008  C1530   1.407   1_565 S
C2009  C2051   1.531   .     S
C2009  C2011   1.416   .     A
C2009  C1527   1.407   1_565 S
C2010  C2058   1.531   .     S
C2010  C2012   1.416   .     A
C2013  C2065   1.512   .     S
C2013  N2020   1.382   .     A
C2014  N2019   1.382   .     A
C2014  C2069   1.512   .     S
C2014  C576    1.434   1_556 S
C2015  N2019   1.381   .     A
C2015  C2073   1.522   .     S
C2015  C573    1.434   1_556 S
C2016  C2077   1.522   .     S
C2016  N2020   1.381   .     A
Cu2017 N2019   2.046   .     S
Cu2017 O2024   1.961   .     S
Cu2017 O2021   1.959   .     S
Cu2017 Cu2018  2.723   .     S
Cu2017 O2028   1.992   .     S
Cu2017 O2025   1.985   .     S
Cu2018 O2026   1.985   .     S
Cu2018 O2023   1.961   .     S
Cu2018 O2022   1.959   .     S
Cu2018 O2027   1.992   .     S
Cu2018 N2020   2.046   .     S
C2029  H2034   1.106   .     S
C2029  C2030   1.529   .     S
C2029  C2085   1.539   .     S
C2029  H2115   1.103   .     S
C2030  H2031   1.108   .     S
C2030  H2033   1.111   .     S
C2030  H2032   1.102   .     S
C2036  H2042   1.106   .     S
C2036  C2037   1.529   .     S
C2037  H2038   1.108   .     S
C2037  H2040   1.102   .     S
C2037  H2039   1.111   .     S
H2041  C2116   1.103   .     S
C2043  H2044   1.105   .     S
C2043  H2045   1.108   .     S
C2043  H2046   1.110   .     S
C2047  H2049   1.108   .     S
C2047  H2050   1.110   .     S
C2047  H2048   1.105   .     S
C2051  H2056   1.105   .     S
C2051  H2057   1.108   .     S
C2051  C2052   1.528   .     S
C2052  H2055   1.109   .     S
C2052  H2054   1.111   .     S
C2052  H2053   1.110   .     S
C2058  H2064   1.105   .     S
C2058  C2059   1.528   .     S
C2058  H2063   1.108   .     S
C2059  H2060   1.111   .     S
C2059  H2061   1.110   .     S
C2059  H2062   1.109   .     S
C2065  H2067   1.110   .     S
C2065  H2068   1.078   .     S
C2065  H2066   1.108   .     S
C2069  H2071   1.110   .     S
C2069  H2072   1.108   .     S
C2069  H2070   1.078   .     S
C2073  H2074   1.083   .     S
C2073  H2075   1.110   .     S
C2073  H2076   1.109   .     S
C2077  H2078   1.083   .     S
C2077  H2079   1.109   .     S
C2077  H2080   1.110   .     S
C2081  O2101   1.296   .     A
C2081  C2092   1.451   .     S
C2081  O2103   1.309   .     A
C2082  O2102   1.296   .     A
C2082  C2091   1.451   .     S
C2082  O2104   1.309   .     A
C2083  O2105   1.293   .     A
C2083  C2085   1.456   .     S
C2083  O2107   1.316   .     A
C2084  O2108   1.316   .     A
C2084  C2086   1.456   .     S
C2084  O2106   1.293   .     A
C2086  C1925   1.384   1_655 S
C2086  C1956   1.539   1_655 S
C2087  C2123   1.519   .     S
C2087  C2092   1.413   .     A
C2088  C2127   1.519   .     S
C2088  C2091   1.413   .     A
C2088  C1610   1.407   1_565 S
C2089  C2131   1.531   .     S
C2089  C2091   1.416   .     A
C2089  C1607   1.407   1_565 S
C2090  C2138   1.531   .     S
C2090  C2092   1.416   .     A
C2093  C2145   1.512   .     S
C2093  N2100   1.382   .     A
C2094  N2099   1.382   .     A
C2094  C2149   1.512   .     S
C2094  C656    1.434   1_556 S
C2095  N2099   1.381   .     A
C2095  C2153   1.522   .     S
C2095  C653    1.434   1_556 S
C2096  C2157   1.522   .     S
C2096  N2100   1.381   .     A
Cu2097 N2099   2.046   .     S
Cu2097 O2104   1.961   .     S
Cu2097 O2101   1.959   .     S
Cu2097 Cu2098  2.723   .     S
Cu2097 O2108   1.992   .     S
Cu2097 O2105   1.985   .     S
Cu2098 O2106   1.985   .     S
Cu2098 O2103   1.961   .     S
Cu2098 O2102   1.959   .     S
Cu2098 O2107   1.992   .     S
Cu2098 N2100   2.046   .     S
C2109  H2114   1.106   .     S
C2109  C2110   1.529   .     S
C2109  C1925   1.539   1_655 S
C2109  H1955   1.103   1_655 S
C2110  H2111   1.108   .     S
C2110  H2113   1.111   .     S
C2110  H2112   1.102   .     S
C2116  H2122   1.106   .     S
C2116  C2117   1.529   .     S
C2117  H2118   1.108   .     S
C2117  H2120   1.102   .     S
C2117  H2119   1.111   .     S
H2121  C1956   1.103   1_655 S
C2123  H2124   1.105   .     S
C2123  H2125   1.108   .     S
C2123  H2126   1.110   .     S
C2127  H2129   1.108   .     S
C2127  H2130   1.110   .     S
C2127  H2128   1.105   .     S
C2131  H2136   1.105   .     S
C2131  H2137   1.108   .     S
C2131  C2132   1.528   .     S
C2132  H2135   1.109   .     S
C2132  H2134   1.111   .     S
C2132  H2133   1.110   .     S
C2138  H2144   1.105   .     S
C2138  C2139   1.528   .     S
C2138  H2143   1.108   .     S
C2139  H2140   1.111   .     S
C2139  H2141   1.110   .     S
C2139  H2142   1.109   .     S
C2145  H2147   1.110   .     S
C2145  H2148   1.078   .     S
C2145  H2146   1.108   .     S
C2149  H2151   1.110   .     S
C2149  H2152   1.108   .     S
C2149  H2150   1.078   .     S
C2153  H2154   1.083   .     S
C2153  H2155   1.110   .     S
C2153  H2156   1.109   .     S
C2157  H2158   1.083   .     S
C2157  H2159   1.109   .     S
C2157  H2160   1.110   .     S
