data_str_m2_o1_o17_pcu_sym.63
_audit_creation_date              2020-01-03
_audit_creation_method            'Materials Studio'
_symmetry_space_group_name_H-M    'P1'
_symmetry_Int_Tables_number       1
_symmetry_cell_setting            triclinic
loop_
_symmetry_equiv_pos_as_xyz
  x,y,z
_cell_length_a                    32.4497
_cell_length_b                    28.5085
_cell_length_c                    30.4648
_cell_angle_alpha                 90.0000
_cell_angle_beta                  93.3014
_cell_angle_gamma                 89.9999
loop_
_atom_site_label
_atom_site_type_symbol
_atom_site_fract_x
_atom_site_fract_y
_atom_site_fract_z
_atom_site_U_iso_or_equiv
_atom_site_adp_type
_atom_site_occupancy
C1     C     0.08751   0.16668   0.25228   0.00000  Uiso   1.00
C2     C     0.04282   0.16670   0.25183   0.00000  Uiso   1.00
C3     C     0.13955   0.02483   0.22272   0.00000  Uiso   1.00
C4     C     0.19379   0.30850   0.27728   0.00000  Uiso   1.00
C5     C     0.19378   0.02483   0.27728   0.00000  Uiso   1.00
C6     C     0.13955   0.30850   0.22273   0.00000  Uiso   1.00
C7     C     0.16346   0.16667   0.16432   0.00000  Uiso   1.00
C8     C     0.16988   0.16667   0.33568   0.00000  Uiso   1.00
C9     C     0.20940   0.16466   0.41143   0.00000  Uiso   1.00
C10    C     0.12393   0.16465   0.08857   0.00000  Uiso   1.00
C11    C     0.17174   0.16667   0.38417   0.00000  Uiso   1.00
C12    C     0.24583   0.16668   0.24772   0.00000  Uiso   1.00
C13    C     0.16159   0.16667   0.11583   0.00000  Uiso   1.00
C14    C     0.13344   0.16850   0.40346   0.00000  Uiso   1.00
C15    C     0.19989   0.16850   0.09654   0.00000  Uiso   1.00
C16    C     0.13153   0.16591   0.44928   0.00000  Uiso   1.00
C17    C     0.20180   0.16591   0.05072   0.00000  Uiso   1.00
C18    C     0.16794   0.16543   0.47674   0.00000  Uiso   1.00
C19    C     0.16540   0.16543   0.02326   0.00000  Uiso   1.00
C20    C     0.20683   0.16474   0.45803   0.00000  Uiso   1.00
C21    C     0.12650   0.16474   0.04197   0.00000  Uiso   1.00
C22    C     0.09332   0.16377   0.46802   0.00000  Uiso   1.00
C23    C     0.09073   0.16342   0.01314   0.00000  Uiso   1.00
C24    C     0.24002   0.16378   0.03198   0.00000  Uiso   1.00
C25    C     0.25316   0.16248   0.39494   0.00000  Uiso   1.00
C26    C     0.25908   0.16152   0.34647   0.00000  Uiso   1.00
C27    C     0.08018   0.16248   0.10506   0.00000  Uiso   1.00
C28    C     0.07425   0.16153   0.15353   0.00000  Uiso   1.00
C29    C     0.08289   0.21667   0.37309   0.00000  Uiso   1.00
C30    C     0.03584   0.21628   0.36636   0.00000  Uiso   1.00
C31    C     0.01867   0.26520   0.35643   0.00000  Uiso   1.00
C32    C     0.25044   0.21668   0.12692   0.00000  Uiso   1.00
C33    C     0.29749   0.21629   0.13364   0.00000  Uiso   1.00
C34    C     0.24261   0.16343   0.48686   0.00000  Uiso   1.00
C35    C     0.31466   0.26522   0.14358   0.00000  Uiso   1.00
C36    C     0.02133   0.12408   0.25109   0.00000  Uiso   1.00
C37    C     0.31201   0.20933   0.24948   0.00000  Uiso   1.00
C38    C     0.31200   0.12408   0.24890   0.00000  Uiso   1.00
C39    C     0.02132   0.20933   0.25052   0.00000  Uiso   1.00
C40    C     0.29051   0.16670   0.24817   0.00000  Uiso   1.00
Cu41   Cu    0.16667   0.21355   0.25000   0.00000  Uiso   1.00
Cu42   Cu    0.16667   0.11978   0.25000   0.00000  Uiso   1.00
H43    H     0.06482   0.16217   0.44788   0.00000  Uiso   1.00
H44    H     0.21549   0.28972   0.29910   0.00000  Uiso   1.00
H45    H     0.21548   0.04359   0.29911   0.00000  Uiso   1.00
H46    H     0.11784   0.28972   0.20090   0.00000  Uiso   1.00
H47    H     0.24454   0.12963   0.33181   0.00000  Uiso   1.00
H48    H     0.24733   0.19465   0.33149   0.00000  Uiso   1.00
H49    H     0.29257   0.15935   0.34129   0.00000  Uiso   1.00
H50    H     0.27064   0.19356   0.40794   0.00000  Uiso   1.00
H51    H     0.26840   0.13019   0.40845   0.00000  Uiso   1.00
H52    H     0.08879   0.12964   0.16820   0.00000  Uiso   1.00
H53    H     0.08600   0.19466   0.16850   0.00000  Uiso   1.00
H54    H     0.26852   0.16219   0.05212   0.00000  Uiso   1.00
H55    H     0.04077   0.15935   0.15871   0.00000  Uiso   1.00
H56    H     0.06269   0.19356   0.09205   0.00000  Uiso   1.00
H57    H     0.06494   0.13019   0.09156   0.00000  Uiso   1.00
H58    H     0.09618   0.23321   0.34406   0.00000  Uiso   1.00
H59    H     0.09128   0.23869   0.40261   0.00000  Uiso   1.00
H60    H     0.02664   0.19241   0.33884   0.00000  Uiso   1.00
H61    H     0.02202   0.20269   0.39634   0.00000  Uiso   1.00
H62    H     0.02612   0.28905   0.38460   0.00000  Uiso   1.00
H63    H     0.31792   0.26321   0.35077   0.00000  Uiso   1.00
H64    H     0.03187   0.27974   0.32648   0.00000  Uiso   1.00
H65    H     0.05982   0.16220   0.02440   0.00000  Uiso   1.00
H66    H     0.23714   0.23321   0.15595   0.00000  Uiso   1.00
H67    H     0.24204   0.23870   0.09740   0.00000  Uiso   1.00
H68    H     0.30669   0.19242   0.16115   0.00000  Uiso   1.00
H69    H     0.31131   0.20272   0.10366   0.00000  Uiso   1.00
H70    H     0.30720   0.28907   0.11541   0.00000  Uiso   1.00
H71    H     0.01540   0.26324   0.14923   0.00000  Uiso   1.00
H72    H     0.30145   0.27975   0.17353   0.00000  Uiso   1.00
H73    H     0.27352   0.16222   0.47560   0.00000  Uiso   1.00
H74    H     0.03740   0.09076   0.25178   0.00000  Uiso   1.00
H75    H     0.29595   0.24264   0.24933   0.00000  Uiso   1.00
H76    H     0.29594   0.09076   0.24821   0.00000  Uiso   1.00
H77    H     0.03738   0.24264   0.25067   0.00000  Uiso   1.00
H78    H     0.11785   0.04359   0.20089   0.00000  Uiso   1.00
N79    N     0.16667   0.28402   0.25000   0.00000  Uiso   1.00
N80    N     0.16667   0.04931   0.25000   0.00000  Uiso   1.00
O81    O     0.10655   0.20625   0.25000   0.00000  Uiso   1.00
O82    O     0.23611   0.16982   0.12309   0.00000  Uiso   1.00
O83    O     0.22679   0.12709   0.25001   0.00000  Uiso   1.00
O84    O     0.22679   0.20625   0.25001   0.00000  Uiso   1.00
O85    O     0.10655   0.12709   0.25000   0.00000  Uiso   1.00
O86    O     0.16666   0.20627   0.18513   0.00000  Uiso   1.00
O87    O     0.16668   0.12707   0.31487   0.00000  Uiso   1.00
O88    O     0.16668   0.20627   0.31487   0.00000  Uiso   1.00
O89    O     0.16666   0.12707   0.18513   0.00000  Uiso   1.00
O90    O     0.09723   0.16981   0.37691   0.00000  Uiso   1.00
C91    C     0.42084   0.16668   0.25228   0.00000  Uiso   1.00
C92    C     0.37616   0.16670   0.25183   0.00000  Uiso   1.00
C93    C     0.47288   0.02483   0.22272   0.00000  Uiso   1.00
C94    C     0.52712   0.30850   0.27728   0.00000  Uiso   1.00
C95    C     0.52712   0.02483   0.27728   0.00000  Uiso   1.00
C96    C     0.47288   0.30850   0.22273   0.00000  Uiso   1.00
C97    C     0.49679   0.16667   0.16432   0.00000  Uiso   1.00
C98    C     0.50321   0.16667   0.33568   0.00000  Uiso   1.00
C99    C     0.54273   0.16466   0.41143   0.00000  Uiso   1.00
C100   C     0.45727   0.16465   0.08857   0.00000  Uiso   1.00
C101   C     0.50508   0.16667   0.38417   0.00000  Uiso   1.00
C102   C     0.57916   0.16668   0.24772   0.00000  Uiso   1.00
C103   C     0.49493   0.16667   0.11583   0.00000  Uiso   1.00
C104   C     0.46678   0.16850   0.40346   0.00000  Uiso   1.00
C105   C     0.53322   0.16850   0.09654   0.00000  Uiso   1.00
C106   C     0.46486   0.16591   0.44928   0.00000  Uiso   1.00
C107   C     0.53514   0.16591   0.05072   0.00000  Uiso   1.00
C108   C     0.50127   0.16543   0.47674   0.00000  Uiso   1.00
C109   C     0.49873   0.16543   0.02326   0.00000  Uiso   1.00
C110   C     0.54016   0.16474   0.45803   0.00000  Uiso   1.00
C111   C     0.45984   0.16474   0.04197   0.00000  Uiso   1.00
C112   C     0.42665   0.16377   0.46802   0.00000  Uiso   1.00
C113   C     0.42406   0.16342   0.01314   0.00000  Uiso   1.00
C114   C     0.57335   0.16378   0.03198   0.00000  Uiso   1.00
C115   C     0.58649   0.16248   0.39494   0.00000  Uiso   1.00
C116   C     0.59242   0.16152   0.34647   0.00000  Uiso   1.00
C117   C     0.41351   0.16248   0.10506   0.00000  Uiso   1.00
C118   C     0.40758   0.16153   0.15353   0.00000  Uiso   1.00
C119   C     0.41622   0.21667   0.37309   0.00000  Uiso   1.00
C120   C     0.36917   0.21628   0.36636   0.00000  Uiso   1.00
C121   C     0.35200   0.26520   0.35643   0.00000  Uiso   1.00
C122   C     0.58377   0.21668   0.12692   0.00000  Uiso   1.00
C123   C     0.63082   0.21629   0.13364   0.00000  Uiso   1.00
C124   C     0.57594   0.16343   0.48686   0.00000  Uiso   1.00
C125   C     0.64799   0.26522   0.14358   0.00000  Uiso   1.00
C126   C     0.35467   0.12408   0.25109   0.00000  Uiso   1.00
C127   C     0.64534   0.20933   0.24948   0.00000  Uiso   1.00
C128   C     0.64533   0.12408   0.24890   0.00000  Uiso   1.00
C129   C     0.35466   0.20933   0.25052   0.00000  Uiso   1.00
C130   C     0.62384   0.16670   0.24817   0.00000  Uiso   1.00
Cu131  Cu    0.50000   0.21355   0.25000   0.00000  Uiso   1.00
Cu132  Cu    0.50000   0.11978   0.25000   0.00000  Uiso   1.00
H133   H     0.39815   0.16217   0.44788   0.00000  Uiso   1.00
H134   H     0.54882   0.28972   0.29910   0.00000  Uiso   1.00
H135   H     0.54881   0.04359   0.29911   0.00000  Uiso   1.00
H136   H     0.45118   0.28972   0.20090   0.00000  Uiso   1.00
H137   H     0.57788   0.12963   0.33181   0.00000  Uiso   1.00
H138   H     0.58066   0.19465   0.33149   0.00000  Uiso   1.00
H139   H     0.62590   0.15935   0.34129   0.00000  Uiso   1.00
H140   H     0.60397   0.19356   0.40794   0.00000  Uiso   1.00
H141   H     0.60173   0.13019   0.40845   0.00000  Uiso   1.00
H142   H     0.42212   0.12964   0.16820   0.00000  Uiso   1.00
H143   H     0.41934   0.19466   0.16850   0.00000  Uiso   1.00
H144   H     0.60185   0.16219   0.05212   0.00000  Uiso   1.00
H145   H     0.37410   0.15935   0.15871   0.00000  Uiso   1.00
H146   H     0.39603   0.19356   0.09205   0.00000  Uiso   1.00
H147   H     0.39827   0.13019   0.09156   0.00000  Uiso   1.00
H148   H     0.42952   0.23321   0.34406   0.00000  Uiso   1.00
H149   H     0.42461   0.23869   0.40261   0.00000  Uiso   1.00
H150   H     0.35998   0.19241   0.33884   0.00000  Uiso   1.00
H151   H     0.35535   0.20269   0.39634   0.00000  Uiso   1.00
H152   H     0.35945   0.28905   0.38460   0.00000  Uiso   1.00
H153   H     0.65125   0.26321   0.35077   0.00000  Uiso   1.00
H154   H     0.36521   0.27974   0.32648   0.00000  Uiso   1.00
H155   H     0.39315   0.16220   0.02440   0.00000  Uiso   1.00
H156   H     0.57048   0.23321   0.15595   0.00000  Uiso   1.00
H157   H     0.57538   0.23870   0.09740   0.00000  Uiso   1.00
H158   H     0.64002   0.19242   0.16115   0.00000  Uiso   1.00
H159   H     0.64465   0.20272   0.10366   0.00000  Uiso   1.00
H160   H     0.64053   0.28907   0.11541   0.00000  Uiso   1.00
H161   H     0.34874   0.26324   0.14923   0.00000  Uiso   1.00
H162   H     0.63479   0.27975   0.17353   0.00000  Uiso   1.00
H163   H     0.60685   0.16222   0.47560   0.00000  Uiso   1.00
H164   H     0.37073   0.09076   0.25178   0.00000  Uiso   1.00
H165   H     0.62929   0.24264   0.24933   0.00000  Uiso   1.00
H166   H     0.62927   0.09076   0.24821   0.00000  Uiso   1.00
H167   H     0.37071   0.24264   0.25067   0.00000  Uiso   1.00
H168   H     0.45119   0.04359   0.20089   0.00000  Uiso   1.00
N169   N     0.50000   0.28402   0.25000   0.00000  Uiso   1.00
N170   N     0.50000   0.04931   0.25000   0.00000  Uiso   1.00
O171   O     0.43988   0.20625   0.25000   0.00000  Uiso   1.00
O172   O     0.56944   0.16982   0.12309   0.00000  Uiso   1.00
O173   O     0.56012   0.12709   0.25001   0.00000  Uiso   1.00
O174   O     0.56012   0.20625   0.25001   0.00000  Uiso   1.00
O175   O     0.43988   0.12709   0.25000   0.00000  Uiso   1.00
O176   O     0.49999   0.20627   0.18513   0.00000  Uiso   1.00
O177   O     0.50001   0.12707   0.31487   0.00000  Uiso   1.00
O178   O     0.50001   0.20627   0.31487   0.00000  Uiso   1.00
O179   O     0.49999   0.12707   0.18513   0.00000  Uiso   1.00
O180   O     0.43056   0.16981   0.37691   0.00000  Uiso   1.00
C181   C     0.75417   0.16668   0.25228   0.00000  Uiso   1.00
C182   C     0.70949   0.16670   0.25183   0.00000  Uiso   1.00
C183   C     0.80622   0.02483   0.22272   0.00000  Uiso   1.00
C184   C     0.86045   0.30850   0.27728   0.00000  Uiso   1.00
C185   C     0.86045   0.02483   0.27728   0.00000  Uiso   1.00
C186   C     0.80621   0.30850   0.22273   0.00000  Uiso   1.00
C187   C     0.83012   0.16667   0.16432   0.00000  Uiso   1.00
C188   C     0.83654   0.16667   0.33568   0.00000  Uiso   1.00
C189   C     0.87607   0.16466   0.41143   0.00000  Uiso   1.00
C190   C     0.79060   0.16465   0.08857   0.00000  Uiso   1.00
C191   C     0.83841   0.16667   0.38417   0.00000  Uiso   1.00
C192   C     0.91249   0.16668   0.24772   0.00000  Uiso   1.00
C193   C     0.82826   0.16667   0.11583   0.00000  Uiso   1.00
C194   C     0.80011   0.16850   0.40346   0.00000  Uiso   1.00
C195   C     0.86656   0.16850   0.09654   0.00000  Uiso   1.00
C196   C     0.79820   0.16591   0.44928   0.00000  Uiso   1.00
C197   C     0.86847   0.16591   0.05072   0.00000  Uiso   1.00
C198   C     0.83461   0.16543   0.47674   0.00000  Uiso   1.00
C199   C     0.83206   0.16543   0.02326   0.00000  Uiso   1.00
C200   C     0.87350   0.16474   0.45803   0.00000  Uiso   1.00
C201   C     0.79317   0.16474   0.04197   0.00000  Uiso   1.00
C202   C     0.75998   0.16377   0.46802   0.00000  Uiso   1.00
C203   C     0.75740   0.16342   0.01314   0.00000  Uiso   1.00
C204   C     0.90669   0.16378   0.03198   0.00000  Uiso   1.00
C205   C     0.91982   0.16248   0.39494   0.00000  Uiso   1.00
C206   C     0.92575   0.16152   0.34647   0.00000  Uiso   1.00
C207   C     0.74684   0.16248   0.10506   0.00000  Uiso   1.00
C208   C     0.74092   0.16153   0.15353   0.00000  Uiso   1.00
C209   C     0.74956   0.21667   0.37309   0.00000  Uiso   1.00
C210   C     0.70251   0.21628   0.36636   0.00000  Uiso   1.00
C211   C     0.68533   0.26520   0.35643   0.00000  Uiso   1.00
C212   C     0.91710   0.21668   0.12692   0.00000  Uiso   1.00
C213   C     0.96416   0.21629   0.13364   0.00000  Uiso   1.00
C214   C     0.90927   0.16343   0.48686   0.00000  Uiso   1.00
C215   C     0.98133   0.26522   0.14358   0.00000  Uiso   1.00
C216   C     0.68800   0.12408   0.25109   0.00000  Uiso   1.00
C217   C     0.97868   0.20933   0.24948   0.00000  Uiso   1.00
C218   C     0.97867   0.12408   0.24890   0.00000  Uiso   1.00
C219   C     0.68799   0.20933   0.25052   0.00000  Uiso   1.00
C220   C     0.95718   0.16670   0.24817   0.00000  Uiso   1.00
Cu221  Cu    0.83333   0.21355   0.25000   0.00000  Uiso   1.00
Cu222  Cu    0.83333   0.11978   0.25000   0.00000  Uiso   1.00
H223   H     0.73148   0.16217   0.44788   0.00000  Uiso   1.00
H224   H     0.88216   0.28972   0.29910   0.00000  Uiso   1.00
H225   H     0.88215   0.04359   0.29911   0.00000  Uiso   1.00
H226   H     0.78451   0.28972   0.20090   0.00000  Uiso   1.00
H227   H     0.91121   0.12963   0.33181   0.00000  Uiso   1.00
H228   H     0.91400   0.19465   0.33149   0.00000  Uiso   1.00
H229   H     0.95923   0.15935   0.34129   0.00000  Uiso   1.00
H230   H     0.93731   0.19356   0.40794   0.00000  Uiso   1.00
H231   H     0.93506   0.13019   0.40845   0.00000  Uiso   1.00
H232   H     0.75545   0.12964   0.16820   0.00000  Uiso   1.00
H233   H     0.75267   0.19466   0.16850   0.00000  Uiso   1.00
H234   H     0.93518   0.16219   0.05212   0.00000  Uiso   1.00
H235   H     0.70743   0.15935   0.15871   0.00000  Uiso   1.00
H236   H     0.72936   0.19356   0.09205   0.00000  Uiso   1.00
H237   H     0.73161   0.13019   0.09156   0.00000  Uiso   1.00
H238   H     0.76285   0.23321   0.34406   0.00000  Uiso   1.00
H239   H     0.75795   0.23869   0.40261   0.00000  Uiso   1.00
H240   H     0.69331   0.19241   0.33884   0.00000  Uiso   1.00
H241   H     0.68868   0.20269   0.39634   0.00000  Uiso   1.00
H242   H     0.69279   0.28905   0.38460   0.00000  Uiso   1.00
H243   H     0.98459   0.26321   0.35077   0.00000  Uiso   1.00
H244   H     0.69854   0.27974   0.32648   0.00000  Uiso   1.00
H245   H     0.72648   0.16220   0.02440   0.00000  Uiso   1.00
H246   H     0.90381   0.23321   0.15595   0.00000  Uiso   1.00
H247   H     0.90871   0.23870   0.09740   0.00000  Uiso   1.00
H248   H     0.97336   0.19242   0.16115   0.00000  Uiso   1.00
H249   H     0.97798   0.20272   0.10366   0.00000  Uiso   1.00
H250   H     0.97386   0.28907   0.11541   0.00000  Uiso   1.00
H251   H     0.68207   0.26324   0.14923   0.00000  Uiso   1.00
H252   H     0.96812   0.27975   0.17353   0.00000  Uiso   1.00
H253   H     0.94018   0.16222   0.47560   0.00000  Uiso   1.00
H254   H     0.70407   0.09076   0.25178   0.00000  Uiso   1.00
H255   H     0.96262   0.24264   0.24933   0.00000  Uiso   1.00
H256   H     0.96260   0.09076   0.24821   0.00000  Uiso   1.00
H257   H     0.70405   0.24264   0.25067   0.00000  Uiso   1.00
H258   H     0.78452   0.04359   0.20089   0.00000  Uiso   1.00
N259   N     0.83333   0.28402   0.25000   0.00000  Uiso   1.00
N260   N     0.83333   0.04931   0.25000   0.00000  Uiso   1.00
O261   O     0.77321   0.20625   0.25000   0.00000  Uiso   1.00
O262   O     0.90277   0.16982   0.12309   0.00000  Uiso   1.00
O263   O     0.89345   0.12709   0.25001   0.00000  Uiso   1.00
O264   O     0.89345   0.20625   0.25001   0.00000  Uiso   1.00
O265   O     0.77321   0.12709   0.25000   0.00000  Uiso   1.00
O266   O     0.83332   0.20627   0.18513   0.00000  Uiso   1.00
O267   O     0.83334   0.12707   0.31487   0.00000  Uiso   1.00
O268   O     0.83334   0.20627   0.31487   0.00000  Uiso   1.00
O269   O     0.83332   0.12707   0.18513   0.00000  Uiso   1.00
O270   O     0.76389   0.16981   0.37691   0.00000  Uiso   1.00
C271   C     0.08751   0.50001   0.25228   0.00000  Uiso   1.00
C272   C     0.04282   0.50003   0.25183   0.00000  Uiso   1.00
C273   C     0.13955   0.35816   0.22272   0.00000  Uiso   1.00
C274   C     0.19379   0.64183   0.27728   0.00000  Uiso   1.00
C275   C     0.19378   0.35816   0.27728   0.00000  Uiso   1.00
C276   C     0.13955   0.64183   0.22273   0.00000  Uiso   1.00
C277   C     0.16346   0.50000   0.16432   0.00000  Uiso   1.00
C278   C     0.16988   0.50000   0.33568   0.00000  Uiso   1.00
C279   C     0.20940   0.49799   0.41143   0.00000  Uiso   1.00
C280   C     0.12393   0.49799   0.08857   0.00000  Uiso   1.00
C281   C     0.17174   0.50000   0.38417   0.00000  Uiso   1.00
C282   C     0.24583   0.50001   0.24772   0.00000  Uiso   1.00
C283   C     0.16159   0.50000   0.11583   0.00000  Uiso   1.00
C284   C     0.13344   0.50183   0.40346   0.00000  Uiso   1.00
C285   C     0.19989   0.50184   0.09654   0.00000  Uiso   1.00
C286   C     0.13153   0.49924   0.44928   0.00000  Uiso   1.00
C287   C     0.20180   0.49924   0.05072   0.00000  Uiso   1.00
C288   C     0.16794   0.49876   0.47674   0.00000  Uiso   1.00
C289   C     0.16540   0.49876   0.02326   0.00000  Uiso   1.00
C290   C     0.20683   0.49808   0.45803   0.00000  Uiso   1.00
C291   C     0.12650   0.49807   0.04197   0.00000  Uiso   1.00
C292   C     0.09332   0.49710   0.46802   0.00000  Uiso   1.00
C293   C     0.09073   0.49676   0.01314   0.00000  Uiso   1.00
C294   C     0.24002   0.49711   0.03198   0.00000  Uiso   1.00
C295   C     0.25316   0.49582   0.39494   0.00000  Uiso   1.00
C296   C     0.25908   0.49486   0.34647   0.00000  Uiso   1.00
C297   C     0.08018   0.49581   0.10506   0.00000  Uiso   1.00
C298   C     0.07425   0.49486   0.15353   0.00000  Uiso   1.00
C299   C     0.08289   0.55001   0.37309   0.00000  Uiso   1.00
C300   C     0.03584   0.54961   0.36636   0.00000  Uiso   1.00
C301   C     0.01867   0.59853   0.35643   0.00000  Uiso   1.00
C302   C     0.25044   0.55002   0.12692   0.00000  Uiso   1.00
C303   C     0.29749   0.54963   0.13364   0.00000  Uiso   1.00
C304   C     0.24261   0.49677   0.48686   0.00000  Uiso   1.00
C305   C     0.31466   0.59855   0.14358   0.00000  Uiso   1.00
C306   C     0.02133   0.45741   0.25109   0.00000  Uiso   1.00
C307   C     0.31201   0.54267   0.24948   0.00000  Uiso   1.00
C308   C     0.31200   0.45741   0.24890   0.00000  Uiso   1.00
C309   C     0.02132   0.54267   0.25052   0.00000  Uiso   1.00
C310   C     0.29051   0.50003   0.24817   0.00000  Uiso   1.00
Cu311  Cu    0.16667   0.54689   0.25000   0.00000  Uiso   1.00
Cu312  Cu    0.16667   0.45311   0.25000   0.00000  Uiso   1.00
H313   H     0.06482   0.49551   0.44788   0.00000  Uiso   1.00
H314   H     0.21549   0.62305   0.29910   0.00000  Uiso   1.00
H315   H     0.21548   0.37693   0.29911   0.00000  Uiso   1.00
H316   H     0.11784   0.62305   0.20090   0.00000  Uiso   1.00
H317   H     0.24454   0.46296   0.33181   0.00000  Uiso   1.00
H318   H     0.24733   0.52799   0.33149   0.00000  Uiso   1.00
H319   H     0.29257   0.49268   0.34129   0.00000  Uiso   1.00
H320   H     0.27064   0.52690   0.40794   0.00000  Uiso   1.00
H321   H     0.26840   0.46353   0.40845   0.00000  Uiso   1.00
H322   H     0.08879   0.46297   0.16820   0.00000  Uiso   1.00
H323   H     0.08600   0.52799   0.16850   0.00000  Uiso   1.00
H324   H     0.26852   0.49552   0.05212   0.00000  Uiso   1.00
H325   H     0.04077   0.49269   0.15871   0.00000  Uiso   1.00
H326   H     0.06269   0.52689   0.09205   0.00000  Uiso   1.00
H327   H     0.06494   0.46352   0.09156   0.00000  Uiso   1.00
H328   H     0.09618   0.56654   0.34406   0.00000  Uiso   1.00
H329   H     0.09128   0.57202   0.40261   0.00000  Uiso   1.00
H330   H     0.02664   0.52574   0.33884   0.00000  Uiso   1.00
H331   H     0.02202   0.53603   0.39634   0.00000  Uiso   1.00
H332   H     0.02612   0.62238   0.38460   0.00000  Uiso   1.00
H333   H     0.31792   0.59655   0.35077   0.00000  Uiso   1.00
H334   H     0.03187   0.61308   0.32648   0.00000  Uiso   1.00
H335   H     0.05982   0.49554   0.02440   0.00000  Uiso   1.00
H336   H     0.23714   0.56655   0.15595   0.00000  Uiso   1.00
H337   H     0.24204   0.57203   0.09740   0.00000  Uiso   1.00
H338   H     0.30669   0.52576   0.16115   0.00000  Uiso   1.00
H339   H     0.31131   0.53605   0.10366   0.00000  Uiso   1.00
H340   H     0.30720   0.62241   0.11541   0.00000  Uiso   1.00
H341   H     0.01540   0.59657   0.14923   0.00000  Uiso   1.00
H342   H     0.30145   0.61309   0.17353   0.00000  Uiso   1.00
H343   H     0.27352   0.49555   0.47560   0.00000  Uiso   1.00
H344   H     0.03740   0.42409   0.25178   0.00000  Uiso   1.00
H345   H     0.29595   0.57597   0.24933   0.00000  Uiso   1.00
H346   H     0.29594   0.42409   0.24821   0.00000  Uiso   1.00
H347   H     0.03738   0.57597   0.25067   0.00000  Uiso   1.00
H348   H     0.11785   0.37693   0.20089   0.00000  Uiso   1.00
N349   N     0.16667   0.61736   0.25000   0.00000  Uiso   1.00
N350   N     0.16667   0.38264   0.25000   0.00000  Uiso   1.00
O351   O     0.10655   0.53958   0.25000   0.00000  Uiso   1.00
O352   O     0.23611   0.50315   0.12309   0.00000  Uiso   1.00
O353   O     0.22679   0.46042   0.25001   0.00000  Uiso   1.00
O354   O     0.22679   0.53958   0.25001   0.00000  Uiso   1.00
O355   O     0.10655   0.46042   0.25000   0.00000  Uiso   1.00
O356   O     0.16666   0.53960   0.18513   0.00000  Uiso   1.00
O357   O     0.16668   0.46040   0.31487   0.00000  Uiso   1.00
O358   O     0.16668   0.53960   0.31487   0.00000  Uiso   1.00
O359   O     0.16666   0.46040   0.18513   0.00000  Uiso   1.00
O360   O     0.09723   0.50314   0.37691   0.00000  Uiso   1.00
C361   C     0.42084   0.50001   0.25228   0.00000  Uiso   1.00
C362   C     0.37616   0.50003   0.25183   0.00000  Uiso   1.00
C363   C     0.47288   0.35816   0.22272   0.00000  Uiso   1.00
C364   C     0.52712   0.64183   0.27728   0.00000  Uiso   1.00
C365   C     0.52712   0.35816   0.27728   0.00000  Uiso   1.00
C366   C     0.47288   0.64183   0.22273   0.00000  Uiso   1.00
C367   C     0.49679   0.50000   0.16432   0.00000  Uiso   1.00
C368   C     0.50321   0.50000   0.33568   0.00000  Uiso   1.00
C369   C     0.54273   0.49799   0.41143   0.00000  Uiso   1.00
C370   C     0.45727   0.49799   0.08857   0.00000  Uiso   1.00
C371   C     0.50508   0.50000   0.38417   0.00000  Uiso   1.00
C372   C     0.57916   0.50001   0.24772   0.00000  Uiso   1.00
C373   C     0.49493   0.50000   0.11583   0.00000  Uiso   1.00
C374   C     0.46678   0.50183   0.40346   0.00000  Uiso   1.00
C375   C     0.53322   0.50184   0.09654   0.00000  Uiso   1.00
C376   C     0.46486   0.49924   0.44928   0.00000  Uiso   1.00
C377   C     0.53514   0.49924   0.05072   0.00000  Uiso   1.00
C378   C     0.50127   0.49876   0.47674   0.00000  Uiso   1.00
C379   C     0.49873   0.49876   0.02326   0.00000  Uiso   1.00
C380   C     0.54016   0.49808   0.45803   0.00000  Uiso   1.00
C381   C     0.45984   0.49807   0.04197   0.00000  Uiso   1.00
C382   C     0.42665   0.49710   0.46802   0.00000  Uiso   1.00
C383   C     0.42406   0.49676   0.01314   0.00000  Uiso   1.00
C384   C     0.57335   0.49711   0.03198   0.00000  Uiso   1.00
C385   C     0.58649   0.49582   0.39494   0.00000  Uiso   1.00
C386   C     0.59242   0.49486   0.34647   0.00000  Uiso   1.00
C387   C     0.41351   0.49581   0.10506   0.00000  Uiso   1.00
C388   C     0.40758   0.49486   0.15353   0.00000  Uiso   1.00
C389   C     0.41622   0.55001   0.37309   0.00000  Uiso   1.00
C390   C     0.36917   0.54961   0.36636   0.00000  Uiso   1.00
C391   C     0.35200   0.59853   0.35643   0.00000  Uiso   1.00
C392   C     0.58377   0.55002   0.12692   0.00000  Uiso   1.00
C393   C     0.63082   0.54963   0.13364   0.00000  Uiso   1.00
C394   C     0.57594   0.49677   0.48686   0.00000  Uiso   1.00
C395   C     0.64799   0.59855   0.14358   0.00000  Uiso   1.00
C396   C     0.35467   0.45741   0.25109   0.00000  Uiso   1.00
C397   C     0.64534   0.54267   0.24948   0.00000  Uiso   1.00
C398   C     0.64533   0.45741   0.24890   0.00000  Uiso   1.00
C399   C     0.35466   0.54267   0.25052   0.00000  Uiso   1.00
C400   C     0.62384   0.50003   0.24817   0.00000  Uiso   1.00
Cu401  Cu    0.50000   0.54689   0.25000   0.00000  Uiso   1.00
Cu402  Cu    0.50000   0.45311   0.25000   0.00000  Uiso   1.00
H403   H     0.39815   0.49551   0.44788   0.00000  Uiso   1.00
H404   H     0.54882   0.62305   0.29910   0.00000  Uiso   1.00
H405   H     0.54881   0.37693   0.29911   0.00000  Uiso   1.00
H406   H     0.45118   0.62305   0.20090   0.00000  Uiso   1.00
H407   H     0.57788   0.46296   0.33181   0.00000  Uiso   1.00
H408   H     0.58066   0.52799   0.33149   0.00000  Uiso   1.00
H409   H     0.62590   0.49268   0.34129   0.00000  Uiso   1.00
H410   H     0.60397   0.52690   0.40794   0.00000  Uiso   1.00
H411   H     0.60173   0.46353   0.40845   0.00000  Uiso   1.00
H412   H     0.42212   0.46297   0.16820   0.00000  Uiso   1.00
H413   H     0.41934   0.52799   0.16850   0.00000  Uiso   1.00
H414   H     0.60185   0.49552   0.05212   0.00000  Uiso   1.00
H415   H     0.37410   0.49269   0.15871   0.00000  Uiso   1.00
H416   H     0.39603   0.52689   0.09205   0.00000  Uiso   1.00
H417   H     0.39827   0.46352   0.09156   0.00000  Uiso   1.00
H418   H     0.42952   0.56654   0.34406   0.00000  Uiso   1.00
H419   H     0.42461   0.57202   0.40261   0.00000  Uiso   1.00
H420   H     0.35998   0.52574   0.33884   0.00000  Uiso   1.00
H421   H     0.35535   0.53603   0.39634   0.00000  Uiso   1.00
H422   H     0.35945   0.62238   0.38460   0.00000  Uiso   1.00
H423   H     0.65125   0.59655   0.35077   0.00000  Uiso   1.00
H424   H     0.36521   0.61308   0.32648   0.00000  Uiso   1.00
H425   H     0.39315   0.49554   0.02440   0.00000  Uiso   1.00
H426   H     0.57048   0.56655   0.15595   0.00000  Uiso   1.00
H427   H     0.57538   0.57203   0.09740   0.00000  Uiso   1.00
H428   H     0.64002   0.52576   0.16115   0.00000  Uiso   1.00
H429   H     0.64465   0.53605   0.10366   0.00000  Uiso   1.00
H430   H     0.64053   0.62241   0.11541   0.00000  Uiso   1.00
H431   H     0.34874   0.59657   0.14923   0.00000  Uiso   1.00
H432   H     0.63479   0.61309   0.17353   0.00000  Uiso   1.00
H433   H     0.60685   0.49555   0.47560   0.00000  Uiso   1.00
H434   H     0.37073   0.42409   0.25178   0.00000  Uiso   1.00
H435   H     0.62929   0.57597   0.24933   0.00000  Uiso   1.00
H436   H     0.62927   0.42409   0.24821   0.00000  Uiso   1.00
H437   H     0.37071   0.57597   0.25067   0.00000  Uiso   1.00
H438   H     0.45119   0.37693   0.20089   0.00000  Uiso   1.00
N439   N     0.50000   0.61736   0.25000   0.00000  Uiso   1.00
N440   N     0.50000   0.38264   0.25000   0.00000  Uiso   1.00
O441   O     0.43988   0.53958   0.25000   0.00000  Uiso   1.00
O442   O     0.56944   0.50315   0.12309   0.00000  Uiso   1.00
O443   O     0.56012   0.46042   0.25001   0.00000  Uiso   1.00
O444   O     0.56012   0.53958   0.25001   0.00000  Uiso   1.00
O445   O     0.43988   0.46042   0.25000   0.00000  Uiso   1.00
O446   O     0.49999   0.53960   0.18513   0.00000  Uiso   1.00
O447   O     0.50001   0.46040   0.31487   0.00000  Uiso   1.00
O448   O     0.50001   0.53960   0.31487   0.00000  Uiso   1.00
O449   O     0.49999   0.46040   0.18513   0.00000  Uiso   1.00
O450   O     0.43056   0.50314   0.37691   0.00000  Uiso   1.00
C451   C     0.75417   0.50001   0.25228   0.00000  Uiso   1.00
C452   C     0.70949   0.50003   0.25183   0.00000  Uiso   1.00
C453   C     0.80622   0.35816   0.22272   0.00000  Uiso   1.00
C454   C     0.86045   0.64183   0.27728   0.00000  Uiso   1.00
C455   C     0.86045   0.35816   0.27728   0.00000  Uiso   1.00
C456   C     0.80621   0.64183   0.22273   0.00000  Uiso   1.00
C457   C     0.83012   0.50000   0.16432   0.00000  Uiso   1.00
C458   C     0.83654   0.50000   0.33568   0.00000  Uiso   1.00
C459   C     0.87607   0.49799   0.41143   0.00000  Uiso   1.00
C460   C     0.79060   0.49799   0.08857   0.00000  Uiso   1.00
C461   C     0.83841   0.50000   0.38417   0.00000  Uiso   1.00
C462   C     0.91249   0.50001   0.24772   0.00000  Uiso   1.00
C463   C     0.82826   0.50000   0.11583   0.00000  Uiso   1.00
C464   C     0.80011   0.50183   0.40346   0.00000  Uiso   1.00
C465   C     0.86656   0.50184   0.09654   0.00000  Uiso   1.00
C466   C     0.79820   0.49924   0.44928   0.00000  Uiso   1.00
C467   C     0.86847   0.49924   0.05072   0.00000  Uiso   1.00
C468   C     0.83461   0.49876   0.47674   0.00000  Uiso   1.00
C469   C     0.83206   0.49876   0.02326   0.00000  Uiso   1.00
C470   C     0.87350   0.49808   0.45803   0.00000  Uiso   1.00
C471   C     0.79317   0.49807   0.04197   0.00000  Uiso   1.00
C472   C     0.75998   0.49710   0.46802   0.00000  Uiso   1.00
C473   C     0.75740   0.49676   0.01314   0.00000  Uiso   1.00
C474   C     0.90669   0.49711   0.03198   0.00000  Uiso   1.00
C475   C     0.91982   0.49582   0.39494   0.00000  Uiso   1.00
C476   C     0.92575   0.49486   0.34647   0.00000  Uiso   1.00
C477   C     0.74684   0.49581   0.10506   0.00000  Uiso   1.00
C478   C     0.74092   0.49486   0.15353   0.00000  Uiso   1.00
C479   C     0.74956   0.55001   0.37309   0.00000  Uiso   1.00
C480   C     0.70251   0.54961   0.36636   0.00000  Uiso   1.00
C481   C     0.68533   0.59853   0.35643   0.00000  Uiso   1.00
C482   C     0.91710   0.55002   0.12692   0.00000  Uiso   1.00
C483   C     0.96416   0.54963   0.13364   0.00000  Uiso   1.00
C484   C     0.90927   0.49677   0.48686   0.00000  Uiso   1.00
C485   C     0.98133   0.59855   0.14358   0.00000  Uiso   1.00
C486   C     0.68800   0.45741   0.25109   0.00000  Uiso   1.00
C487   C     0.97868   0.54267   0.24948   0.00000  Uiso   1.00
C488   C     0.97867   0.45741   0.24890   0.00000  Uiso   1.00
C489   C     0.68799   0.54267   0.25052   0.00000  Uiso   1.00
C490   C     0.95718   0.50003   0.24817   0.00000  Uiso   1.00
Cu491  Cu    0.83333   0.54689   0.25000   0.00000  Uiso   1.00
Cu492  Cu    0.83333   0.45311   0.25000   0.00000  Uiso   1.00
H493   H     0.73148   0.49551   0.44788   0.00000  Uiso   1.00
H494   H     0.88216   0.62305   0.29910   0.00000  Uiso   1.00
H495   H     0.88215   0.37693   0.29911   0.00000  Uiso   1.00
H496   H     0.78451   0.62305   0.20090   0.00000  Uiso   1.00
H497   H     0.91121   0.46296   0.33181   0.00000  Uiso   1.00
H498   H     0.91400   0.52799   0.33149   0.00000  Uiso   1.00
H499   H     0.95923   0.49268   0.34129   0.00000  Uiso   1.00
H500   H     0.93731   0.52690   0.40794   0.00000  Uiso   1.00
H501   H     0.93506   0.46353   0.40845   0.00000  Uiso   1.00
H502   H     0.75545   0.46297   0.16820   0.00000  Uiso   1.00
H503   H     0.75267   0.52799   0.16850   0.00000  Uiso   1.00
H504   H     0.93518   0.49552   0.05212   0.00000  Uiso   1.00
H505   H     0.70743   0.49269   0.15871   0.00000  Uiso   1.00
H506   H     0.72936   0.52689   0.09205   0.00000  Uiso   1.00
H507   H     0.73161   0.46352   0.09156   0.00000  Uiso   1.00
H508   H     0.76285   0.56654   0.34406   0.00000  Uiso   1.00
H509   H     0.75795   0.57202   0.40261   0.00000  Uiso   1.00
H510   H     0.69331   0.52574   0.33884   0.00000  Uiso   1.00
H511   H     0.68868   0.53603   0.39634   0.00000  Uiso   1.00
H512   H     0.69279   0.62238   0.38460   0.00000  Uiso   1.00
H513   H     0.98459   0.59655   0.35077   0.00000  Uiso   1.00
H514   H     0.69854   0.61308   0.32648   0.00000  Uiso   1.00
H515   H     0.72648   0.49554   0.02440   0.00000  Uiso   1.00
H516   H     0.90381   0.56655   0.15595   0.00000  Uiso   1.00
H517   H     0.90871   0.57203   0.09740   0.00000  Uiso   1.00
H518   H     0.97336   0.52576   0.16115   0.00000  Uiso   1.00
H519   H     0.97798   0.53605   0.10366   0.00000  Uiso   1.00
H520   H     0.97386   0.62241   0.11541   0.00000  Uiso   1.00
H521   H     0.68207   0.59657   0.14923   0.00000  Uiso   1.00
H522   H     0.96812   0.61309   0.17353   0.00000  Uiso   1.00
H523   H     0.94018   0.49555   0.47560   0.00000  Uiso   1.00
H524   H     0.70407   0.42409   0.25178   0.00000  Uiso   1.00
H525   H     0.96262   0.57597   0.24933   0.00000  Uiso   1.00
H526   H     0.96260   0.42409   0.24821   0.00000  Uiso   1.00
H527   H     0.70405   0.57597   0.25067   0.00000  Uiso   1.00
H528   H     0.78452   0.37693   0.20089   0.00000  Uiso   1.00
N529   N     0.83333   0.61736   0.25000   0.00000  Uiso   1.00
N530   N     0.83333   0.38264   0.25000   0.00000  Uiso   1.00
O531   O     0.77321   0.53958   0.25000   0.00000  Uiso   1.00
O532   O     0.90277   0.50315   0.12309   0.00000  Uiso   1.00
O533   O     0.89345   0.46042   0.25001   0.00000  Uiso   1.00
O534   O     0.89345   0.53958   0.25001   0.00000  Uiso   1.00
O535   O     0.77321   0.46042   0.25000   0.00000  Uiso   1.00
O536   O     0.83332   0.53960   0.18513   0.00000  Uiso   1.00
O537   O     0.83334   0.46040   0.31487   0.00000  Uiso   1.00
O538   O     0.83334   0.53960   0.31487   0.00000  Uiso   1.00
O539   O     0.83332   0.46040   0.18513   0.00000  Uiso   1.00
O540   O     0.76389   0.50314   0.37691   0.00000  Uiso   1.00
C541   C     0.08751   0.83334   0.25228   0.00000  Uiso   1.00
C542   C     0.04282   0.83337   0.25183   0.00000  Uiso   1.00
C543   C     0.13955   0.69149   0.22272   0.00000  Uiso   1.00
C544   C     0.19379   0.97516   0.27728   0.00000  Uiso   1.00
C545   C     0.19378   0.69149   0.27728   0.00000  Uiso   1.00
C546   C     0.13955   0.97516   0.22273   0.00000  Uiso   1.00
C547   C     0.16346   0.83333   0.16432   0.00000  Uiso   1.00
C548   C     0.16988   0.83333   0.33568   0.00000  Uiso   1.00
C549   C     0.20940   0.83132   0.41143   0.00000  Uiso   1.00
C550   C     0.12393   0.83132   0.08857   0.00000  Uiso   1.00
C551   C     0.17174   0.83334   0.38417   0.00000  Uiso   1.00
C552   C     0.24583   0.83334   0.24772   0.00000  Uiso   1.00
C553   C     0.16159   0.83334   0.11583   0.00000  Uiso   1.00
C554   C     0.13344   0.83517   0.40346   0.00000  Uiso   1.00
C555   C     0.19989   0.83517   0.09654   0.00000  Uiso   1.00
C556   C     0.13153   0.83257   0.44928   0.00000  Uiso   1.00
C557   C     0.20180   0.83258   0.05072   0.00000  Uiso   1.00
C558   C     0.16794   0.83210   0.47674   0.00000  Uiso   1.00
C559   C     0.16540   0.83210   0.02326   0.00000  Uiso   1.00
C560   C     0.20683   0.83141   0.45803   0.00000  Uiso   1.00
C561   C     0.12650   0.83141   0.04197   0.00000  Uiso   1.00
C562   C     0.09332   0.83044   0.46802   0.00000  Uiso   1.00
C563   C     0.09073   0.83009   0.01314   0.00000  Uiso   1.00
C564   C     0.24002   0.83045   0.03198   0.00000  Uiso   1.00
C565   C     0.25316   0.82915   0.39494   0.00000  Uiso   1.00
C566   C     0.25908   0.82819   0.34647   0.00000  Uiso   1.00
C567   C     0.08018   0.82915   0.10506   0.00000  Uiso   1.00
C568   C     0.07425   0.82819   0.15353   0.00000  Uiso   1.00
C569   C     0.08289   0.88334   0.37309   0.00000  Uiso   1.00
C570   C     0.03584   0.88294   0.36636   0.00000  Uiso   1.00
C571   C     0.01867   0.93186   0.35643   0.00000  Uiso   1.00
C572   C     0.25044   0.88335   0.12692   0.00000  Uiso   1.00
C573   C     0.29749   0.88296   0.13364   0.00000  Uiso   1.00
C574   C     0.24261   0.83010   0.48686   0.00000  Uiso   1.00
C575   C     0.31466   0.93188   0.14358   0.00000  Uiso   1.00
C576   C     0.02133   0.79074   0.25109   0.00000  Uiso   1.00
C577   C     0.31201   0.87600   0.24948   0.00000  Uiso   1.00
C578   C     0.31200   0.79074   0.24890   0.00000  Uiso   1.00
C579   C     0.02132   0.87600   0.25052   0.00000  Uiso   1.00
C580   C     0.29051   0.83337   0.24817   0.00000  Uiso   1.00
Cu581  Cu    0.16667   0.88022   0.25000   0.00000  Uiso   1.00
Cu582  Cu    0.16667   0.78645   0.25000   0.00000  Uiso   1.00
H583   H     0.06482   0.82884   0.44788   0.00000  Uiso   1.00
H584   H     0.21549   0.95638   0.29910   0.00000  Uiso   1.00
H585   H     0.21548   0.71026   0.29911   0.00000  Uiso   1.00
H586   H     0.11784   0.95638   0.20090   0.00000  Uiso   1.00
H587   H     0.24454   0.79630   0.33181   0.00000  Uiso   1.00
H588   H     0.24733   0.86132   0.33149   0.00000  Uiso   1.00
H589   H     0.29257   0.82601   0.34129   0.00000  Uiso   1.00
H590   H     0.27064   0.86023   0.40794   0.00000  Uiso   1.00
H591   H     0.26840   0.79686   0.40845   0.00000  Uiso   1.00
H592   H     0.08879   0.79630   0.16820   0.00000  Uiso   1.00
H593   H     0.08600   0.86133   0.16850   0.00000  Uiso   1.00
H594   H     0.26852   0.82885   0.05212   0.00000  Uiso   1.00
H595   H     0.04077   0.82602   0.15871   0.00000  Uiso   1.00
H596   H     0.06269   0.86022   0.09205   0.00000  Uiso   1.00
H597   H     0.06494   0.79686   0.09156   0.00000  Uiso   1.00
H598   H     0.09618   0.89987   0.34406   0.00000  Uiso   1.00
H599   H     0.09128   0.90536   0.40261   0.00000  Uiso   1.00
H600   H     0.02664   0.85907   0.33884   0.00000  Uiso   1.00
H601   H     0.02202   0.86936   0.39634   0.00000  Uiso   1.00
H602   H     0.02612   0.95572   0.38460   0.00000  Uiso   1.00
H603   H     0.31792   0.92988   0.35077   0.00000  Uiso   1.00
H604   H     0.03187   0.94641   0.32648   0.00000  Uiso   1.00
H605   H     0.05982   0.82887   0.02440   0.00000  Uiso   1.00
H606   H     0.23714   0.89988   0.15595   0.00000  Uiso   1.00
H607   H     0.24204   0.90537   0.09740   0.00000  Uiso   1.00
H608   H     0.30669   0.85909   0.16115   0.00000  Uiso   1.00
H609   H     0.31131   0.86939   0.10366   0.00000  Uiso   1.00
H610   H     0.30720   0.95574   0.11541   0.00000  Uiso   1.00
H611   H     0.01540   0.92990   0.14923   0.00000  Uiso   1.00
H612   H     0.30145   0.94642   0.17353   0.00000  Uiso   1.00
H613   H     0.27352   0.82889   0.47560   0.00000  Uiso   1.00
H614   H     0.03740   0.75742   0.25178   0.00000  Uiso   1.00
H615   H     0.29595   0.90931   0.24933   0.00000  Uiso   1.00
H616   H     0.29594   0.75742   0.24821   0.00000  Uiso   1.00
H617   H     0.03738   0.90931   0.25067   0.00000  Uiso   1.00
H618   H     0.11785   0.71026   0.20089   0.00000  Uiso   1.00
N619   N     0.16667   0.95069   0.25000   0.00000  Uiso   1.00
N620   N     0.16667   0.71598   0.25000   0.00000  Uiso   1.00
O621   O     0.10655   0.87291   0.25000   0.00000  Uiso   1.00
O622   O     0.23611   0.83649   0.12309   0.00000  Uiso   1.00
O623   O     0.22679   0.79375   0.25001   0.00000  Uiso   1.00
O624   O     0.22679   0.87291   0.25001   0.00000  Uiso   1.00
O625   O     0.10655   0.79375   0.25000   0.00000  Uiso   1.00
O626   O     0.16666   0.87293   0.18513   0.00000  Uiso   1.00
O627   O     0.16668   0.79373   0.31487   0.00000  Uiso   1.00
O628   O     0.16668   0.87293   0.31487   0.00000  Uiso   1.00
O629   O     0.16666   0.79373   0.18513   0.00000  Uiso   1.00
O630   O     0.09723   0.83648   0.37691   0.00000  Uiso   1.00
C631   C     0.42084   0.83334   0.25228   0.00000  Uiso   1.00
C632   C     0.37616   0.83337   0.25183   0.00000  Uiso   1.00
C633   C     0.47288   0.69149   0.22272   0.00000  Uiso   1.00
C634   C     0.52712   0.97516   0.27728   0.00000  Uiso   1.00
C635   C     0.52712   0.69149   0.27728   0.00000  Uiso   1.00
C636   C     0.47288   0.97516   0.22273   0.00000  Uiso   1.00
C637   C     0.49679   0.83333   0.16432   0.00000  Uiso   1.00
C638   C     0.50321   0.83333   0.33568   0.00000  Uiso   1.00
C639   C     0.54273   0.83132   0.41143   0.00000  Uiso   1.00
C640   C     0.45727   0.83132   0.08857   0.00000  Uiso   1.00
C641   C     0.50508   0.83334   0.38417   0.00000  Uiso   1.00
C642   C     0.57916   0.83334   0.24772   0.00000  Uiso   1.00
C643   C     0.49493   0.83334   0.11583   0.00000  Uiso   1.00
C644   C     0.46678   0.83517   0.40346   0.00000  Uiso   1.00
C645   C     0.53322   0.83517   0.09654   0.00000  Uiso   1.00
C646   C     0.46486   0.83257   0.44928   0.00000  Uiso   1.00
C647   C     0.53514   0.83258   0.05072   0.00000  Uiso   1.00
C648   C     0.50127   0.83210   0.47674   0.00000  Uiso   1.00
C649   C     0.49873   0.83210   0.02326   0.00000  Uiso   1.00
C650   C     0.54016   0.83141   0.45803   0.00000  Uiso   1.00
C651   C     0.45984   0.83141   0.04197   0.00000  Uiso   1.00
C652   C     0.42665   0.83044   0.46802   0.00000  Uiso   1.00
C653   C     0.42406   0.83009   0.01314   0.00000  Uiso   1.00
C654   C     0.57335   0.83045   0.03198   0.00000  Uiso   1.00
C655   C     0.58649   0.82915   0.39494   0.00000  Uiso   1.00
C656   C     0.59242   0.82819   0.34647   0.00000  Uiso   1.00
C657   C     0.41351   0.82915   0.10506   0.00000  Uiso   1.00
C658   C     0.40758   0.82819   0.15353   0.00000  Uiso   1.00
C659   C     0.41622   0.88334   0.37309   0.00000  Uiso   1.00
C660   C     0.36917   0.88294   0.36636   0.00000  Uiso   1.00
C661   C     0.35200   0.93186   0.35643   0.00000  Uiso   1.00
C662   C     0.58377   0.88335   0.12692   0.00000  Uiso   1.00
C663   C     0.63082   0.88296   0.13364   0.00000  Uiso   1.00
C664   C     0.57594   0.83010   0.48686   0.00000  Uiso   1.00
C665   C     0.64799   0.93188   0.14358   0.00000  Uiso   1.00
C666   C     0.35467   0.79074   0.25109   0.00000  Uiso   1.00
C667   C     0.64534   0.87600   0.24948   0.00000  Uiso   1.00
C668   C     0.64533   0.79074   0.24890   0.00000  Uiso   1.00
C669   C     0.35466   0.87600   0.25052   0.00000  Uiso   1.00
C670   C     0.62384   0.83337   0.24817   0.00000  Uiso   1.00
Cu671  Cu    0.50000   0.88022   0.25000   0.00000  Uiso   1.00
Cu672  Cu    0.50000   0.78645   0.25000   0.00000  Uiso   1.00
H673   H     0.39815   0.82884   0.44788   0.00000  Uiso   1.00
H674   H     0.54882   0.95638   0.29910   0.00000  Uiso   1.00
H675   H     0.54881   0.71026   0.29911   0.00000  Uiso   1.00
H676   H     0.45118   0.95638   0.20090   0.00000  Uiso   1.00
H677   H     0.57788   0.79630   0.33181   0.00000  Uiso   1.00
H678   H     0.58066   0.86132   0.33149   0.00000  Uiso   1.00
H679   H     0.62590   0.82601   0.34129   0.00000  Uiso   1.00
H680   H     0.60397   0.86023   0.40794   0.00000  Uiso   1.00
H681   H     0.60173   0.79686   0.40845   0.00000  Uiso   1.00
H682   H     0.42212   0.79630   0.16820   0.00000  Uiso   1.00
H683   H     0.41934   0.86133   0.16850   0.00000  Uiso   1.00
H684   H     0.60185   0.82885   0.05212   0.00000  Uiso   1.00
H685   H     0.37410   0.82602   0.15871   0.00000  Uiso   1.00
H686   H     0.39603   0.86022   0.09205   0.00000  Uiso   1.00
H687   H     0.39827   0.79686   0.09156   0.00000  Uiso   1.00
H688   H     0.42952   0.89987   0.34406   0.00000  Uiso   1.00
H689   H     0.42461   0.90536   0.40261   0.00000  Uiso   1.00
H690   H     0.35998   0.85907   0.33884   0.00000  Uiso   1.00
H691   H     0.35535   0.86936   0.39634   0.00000  Uiso   1.00
H692   H     0.35945   0.95572   0.38460   0.00000  Uiso   1.00
H693   H     0.65125   0.92988   0.35077   0.00000  Uiso   1.00
H694   H     0.36521   0.94641   0.32648   0.00000  Uiso   1.00
H695   H     0.39315   0.82887   0.02440   0.00000  Uiso   1.00
H696   H     0.57048   0.89988   0.15595   0.00000  Uiso   1.00
H697   H     0.57538   0.90537   0.09740   0.00000  Uiso   1.00
H698   H     0.64002   0.85909   0.16115   0.00000  Uiso   1.00
H699   H     0.64465   0.86939   0.10366   0.00000  Uiso   1.00
H700   H     0.64053   0.95574   0.11541   0.00000  Uiso   1.00
H701   H     0.34874   0.92990   0.14923   0.00000  Uiso   1.00
H702   H     0.63479   0.94642   0.17353   0.00000  Uiso   1.00
H703   H     0.60685   0.82889   0.47560   0.00000  Uiso   1.00
H704   H     0.37073   0.75742   0.25178   0.00000  Uiso   1.00
H705   H     0.62929   0.90931   0.24933   0.00000  Uiso   1.00
H706   H     0.62927   0.75742   0.24821   0.00000  Uiso   1.00
H707   H     0.37071   0.90931   0.25067   0.00000  Uiso   1.00
H708   H     0.45119   0.71026   0.20089   0.00000  Uiso   1.00
N709   N     0.50000   0.95069   0.25000   0.00000  Uiso   1.00
N710   N     0.50000   0.71598   0.25000   0.00000  Uiso   1.00
O711   O     0.43988   0.87291   0.25000   0.00000  Uiso   1.00
O712   O     0.56944   0.83649   0.12309   0.00000  Uiso   1.00
O713   O     0.56012   0.79375   0.25001   0.00000  Uiso   1.00
O714   O     0.56012   0.87291   0.25001   0.00000  Uiso   1.00
O715   O     0.43988   0.79375   0.25000   0.00000  Uiso   1.00
O716   O     0.49999   0.87293   0.18513   0.00000  Uiso   1.00
O717   O     0.50001   0.79373   0.31487   0.00000  Uiso   1.00
O718   O     0.50001   0.87293   0.31487   0.00000  Uiso   1.00
O719   O     0.49999   0.79373   0.18513   0.00000  Uiso   1.00
O720   O     0.43056   0.83648   0.37691   0.00000  Uiso   1.00
C721   C     0.75417   0.83334   0.25228   0.00000  Uiso   1.00
C722   C     0.70949   0.83337   0.25183   0.00000  Uiso   1.00
C723   C     0.80622   0.69149   0.22272   0.00000  Uiso   1.00
C724   C     0.86045   0.97516   0.27728   0.00000  Uiso   1.00
C725   C     0.86045   0.69149   0.27728   0.00000  Uiso   1.00
C726   C     0.80621   0.97516   0.22273   0.00000  Uiso   1.00
C727   C     0.83012   0.83333   0.16432   0.00000  Uiso   1.00
C728   C     0.83654   0.83333   0.33568   0.00000  Uiso   1.00
C729   C     0.87607   0.83132   0.41143   0.00000  Uiso   1.00
C730   C     0.79060   0.83132   0.08857   0.00000  Uiso   1.00
C731   C     0.83841   0.83334   0.38417   0.00000  Uiso   1.00
C732   C     0.91249   0.83334   0.24772   0.00000  Uiso   1.00
C733   C     0.82826   0.83334   0.11583   0.00000  Uiso   1.00
C734   C     0.80011   0.83517   0.40346   0.00000  Uiso   1.00
C735   C     0.86656   0.83517   0.09654   0.00000  Uiso   1.00
C736   C     0.79820   0.83257   0.44928   0.00000  Uiso   1.00
C737   C     0.86847   0.83258   0.05072   0.00000  Uiso   1.00
C738   C     0.83461   0.83210   0.47674   0.00000  Uiso   1.00
C739   C     0.83206   0.83210   0.02326   0.00000  Uiso   1.00
C740   C     0.87350   0.83141   0.45803   0.00000  Uiso   1.00
C741   C     0.79317   0.83141   0.04197   0.00000  Uiso   1.00
C742   C     0.75998   0.83044   0.46802   0.00000  Uiso   1.00
C743   C     0.75740   0.83009   0.01314   0.00000  Uiso   1.00
C744   C     0.90669   0.83045   0.03198   0.00000  Uiso   1.00
C745   C     0.91982   0.82915   0.39494   0.00000  Uiso   1.00
C746   C     0.92575   0.82819   0.34647   0.00000  Uiso   1.00
C747   C     0.74684   0.82915   0.10506   0.00000  Uiso   1.00
C748   C     0.74092   0.82819   0.15353   0.00000  Uiso   1.00
C749   C     0.74956   0.88334   0.37309   0.00000  Uiso   1.00
C750   C     0.70251   0.88294   0.36636   0.00000  Uiso   1.00
C751   C     0.68533   0.93186   0.35643   0.00000  Uiso   1.00
C752   C     0.91710   0.88335   0.12692   0.00000  Uiso   1.00
C753   C     0.96416   0.88296   0.13364   0.00000  Uiso   1.00
C754   C     0.90927   0.83010   0.48686   0.00000  Uiso   1.00
C755   C     0.98133   0.93188   0.14358   0.00000  Uiso   1.00
C756   C     0.68800   0.79074   0.25109   0.00000  Uiso   1.00
C757   C     0.97868   0.87600   0.24948   0.00000  Uiso   1.00
C758   C     0.97867   0.79074   0.24890   0.00000  Uiso   1.00
C759   C     0.68799   0.87600   0.25052   0.00000  Uiso   1.00
C760   C     0.95718   0.83337   0.24817   0.00000  Uiso   1.00
Cu761  Cu    0.83333   0.88022   0.25000   0.00000  Uiso   1.00
Cu762  Cu    0.83333   0.78645   0.25000   0.00000  Uiso   1.00
H763   H     0.73148   0.82884   0.44788   0.00000  Uiso   1.00
H764   H     0.88216   0.95638   0.29910   0.00000  Uiso   1.00
H765   H     0.88215   0.71026   0.29911   0.00000  Uiso   1.00
H766   H     0.78451   0.95638   0.20090   0.00000  Uiso   1.00
H767   H     0.91121   0.79630   0.33181   0.00000  Uiso   1.00
H768   H     0.91400   0.86132   0.33149   0.00000  Uiso   1.00
H769   H     0.95923   0.82601   0.34129   0.00000  Uiso   1.00
H770   H     0.93731   0.86023   0.40794   0.00000  Uiso   1.00
H771   H     0.93506   0.79686   0.40845   0.00000  Uiso   1.00
H772   H     0.75545   0.79630   0.16820   0.00000  Uiso   1.00
H773   H     0.75267   0.86133   0.16850   0.00000  Uiso   1.00
H774   H     0.93518   0.82885   0.05212   0.00000  Uiso   1.00
H775   H     0.70743   0.82602   0.15871   0.00000  Uiso   1.00
H776   H     0.72936   0.86022   0.09205   0.00000  Uiso   1.00
H777   H     0.73161   0.79686   0.09156   0.00000  Uiso   1.00
H778   H     0.76285   0.89987   0.34406   0.00000  Uiso   1.00
H779   H     0.75795   0.90536   0.40261   0.00000  Uiso   1.00
H780   H     0.69331   0.85907   0.33884   0.00000  Uiso   1.00
H781   H     0.68868   0.86936   0.39634   0.00000  Uiso   1.00
H782   H     0.69279   0.95572   0.38460   0.00000  Uiso   1.00
H783   H     0.98459   0.92988   0.35077   0.00000  Uiso   1.00
H784   H     0.69854   0.94641   0.32648   0.00000  Uiso   1.00
H785   H     0.72648   0.82887   0.02440   0.00000  Uiso   1.00
H786   H     0.90381   0.89988   0.15595   0.00000  Uiso   1.00
H787   H     0.90871   0.90537   0.09740   0.00000  Uiso   1.00
H788   H     0.97336   0.85909   0.16115   0.00000  Uiso   1.00
H789   H     0.97798   0.86939   0.10366   0.00000  Uiso   1.00
H790   H     0.97386   0.95574   0.11541   0.00000  Uiso   1.00
H791   H     0.68207   0.92990   0.14923   0.00000  Uiso   1.00
H792   H     0.96812   0.94642   0.17353   0.00000  Uiso   1.00
H793   H     0.94018   0.82889   0.47560   0.00000  Uiso   1.00
H794   H     0.70407   0.75742   0.25178   0.00000  Uiso   1.00
H795   H     0.96262   0.90931   0.24933   0.00000  Uiso   1.00
H796   H     0.96260   0.75742   0.24821   0.00000  Uiso   1.00
H797   H     0.70405   0.90931   0.25067   0.00000  Uiso   1.00
H798   H     0.78452   0.71026   0.20089   0.00000  Uiso   1.00
N799   N     0.83333   0.95069   0.25000   0.00000  Uiso   1.00
N800   N     0.83333   0.71598   0.25000   0.00000  Uiso   1.00
O801   O     0.77321   0.87291   0.25000   0.00000  Uiso   1.00
O802   O     0.90277   0.83649   0.12309   0.00000  Uiso   1.00
O803   O     0.89345   0.79375   0.25001   0.00000  Uiso   1.00
O804   O     0.89345   0.87291   0.25001   0.00000  Uiso   1.00
O805   O     0.77321   0.79375   0.25000   0.00000  Uiso   1.00
O806   O     0.83332   0.87293   0.18513   0.00000  Uiso   1.00
O807   O     0.83334   0.79373   0.31487   0.00000  Uiso   1.00
O808   O     0.83334   0.87293   0.31487   0.00000  Uiso   1.00
O809   O     0.83332   0.79373   0.18513   0.00000  Uiso   1.00
O810   O     0.76389   0.83648   0.37691   0.00000  Uiso   1.00
C811   C     0.08751   0.16668   0.75228   0.00000  Uiso   1.00
C812   C     0.04282   0.16670   0.75183   0.00000  Uiso   1.00
C813   C     0.13955   0.02483   0.72272   0.00000  Uiso   1.00
C814   C     0.19379   0.30850   0.77728   0.00000  Uiso   1.00
C815   C     0.19378   0.02483   0.77728   0.00000  Uiso   1.00
C816   C     0.13955   0.30850   0.72273   0.00000  Uiso   1.00
C817   C     0.16346   0.16667   0.66432   0.00000  Uiso   1.00
C818   C     0.16988   0.16667   0.83568   0.00000  Uiso   1.00
C819   C     0.20940   0.16466   0.91143   0.00000  Uiso   1.00
C820   C     0.12393   0.16465   0.58857   0.00000  Uiso   1.00
C821   C     0.17174   0.16667   0.88417   0.00000  Uiso   1.00
C822   C     0.24583   0.16668   0.74772   0.00000  Uiso   1.00
C823   C     0.16159   0.16667   0.61583   0.00000  Uiso   1.00
C824   C     0.13344   0.16850   0.90346   0.00000  Uiso   1.00
C825   C     0.19989   0.16850   0.59654   0.00000  Uiso   1.00
C826   C     0.13153   0.16591   0.94928   0.00000  Uiso   1.00
C827   C     0.20180   0.16591   0.55072   0.00000  Uiso   1.00
C828   C     0.16794   0.16543   0.97674   0.00000  Uiso   1.00
C829   C     0.16540   0.16543   0.52326   0.00000  Uiso   1.00
C830   C     0.20683   0.16474   0.95803   0.00000  Uiso   1.00
C831   C     0.12650   0.16474   0.54197   0.00000  Uiso   1.00
C832   C     0.09332   0.16377   0.96802   0.00000  Uiso   1.00
C833   C     0.09073   0.16342   0.51314   0.00000  Uiso   1.00
C834   C     0.24002   0.16378   0.53198   0.00000  Uiso   1.00
C835   C     0.25316   0.16248   0.89494   0.00000  Uiso   1.00
C836   C     0.25908   0.16152   0.84647   0.00000  Uiso   1.00
C837   C     0.08018   0.16248   0.60506   0.00000  Uiso   1.00
C838   C     0.07425   0.16153   0.65353   0.00000  Uiso   1.00
C839   C     0.08289   0.21667   0.87309   0.00000  Uiso   1.00
C840   C     0.03584   0.21628   0.86636   0.00000  Uiso   1.00
C841   C     0.01867   0.26520   0.85643   0.00000  Uiso   1.00
C842   C     0.25044   0.21668   0.62692   0.00000  Uiso   1.00
C843   C     0.29749   0.21629   0.63364   0.00000  Uiso   1.00
C844   C     0.24261   0.16343   0.98686   0.00000  Uiso   1.00
C845   C     0.31466   0.26522   0.64358   0.00000  Uiso   1.00
C846   C     0.02133   0.12408   0.75109   0.00000  Uiso   1.00
C847   C     0.31201   0.20933   0.74948   0.00000  Uiso   1.00
C848   C     0.31200   0.12408   0.74890   0.00000  Uiso   1.00
C849   C     0.02132   0.20933   0.75052   0.00000  Uiso   1.00
C850   C     0.29051   0.16670   0.74817   0.00000  Uiso   1.00
Cu851  Cu    0.16667   0.21355   0.75000   0.00000  Uiso   1.00
Cu852  Cu    0.16667   0.11978   0.75000   0.00000  Uiso   1.00
H853   H     0.06482   0.16217   0.94788   0.00000  Uiso   1.00
H854   H     0.21549   0.28972   0.79910   0.00000  Uiso   1.00
H855   H     0.21548   0.04359   0.79911   0.00000  Uiso   1.00
H856   H     0.11784   0.28972   0.70090   0.00000  Uiso   1.00
H857   H     0.24454   0.12963   0.83181   0.00000  Uiso   1.00
H858   H     0.24733   0.19465   0.83149   0.00000  Uiso   1.00
H859   H     0.29257   0.15935   0.84129   0.00000  Uiso   1.00
H860   H     0.27064   0.19356   0.90794   0.00000  Uiso   1.00
H861   H     0.26840   0.13019   0.90845   0.00000  Uiso   1.00
H862   H     0.08879   0.12964   0.66820   0.00000  Uiso   1.00
H863   H     0.08600   0.19466   0.66850   0.00000  Uiso   1.00
H864   H     0.26852   0.16219   0.55212   0.00000  Uiso   1.00
H865   H     0.04077   0.15935   0.65871   0.00000  Uiso   1.00
H866   H     0.06269   0.19356   0.59205   0.00000  Uiso   1.00
H867   H     0.06494   0.13019   0.59156   0.00000  Uiso   1.00
H868   H     0.09618   0.23321   0.84406   0.00000  Uiso   1.00
H869   H     0.09128   0.23869   0.90261   0.00000  Uiso   1.00
H870   H     0.02664   0.19241   0.83884   0.00000  Uiso   1.00
H871   H     0.02202   0.20269   0.89634   0.00000  Uiso   1.00
H872   H     0.02612   0.28905   0.88460   0.00000  Uiso   1.00
H873   H     0.31792   0.26321   0.85077   0.00000  Uiso   1.00
H874   H     0.03187   0.27974   0.82648   0.00000  Uiso   1.00
H875   H     0.05982   0.16220   0.52440   0.00000  Uiso   1.00
H876   H     0.23714   0.23321   0.65595   0.00000  Uiso   1.00
H877   H     0.24204   0.23870   0.59740   0.00000  Uiso   1.00
H878   H     0.30669   0.19242   0.66115   0.00000  Uiso   1.00
H879   H     0.31131   0.20272   0.60366   0.00000  Uiso   1.00
H880   H     0.30720   0.28907   0.61541   0.00000  Uiso   1.00
H881   H     0.01540   0.26324   0.64923   0.00000  Uiso   1.00
H882   H     0.30145   0.27975   0.67353   0.00000  Uiso   1.00
H883   H     0.27352   0.16222   0.97560   0.00000  Uiso   1.00
H884   H     0.03740   0.09076   0.75178   0.00000  Uiso   1.00
H885   H     0.29595   0.24264   0.74933   0.00000  Uiso   1.00
H886   H     0.29594   0.09076   0.74821   0.00000  Uiso   1.00
H887   H     0.03738   0.24264   0.75067   0.00000  Uiso   1.00
H888   H     0.11785   0.04359   0.70089   0.00000  Uiso   1.00
N889   N     0.16667   0.28402   0.75000   0.00000  Uiso   1.00
N890   N     0.16667   0.04931   0.75000   0.00000  Uiso   1.00
O891   O     0.10655   0.20625   0.75000   0.00000  Uiso   1.00
O892   O     0.23611   0.16982   0.62309   0.00000  Uiso   1.00
O893   O     0.22679   0.12709   0.75001   0.00000  Uiso   1.00
O894   O     0.22679   0.20625   0.75001   0.00000  Uiso   1.00
O895   O     0.10655   0.12709   0.75000   0.00000  Uiso   1.00
O896   O     0.16666   0.20627   0.68513   0.00000  Uiso   1.00
O897   O     0.16668   0.12707   0.81487   0.00000  Uiso   1.00
O898   O     0.16668   0.20627   0.81487   0.00000  Uiso   1.00
O899   O     0.16666   0.12707   0.68513   0.00000  Uiso   1.00
O900   O     0.09723   0.16981   0.87691   0.00000  Uiso   1.00
C901   C     0.42084   0.16668   0.75228   0.00000  Uiso   1.00
C902   C     0.37616   0.16670   0.75183   0.00000  Uiso   1.00
C903   C     0.47288   0.02483   0.72272   0.00000  Uiso   1.00
C904   C     0.52712   0.30850   0.77728   0.00000  Uiso   1.00
C905   C     0.52712   0.02483   0.77728   0.00000  Uiso   1.00
C906   C     0.47288   0.30850   0.72273   0.00000  Uiso   1.00
C907   C     0.49679   0.16667   0.66432   0.00000  Uiso   1.00
C908   C     0.50321   0.16667   0.83568   0.00000  Uiso   1.00
C909   C     0.54273   0.16466   0.91143   0.00000  Uiso   1.00
C910   C     0.45727   0.16465   0.58857   0.00000  Uiso   1.00
C911   C     0.50508   0.16667   0.88417   0.00000  Uiso   1.00
C912   C     0.57916   0.16668   0.74772   0.00000  Uiso   1.00
C913   C     0.49493   0.16667   0.61583   0.00000  Uiso   1.00
C914   C     0.46678   0.16850   0.90346   0.00000  Uiso   1.00
C915   C     0.53322   0.16850   0.59654   0.00000  Uiso   1.00
C916   C     0.46486   0.16591   0.94928   0.00000  Uiso   1.00
C917   C     0.53514   0.16591   0.55072   0.00000  Uiso   1.00
C918   C     0.50127   0.16543   0.97674   0.00000  Uiso   1.00
C919   C     0.49873   0.16543   0.52326   0.00000  Uiso   1.00
C920   C     0.54016   0.16474   0.95803   0.00000  Uiso   1.00
C921   C     0.45984   0.16474   0.54197   0.00000  Uiso   1.00
C922   C     0.42665   0.16377   0.96802   0.00000  Uiso   1.00
C923   C     0.42406   0.16342   0.51314   0.00000  Uiso   1.00
C924   C     0.57335   0.16378   0.53198   0.00000  Uiso   1.00
C925   C     0.58649   0.16248   0.89494   0.00000  Uiso   1.00
C926   C     0.59242   0.16152   0.84647   0.00000  Uiso   1.00
C927   C     0.41351   0.16248   0.60506   0.00000  Uiso   1.00
C928   C     0.40758   0.16153   0.65353   0.00000  Uiso   1.00
C929   C     0.41622   0.21667   0.87309   0.00000  Uiso   1.00
C930   C     0.36917   0.21628   0.86636   0.00000  Uiso   1.00
C931   C     0.35200   0.26520   0.85643   0.00000  Uiso   1.00
C932   C     0.58377   0.21668   0.62692   0.00000  Uiso   1.00
C933   C     0.63082   0.21629   0.63364   0.00000  Uiso   1.00
C934   C     0.57594   0.16343   0.98686   0.00000  Uiso   1.00
C935   C     0.64799   0.26522   0.64358   0.00000  Uiso   1.00
C936   C     0.35467   0.12408   0.75109   0.00000  Uiso   1.00
C937   C     0.64534   0.20933   0.74948   0.00000  Uiso   1.00
C938   C     0.64533   0.12408   0.74890   0.00000  Uiso   1.00
C939   C     0.35466   0.20933   0.75052   0.00000  Uiso   1.00
C940   C     0.62384   0.16670   0.74817   0.00000  Uiso   1.00
Cu941  Cu    0.50000   0.21355   0.75000   0.00000  Uiso   1.00
Cu942  Cu    0.50000   0.11978   0.75000   0.00000  Uiso   1.00
H943   H     0.39815   0.16217   0.94788   0.00000  Uiso   1.00
H944   H     0.54882   0.28972   0.79910   0.00000  Uiso   1.00
H945   H     0.54881   0.04359   0.79911   0.00000  Uiso   1.00
H946   H     0.45118   0.28972   0.70090   0.00000  Uiso   1.00
H947   H     0.57788   0.12963   0.83181   0.00000  Uiso   1.00
H948   H     0.58066   0.19465   0.83149   0.00000  Uiso   1.00
H949   H     0.62590   0.15935   0.84129   0.00000  Uiso   1.00
H950   H     0.60397   0.19356   0.90794   0.00000  Uiso   1.00
H951   H     0.60173   0.13019   0.90845   0.00000  Uiso   1.00
H952   H     0.42212   0.12964   0.66820   0.00000  Uiso   1.00
H953   H     0.41934   0.19466   0.66850   0.00000  Uiso   1.00
H954   H     0.60185   0.16219   0.55212   0.00000  Uiso   1.00
H955   H     0.37410   0.15935   0.65871   0.00000  Uiso   1.00
H956   H     0.39603   0.19356   0.59205   0.00000  Uiso   1.00
H957   H     0.39827   0.13019   0.59156   0.00000  Uiso   1.00
H958   H     0.42952   0.23321   0.84406   0.00000  Uiso   1.00
H959   H     0.42461   0.23869   0.90261   0.00000  Uiso   1.00
H960   H     0.35998   0.19241   0.83884   0.00000  Uiso   1.00
H961   H     0.35535   0.20269   0.89634   0.00000  Uiso   1.00
H962   H     0.35945   0.28905   0.88460   0.00000  Uiso   1.00
H963   H     0.65125   0.26321   0.85077   0.00000  Uiso   1.00
H964   H     0.36521   0.27974   0.82648   0.00000  Uiso   1.00
H965   H     0.39315   0.16220   0.52440   0.00000  Uiso   1.00
H966   H     0.57048   0.23321   0.65595   0.00000  Uiso   1.00
H967   H     0.57538   0.23870   0.59740   0.00000  Uiso   1.00
H968   H     0.64002   0.19242   0.66115   0.00000  Uiso   1.00
H969   H     0.64465   0.20272   0.60366   0.00000  Uiso   1.00
H970   H     0.64053   0.28907   0.61541   0.00000  Uiso   1.00
H971   H     0.34874   0.26324   0.64923   0.00000  Uiso   1.00
H972   H     0.63479   0.27975   0.67353   0.00000  Uiso   1.00
H973   H     0.60685   0.16222   0.97560   0.00000  Uiso   1.00
H974   H     0.37073   0.09076   0.75178   0.00000  Uiso   1.00
H975   H     0.62929   0.24264   0.74933   0.00000  Uiso   1.00
H976   H     0.62927   0.09076   0.74821   0.00000  Uiso   1.00
H977   H     0.37071   0.24264   0.75067   0.00000  Uiso   1.00
H978   H     0.45119   0.04359   0.70089   0.00000  Uiso   1.00
N979   N     0.50000   0.28402   0.75000   0.00000  Uiso   1.00
N980   N     0.50000   0.04931   0.75000   0.00000  Uiso   1.00
O981   O     0.43988   0.20625   0.75000   0.00000  Uiso   1.00
O982   O     0.56944   0.16982   0.62309   0.00000  Uiso   1.00
O983   O     0.56012   0.12709   0.75001   0.00000  Uiso   1.00
O984   O     0.56012   0.20625   0.75001   0.00000  Uiso   1.00
O985   O     0.43988   0.12709   0.75000   0.00000  Uiso   1.00
O986   O     0.49999   0.20627   0.68513   0.00000  Uiso   1.00
O987   O     0.50001   0.12707   0.81487   0.00000  Uiso   1.00
O988   O     0.50001   0.20627   0.81487   0.00000  Uiso   1.00
O989   O     0.49999   0.12707   0.68513   0.00000  Uiso   1.00
O990   O     0.43056   0.16981   0.87691   0.00000  Uiso   1.00
C991   C     0.75417   0.16668   0.75228   0.00000  Uiso   1.00
C992   C     0.70949   0.16670   0.75183   0.00000  Uiso   1.00
C993   C     0.80622   0.02483   0.72272   0.00000  Uiso   1.00
C994   C     0.86045   0.30850   0.77728   0.00000  Uiso   1.00
C995   C     0.86045   0.02483   0.77728   0.00000  Uiso   1.00
C996   C     0.80621   0.30850   0.72273   0.00000  Uiso   1.00
C997   C     0.83012   0.16667   0.66432   0.00000  Uiso   1.00
C998   C     0.83654   0.16667   0.83568   0.00000  Uiso   1.00
C999   C     0.87607   0.16466   0.91143   0.00000  Uiso   1.00
C1000  C     0.79060   0.16465   0.58857   0.00000  Uiso   1.00
C1001  C     0.83841   0.16667   0.88417   0.00000  Uiso   1.00
C1002  C     0.91249   0.16668   0.74772   0.00000  Uiso   1.00
C1003  C     0.82826   0.16667   0.61583   0.00000  Uiso   1.00
C1004  C     0.80011   0.16850   0.90346   0.00000  Uiso   1.00
C1005  C     0.86656   0.16850   0.59654   0.00000  Uiso   1.00
C1006  C     0.79820   0.16591   0.94928   0.00000  Uiso   1.00
C1007  C     0.86847   0.16591   0.55072   0.00000  Uiso   1.00
C1008  C     0.83461   0.16543   0.97674   0.00000  Uiso   1.00
C1009  C     0.83206   0.16543   0.52326   0.00000  Uiso   1.00
C1010  C     0.87350   0.16474   0.95803   0.00000  Uiso   1.00
C1011  C     0.79317   0.16474   0.54197   0.00000  Uiso   1.00
C1012  C     0.75998   0.16377   0.96802   0.00000  Uiso   1.00
C1013  C     0.75740   0.16342   0.51314   0.00000  Uiso   1.00
C1014  C     0.90669   0.16378   0.53198   0.00000  Uiso   1.00
C1015  C     0.91982   0.16248   0.89494   0.00000  Uiso   1.00
C1016  C     0.92575   0.16152   0.84647   0.00000  Uiso   1.00
C1017  C     0.74684   0.16248   0.60506   0.00000  Uiso   1.00
C1018  C     0.74092   0.16153   0.65353   0.00000  Uiso   1.00
C1019  C     0.74956   0.21667   0.87309   0.00000  Uiso   1.00
C1020  C     0.70251   0.21628   0.86636   0.00000  Uiso   1.00
C1021  C     0.68533   0.26520   0.85643   0.00000  Uiso   1.00
C1022  C     0.91710   0.21668   0.62692   0.00000  Uiso   1.00
C1023  C     0.96416   0.21629   0.63364   0.00000  Uiso   1.00
C1024  C     0.90927   0.16343   0.98686   0.00000  Uiso   1.00
C1025  C     0.98133   0.26522   0.64358   0.00000  Uiso   1.00
C1026  C     0.68800   0.12408   0.75109   0.00000  Uiso   1.00
C1027  C     0.97868   0.20933   0.74948   0.00000  Uiso   1.00
C1028  C     0.97867   0.12408   0.74890   0.00000  Uiso   1.00
C1029  C     0.68799   0.20933   0.75052   0.00000  Uiso   1.00
C1030  C     0.95718   0.16670   0.74817   0.00000  Uiso   1.00
Cu1031 Cu    0.83333   0.21355   0.75000   0.00000  Uiso   1.00
Cu1032 Cu    0.83333   0.11978   0.75000   0.00000  Uiso   1.00
H1033  H     0.73148   0.16217   0.94788   0.00000  Uiso   1.00
H1034  H     0.88216   0.28972   0.79910   0.00000  Uiso   1.00
H1035  H     0.88215   0.04359   0.79911   0.00000  Uiso   1.00
H1036  H     0.78451   0.28972   0.70090   0.00000  Uiso   1.00
H1037  H     0.91121   0.12963   0.83181   0.00000  Uiso   1.00
H1038  H     0.91400   0.19465   0.83149   0.00000  Uiso   1.00
H1039  H     0.95923   0.15935   0.84129   0.00000  Uiso   1.00
H1040  H     0.93731   0.19356   0.90794   0.00000  Uiso   1.00
H1041  H     0.93506   0.13019   0.90845   0.00000  Uiso   1.00
H1042  H     0.75545   0.12964   0.66820   0.00000  Uiso   1.00
H1043  H     0.75267   0.19466   0.66850   0.00000  Uiso   1.00
H1044  H     0.93518   0.16219   0.55212   0.00000  Uiso   1.00
H1045  H     0.70743   0.15935   0.65871   0.00000  Uiso   1.00
H1046  H     0.72936   0.19356   0.59205   0.00000  Uiso   1.00
H1047  H     0.73161   0.13019   0.59156   0.00000  Uiso   1.00
H1048  H     0.76285   0.23321   0.84406   0.00000  Uiso   1.00
H1049  H     0.75795   0.23869   0.90261   0.00000  Uiso   1.00
H1050  H     0.69331   0.19241   0.83884   0.00000  Uiso   1.00
H1051  H     0.68868   0.20269   0.89634   0.00000  Uiso   1.00
H1052  H     0.69279   0.28905   0.88460   0.00000  Uiso   1.00
H1053  H     0.98459   0.26321   0.85077   0.00000  Uiso   1.00
H1054  H     0.69854   0.27974   0.82648   0.00000  Uiso   1.00
H1055  H     0.72648   0.16220   0.52440   0.00000  Uiso   1.00
H1056  H     0.90381   0.23321   0.65595   0.00000  Uiso   1.00
H1057  H     0.90871   0.23870   0.59740   0.00000  Uiso   1.00
H1058  H     0.97336   0.19242   0.66115   0.00000  Uiso   1.00
H1059  H     0.97798   0.20272   0.60366   0.00000  Uiso   1.00
H1060  H     0.97386   0.28907   0.61541   0.00000  Uiso   1.00
H1061  H     0.68207   0.26324   0.64923   0.00000  Uiso   1.00
H1062  H     0.96812   0.27975   0.67353   0.00000  Uiso   1.00
H1063  H     0.94018   0.16222   0.97560   0.00000  Uiso   1.00
H1064  H     0.70407   0.09076   0.75178   0.00000  Uiso   1.00
H1065  H     0.96262   0.24264   0.74933   0.00000  Uiso   1.00
H1066  H     0.96260   0.09076   0.74821   0.00000  Uiso   1.00
H1067  H     0.70405   0.24264   0.75067   0.00000  Uiso   1.00
H1068  H     0.78452   0.04359   0.70089   0.00000  Uiso   1.00
N1069  N     0.83333   0.28402   0.75000   0.00000  Uiso   1.00
N1070  N     0.83333   0.04931   0.75000   0.00000  Uiso   1.00
O1071  O     0.77321   0.20625   0.75000   0.00000  Uiso   1.00
O1072  O     0.90277   0.16982   0.62309   0.00000  Uiso   1.00
O1073  O     0.89345   0.12709   0.75001   0.00000  Uiso   1.00
O1074  O     0.89345   0.20625   0.75001   0.00000  Uiso   1.00
O1075  O     0.77321   0.12709   0.75000   0.00000  Uiso   1.00
O1076  O     0.83332   0.20627   0.68513   0.00000  Uiso   1.00
O1077  O     0.83334   0.12707   0.81487   0.00000  Uiso   1.00
O1078  O     0.83334   0.20627   0.81487   0.00000  Uiso   1.00
O1079  O     0.83332   0.12707   0.68513   0.00000  Uiso   1.00
O1080  O     0.76389   0.16981   0.87691   0.00000  Uiso   1.00
C1081  C     0.08751   0.50001   0.75228   0.00000  Uiso   1.00
C1082  C     0.04282   0.50003   0.75183   0.00000  Uiso   1.00
C1083  C     0.13955   0.35816   0.72272   0.00000  Uiso   1.00
C1084  C     0.19379   0.64183   0.77728   0.00000  Uiso   1.00
C1085  C     0.19378   0.35816   0.77728   0.00000  Uiso   1.00
C1086  C     0.13955   0.64183   0.72273   0.00000  Uiso   1.00
C1087  C     0.16346   0.50000   0.66432   0.00000  Uiso   1.00
C1088  C     0.16988   0.50000   0.83568   0.00000  Uiso   1.00
C1089  C     0.20940   0.49799   0.91143   0.00000  Uiso   1.00
C1090  C     0.12393   0.49799   0.58857   0.00000  Uiso   1.00
C1091  C     0.17174   0.50000   0.88417   0.00000  Uiso   1.00
C1092  C     0.24583   0.50001   0.74772   0.00000  Uiso   1.00
C1093  C     0.16159   0.50000   0.61583   0.00000  Uiso   1.00
C1094  C     0.13344   0.50183   0.90346   0.00000  Uiso   1.00
C1095  C     0.19989   0.50184   0.59654   0.00000  Uiso   1.00
C1096  C     0.13153   0.49924   0.94928   0.00000  Uiso   1.00
C1097  C     0.20180   0.49924   0.55072   0.00000  Uiso   1.00
C1098  C     0.16794   0.49876   0.97674   0.00000  Uiso   1.00
C1099  C     0.16540   0.49876   0.52326   0.00000  Uiso   1.00
C1100  C     0.20683   0.49808   0.95803   0.00000  Uiso   1.00
C1101  C     0.12650   0.49807   0.54197   0.00000  Uiso   1.00
C1102  C     0.09332   0.49710   0.96802   0.00000  Uiso   1.00
C1103  C     0.09073   0.49676   0.51314   0.00000  Uiso   1.00
C1104  C     0.24002   0.49711   0.53198   0.00000  Uiso   1.00
C1105  C     0.25316   0.49582   0.89494   0.00000  Uiso   1.00
C1106  C     0.25908   0.49486   0.84647   0.00000  Uiso   1.00
C1107  C     0.08018   0.49581   0.60506   0.00000  Uiso   1.00
C1108  C     0.07425   0.49486   0.65353   0.00000  Uiso   1.00
C1109  C     0.08289   0.55001   0.87309   0.00000  Uiso   1.00
C1110  C     0.03584   0.54961   0.86636   0.00000  Uiso   1.00
C1111  C     0.01867   0.59853   0.85643   0.00000  Uiso   1.00
C1112  C     0.25044   0.55002   0.62692   0.00000  Uiso   1.00
C1113  C     0.29749   0.54963   0.63364   0.00000  Uiso   1.00
C1114  C     0.24261   0.49677   0.98686   0.00000  Uiso   1.00
C1115  C     0.31466   0.59855   0.64358   0.00000  Uiso   1.00
C1116  C     0.02133   0.45741   0.75109   0.00000  Uiso   1.00
C1117  C     0.31201   0.54267   0.74948   0.00000  Uiso   1.00
C1118  C     0.31200   0.45741   0.74890   0.00000  Uiso   1.00
C1119  C     0.02132   0.54267   0.75052   0.00000  Uiso   1.00
C1120  C     0.29051   0.50003   0.74817   0.00000  Uiso   1.00
Cu1121 Cu    0.16667   0.54689   0.75000   0.00000  Uiso   1.00
Cu1122 Cu    0.16667   0.45311   0.75000   0.00000  Uiso   1.00
H1123  H     0.06482   0.49551   0.94788   0.00000  Uiso   1.00
H1124  H     0.21549   0.62305   0.79910   0.00000  Uiso   1.00
H1125  H     0.21548   0.37693   0.79911   0.00000  Uiso   1.00
H1126  H     0.11784   0.62305   0.70090   0.00000  Uiso   1.00
H1127  H     0.24454   0.46296   0.83181   0.00000  Uiso   1.00
H1128  H     0.24733   0.52799   0.83149   0.00000  Uiso   1.00
H1129  H     0.29257   0.49268   0.84129   0.00000  Uiso   1.00
H1130  H     0.27064   0.52690   0.90794   0.00000  Uiso   1.00
H1131  H     0.26840   0.46353   0.90845   0.00000  Uiso   1.00
H1132  H     0.08879   0.46297   0.66820   0.00000  Uiso   1.00
H1133  H     0.08600   0.52799   0.66850   0.00000  Uiso   1.00
H1134  H     0.26852   0.49552   0.55212   0.00000  Uiso   1.00
H1135  H     0.04077   0.49269   0.65871   0.00000  Uiso   1.00
H1136  H     0.06269   0.52689   0.59205   0.00000  Uiso   1.00
H1137  H     0.06494   0.46352   0.59156   0.00000  Uiso   1.00
H1138  H     0.09618   0.56654   0.84406   0.00000  Uiso   1.00
H1139  H     0.09128   0.57202   0.90261   0.00000  Uiso   1.00
H1140  H     0.02664   0.52574   0.83884   0.00000  Uiso   1.00
H1141  H     0.02202   0.53603   0.89634   0.00000  Uiso   1.00
H1142  H     0.02612   0.62238   0.88460   0.00000  Uiso   1.00
H1143  H     0.31792   0.59655   0.85077   0.00000  Uiso   1.00
H1144  H     0.03187   0.61308   0.82648   0.00000  Uiso   1.00
H1145  H     0.05982   0.49554   0.52440   0.00000  Uiso   1.00
H1146  H     0.23714   0.56655   0.65595   0.00000  Uiso   1.00
H1147  H     0.24204   0.57203   0.59740   0.00000  Uiso   1.00
H1148  H     0.30669   0.52576   0.66115   0.00000  Uiso   1.00
H1149  H     0.31131   0.53605   0.60366   0.00000  Uiso   1.00
H1150  H     0.30720   0.62241   0.61541   0.00000  Uiso   1.00
H1151  H     0.01540   0.59657   0.64923   0.00000  Uiso   1.00
H1152  H     0.30145   0.61309   0.67353   0.00000  Uiso   1.00
H1153  H     0.27352   0.49555   0.97560   0.00000  Uiso   1.00
H1154  H     0.03740   0.42409   0.75178   0.00000  Uiso   1.00
H1155  H     0.29595   0.57597   0.74933   0.00000  Uiso   1.00
H1156  H     0.29594   0.42409   0.74821   0.00000  Uiso   1.00
H1157  H     0.03738   0.57597   0.75067   0.00000  Uiso   1.00
H1158  H     0.11785   0.37693   0.70089   0.00000  Uiso   1.00
N1159  N     0.16667   0.61736   0.75000   0.00000  Uiso   1.00
N1160  N     0.16667   0.38264   0.75000   0.00000  Uiso   1.00
O1161  O     0.10655   0.53958   0.75000   0.00000  Uiso   1.00
O1162  O     0.23611   0.50315   0.62309   0.00000  Uiso   1.00
O1163  O     0.22679   0.46042   0.75001   0.00000  Uiso   1.00
O1164  O     0.22679   0.53958   0.75001   0.00000  Uiso   1.00
O1165  O     0.10655   0.46042   0.75000   0.00000  Uiso   1.00
O1166  O     0.16666   0.53960   0.68513   0.00000  Uiso   1.00
O1167  O     0.16668   0.46040   0.81487   0.00000  Uiso   1.00
O1168  O     0.16668   0.53960   0.81487   0.00000  Uiso   1.00
O1169  O     0.16666   0.46040   0.68513   0.00000  Uiso   1.00
O1170  O     0.09723   0.50314   0.87691   0.00000  Uiso   1.00
C1171  C     0.42084   0.50001   0.75228   0.00000  Uiso   1.00
C1172  C     0.37616   0.50003   0.75183   0.00000  Uiso   1.00
C1173  C     0.47288   0.35816   0.72272   0.00000  Uiso   1.00
C1174  C     0.52712   0.64183   0.77728   0.00000  Uiso   1.00
C1175  C     0.52712   0.35816   0.77728   0.00000  Uiso   1.00
C1176  C     0.47288   0.64183   0.72273   0.00000  Uiso   1.00
C1177  C     0.49679   0.50000   0.66432   0.00000  Uiso   1.00
C1178  C     0.50321   0.50000   0.83568   0.00000  Uiso   1.00
C1179  C     0.54273   0.49799   0.91143   0.00000  Uiso   1.00
C1180  C     0.45727   0.49799   0.58857   0.00000  Uiso   1.00
C1181  C     0.50508   0.50000   0.88417   0.00000  Uiso   1.00
C1182  C     0.57916   0.50001   0.74772   0.00000  Uiso   1.00
C1183  C     0.49493   0.50000   0.61583   0.00000  Uiso   1.00
C1184  C     0.46678   0.50183   0.90346   0.00000  Uiso   1.00
C1185  C     0.53322   0.50184   0.59654   0.00000  Uiso   1.00
C1186  C     0.46486   0.49924   0.94928   0.00000  Uiso   1.00
C1187  C     0.53514   0.49924   0.55072   0.00000  Uiso   1.00
C1188  C     0.50127   0.49876   0.97674   0.00000  Uiso   1.00
C1189  C     0.49873   0.49876   0.52326   0.00000  Uiso   1.00
C1190  C     0.54016   0.49808   0.95803   0.00000  Uiso   1.00
C1191  C     0.45984   0.49807   0.54197   0.00000  Uiso   1.00
C1192  C     0.42665   0.49710   0.96802   0.00000  Uiso   1.00
C1193  C     0.42406   0.49676   0.51314   0.00000  Uiso   1.00
C1194  C     0.57335   0.49711   0.53198   0.00000  Uiso   1.00
C1195  C     0.58649   0.49582   0.89494   0.00000  Uiso   1.00
C1196  C     0.59242   0.49486   0.84647   0.00000  Uiso   1.00
C1197  C     0.41351   0.49581   0.60506   0.00000  Uiso   1.00
C1198  C     0.40758   0.49486   0.65353   0.00000  Uiso   1.00
C1199  C     0.41622   0.55001   0.87309   0.00000  Uiso   1.00
C1200  C     0.36917   0.54961   0.86636   0.00000  Uiso   1.00
C1201  C     0.35200   0.59853   0.85643   0.00000  Uiso   1.00
C1202  C     0.58377   0.55002   0.62692   0.00000  Uiso   1.00
C1203  C     0.63082   0.54963   0.63364   0.00000  Uiso   1.00
C1204  C     0.57594   0.49677   0.98686   0.00000  Uiso   1.00
C1205  C     0.64799   0.59855   0.64358   0.00000  Uiso   1.00
C1206  C     0.35467   0.45741   0.75109   0.00000  Uiso   1.00
C1207  C     0.64534   0.54267   0.74948   0.00000  Uiso   1.00
C1208  C     0.64533   0.45741   0.74890   0.00000  Uiso   1.00
C1209  C     0.35466   0.54267   0.75052   0.00000  Uiso   1.00
C1210  C     0.62384   0.50003   0.74817   0.00000  Uiso   1.00
Cu1211 Cu    0.50000   0.54689   0.75000   0.00000  Uiso   1.00
Cu1212 Cu    0.50000   0.45311   0.75000   0.00000  Uiso   1.00
H1213  H     0.39815   0.49551   0.94788   0.00000  Uiso   1.00
H1214  H     0.54882   0.62305   0.79910   0.00000  Uiso   1.00
H1215  H     0.54881   0.37693   0.79911   0.00000  Uiso   1.00
H1216  H     0.45118   0.62305   0.70090   0.00000  Uiso   1.00
H1217  H     0.57788   0.46296   0.83181   0.00000  Uiso   1.00
H1218  H     0.58066   0.52799   0.83149   0.00000  Uiso   1.00
H1219  H     0.62590   0.49268   0.84129   0.00000  Uiso   1.00
H1220  H     0.60397   0.52690   0.90794   0.00000  Uiso   1.00
H1221  H     0.60173   0.46353   0.90845   0.00000  Uiso   1.00
H1222  H     0.42212   0.46297   0.66820   0.00000  Uiso   1.00
H1223  H     0.41934   0.52799   0.66850   0.00000  Uiso   1.00
H1224  H     0.60185   0.49552   0.55212   0.00000  Uiso   1.00
H1225  H     0.37410   0.49269   0.65871   0.00000  Uiso   1.00
H1226  H     0.39603   0.52689   0.59205   0.00000  Uiso   1.00
H1227  H     0.39827   0.46352   0.59156   0.00000  Uiso   1.00
H1228  H     0.42952   0.56654   0.84406   0.00000  Uiso   1.00
H1229  H     0.42461   0.57202   0.90261   0.00000  Uiso   1.00
H1230  H     0.35998   0.52574   0.83884   0.00000  Uiso   1.00
H1231  H     0.35535   0.53603   0.89634   0.00000  Uiso   1.00
H1232  H     0.35945   0.62238   0.88460   0.00000  Uiso   1.00
H1233  H     0.65125   0.59655   0.85077   0.00000  Uiso   1.00
H1234  H     0.36521   0.61308   0.82648   0.00000  Uiso   1.00
H1235  H     0.39315   0.49554   0.52440   0.00000  Uiso   1.00
H1236  H     0.57048   0.56655   0.65595   0.00000  Uiso   1.00
H1237  H     0.57538   0.57203   0.59740   0.00000  Uiso   1.00
H1238  H     0.64002   0.52576   0.66115   0.00000  Uiso   1.00
H1239  H     0.64465   0.53605   0.60366   0.00000  Uiso   1.00
H1240  H     0.64053   0.62241   0.61541   0.00000  Uiso   1.00
H1241  H     0.34874   0.59657   0.64923   0.00000  Uiso   1.00
H1242  H     0.63479   0.61309   0.67353   0.00000  Uiso   1.00
H1243  H     0.60685   0.49555   0.97560   0.00000  Uiso   1.00
H1244  H     0.37073   0.42409   0.75178   0.00000  Uiso   1.00
H1245  H     0.62929   0.57597   0.74933   0.00000  Uiso   1.00
H1246  H     0.62927   0.42409   0.74821   0.00000  Uiso   1.00
H1247  H     0.37071   0.57597   0.75067   0.00000  Uiso   1.00
H1248  H     0.45119   0.37693   0.70089   0.00000  Uiso   1.00
N1249  N     0.50000   0.61736   0.75000   0.00000  Uiso   1.00
N1250  N     0.50000   0.38264   0.75000   0.00000  Uiso   1.00
O1251  O     0.43988   0.53958   0.75000   0.00000  Uiso   1.00
O1252  O     0.56944   0.50315   0.62309   0.00000  Uiso   1.00
O1253  O     0.56012   0.46042   0.75001   0.00000  Uiso   1.00
O1254  O     0.56012   0.53958   0.75001   0.00000  Uiso   1.00
O1255  O     0.43988   0.46042   0.75000   0.00000  Uiso   1.00
O1256  O     0.49999   0.53960   0.68513   0.00000  Uiso   1.00
O1257  O     0.50001   0.46040   0.81487   0.00000  Uiso   1.00
O1258  O     0.50001   0.53960   0.81487   0.00000  Uiso   1.00
O1259  O     0.49999   0.46040   0.68513   0.00000  Uiso   1.00
O1260  O     0.43056   0.50314   0.87691   0.00000  Uiso   1.00
C1261  C     0.75417   0.50001   0.75228   0.00000  Uiso   1.00
C1262  C     0.70949   0.50003   0.75183   0.00000  Uiso   1.00
C1263  C     0.80622   0.35816   0.72272   0.00000  Uiso   1.00
C1264  C     0.86045   0.64183   0.77728   0.00000  Uiso   1.00
C1265  C     0.86045   0.35816   0.77728   0.00000  Uiso   1.00
C1266  C     0.80621   0.64183   0.72273   0.00000  Uiso   1.00
C1267  C     0.83012   0.50000   0.66432   0.00000  Uiso   1.00
C1268  C     0.83654   0.50000   0.83568   0.00000  Uiso   1.00
C1269  C     0.87607   0.49799   0.91143   0.00000  Uiso   1.00
C1270  C     0.79060   0.49799   0.58857   0.00000  Uiso   1.00
C1271  C     0.83841   0.50000   0.88417   0.00000  Uiso   1.00
C1272  C     0.91249   0.50001   0.74772   0.00000  Uiso   1.00
C1273  C     0.82826   0.50000   0.61583   0.00000  Uiso   1.00
C1274  C     0.80011   0.50183   0.90346   0.00000  Uiso   1.00
C1275  C     0.86656   0.50184   0.59654   0.00000  Uiso   1.00
C1276  C     0.79820   0.49924   0.94928   0.00000  Uiso   1.00
C1277  C     0.86847   0.49924   0.55072   0.00000  Uiso   1.00
C1278  C     0.83461   0.49876   0.97674   0.00000  Uiso   1.00
C1279  C     0.83206   0.49876   0.52326   0.00000  Uiso   1.00
C1280  C     0.87350   0.49808   0.95803   0.00000  Uiso   1.00
C1281  C     0.79317   0.49807   0.54197   0.00000  Uiso   1.00
C1282  C     0.75998   0.49710   0.96802   0.00000  Uiso   1.00
C1283  C     0.75740   0.49676   0.51314   0.00000  Uiso   1.00
C1284  C     0.90669   0.49711   0.53198   0.00000  Uiso   1.00
C1285  C     0.91982   0.49582   0.89494   0.00000  Uiso   1.00
C1286  C     0.92575   0.49486   0.84647   0.00000  Uiso   1.00
C1287  C     0.74684   0.49581   0.60506   0.00000  Uiso   1.00
C1288  C     0.74092   0.49486   0.65353   0.00000  Uiso   1.00
C1289  C     0.74956   0.55001   0.87309   0.00000  Uiso   1.00
C1290  C     0.70251   0.54961   0.86636   0.00000  Uiso   1.00
C1291  C     0.68533   0.59853   0.85643   0.00000  Uiso   1.00
C1292  C     0.91710   0.55002   0.62692   0.00000  Uiso   1.00
C1293  C     0.96416   0.54963   0.63364   0.00000  Uiso   1.00
C1294  C     0.90927   0.49677   0.98686   0.00000  Uiso   1.00
C1295  C     0.98133   0.59855   0.64358   0.00000  Uiso   1.00
C1296  C     0.68800   0.45741   0.75109   0.00000  Uiso   1.00
C1297  C     0.97868   0.54267   0.74948   0.00000  Uiso   1.00
C1298  C     0.97867   0.45741   0.74890   0.00000  Uiso   1.00
C1299  C     0.68799   0.54267   0.75052   0.00000  Uiso   1.00
C1300  C     0.95718   0.50003   0.74817   0.00000  Uiso   1.00
Cu1301 Cu    0.83333   0.54689   0.75000   0.00000  Uiso   1.00
Cu1302 Cu    0.83333   0.45311   0.75000   0.00000  Uiso   1.00
H1303  H     0.73148   0.49551   0.94788   0.00000  Uiso   1.00
H1304  H     0.88216   0.62305   0.79910   0.00000  Uiso   1.00
H1305  H     0.88215   0.37693   0.79911   0.00000  Uiso   1.00
H1306  H     0.78451   0.62305   0.70090   0.00000  Uiso   1.00
H1307  H     0.91121   0.46296   0.83181   0.00000  Uiso   1.00
H1308  H     0.91400   0.52799   0.83149   0.00000  Uiso   1.00
H1309  H     0.95923   0.49268   0.84129   0.00000  Uiso   1.00
H1310  H     0.93731   0.52690   0.90794   0.00000  Uiso   1.00
H1311  H     0.93506   0.46353   0.90845   0.00000  Uiso   1.00
H1312  H     0.75545   0.46297   0.66820   0.00000  Uiso   1.00
H1313  H     0.75267   0.52799   0.66850   0.00000  Uiso   1.00
H1314  H     0.93518   0.49552   0.55212   0.00000  Uiso   1.00
H1315  H     0.70743   0.49269   0.65871   0.00000  Uiso   1.00
H1316  H     0.72936   0.52689   0.59205   0.00000  Uiso   1.00
H1317  H     0.73161   0.46352   0.59156   0.00000  Uiso   1.00
H1318  H     0.76285   0.56654   0.84406   0.00000  Uiso   1.00
H1319  H     0.75795   0.57202   0.90261   0.00000  Uiso   1.00
H1320  H     0.69331   0.52574   0.83884   0.00000  Uiso   1.00
H1321  H     0.68868   0.53603   0.89634   0.00000  Uiso   1.00
H1322  H     0.69279   0.62238   0.88460   0.00000  Uiso   1.00
H1323  H     0.98459   0.59655   0.85077   0.00000  Uiso   1.00
H1324  H     0.69854   0.61308   0.82648   0.00000  Uiso   1.00
H1325  H     0.72648   0.49554   0.52440   0.00000  Uiso   1.00
H1326  H     0.90381   0.56655   0.65595   0.00000  Uiso   1.00
H1327  H     0.90871   0.57203   0.59740   0.00000  Uiso   1.00
H1328  H     0.97336   0.52576   0.66115   0.00000  Uiso   1.00
H1329  H     0.97798   0.53605   0.60366   0.00000  Uiso   1.00
H1330  H     0.97386   0.62241   0.61541   0.00000  Uiso   1.00
H1331  H     0.68207   0.59657   0.64923   0.00000  Uiso   1.00
H1332  H     0.96812   0.61309   0.67353   0.00000  Uiso   1.00
H1333  H     0.94018   0.49555   0.97560   0.00000  Uiso   1.00
H1334  H     0.70407   0.42409   0.75178   0.00000  Uiso   1.00
H1335  H     0.96262   0.57597   0.74933   0.00000  Uiso   1.00
H1336  H     0.96260   0.42409   0.74821   0.00000  Uiso   1.00
H1337  H     0.70405   0.57597   0.75067   0.00000  Uiso   1.00
H1338  H     0.78452   0.37693   0.70089   0.00000  Uiso   1.00
N1339  N     0.83333   0.61736   0.75000   0.00000  Uiso   1.00
N1340  N     0.83333   0.38264   0.75000   0.00000  Uiso   1.00
O1341  O     0.77321   0.53958   0.75000   0.00000  Uiso   1.00
O1342  O     0.90277   0.50315   0.62309   0.00000  Uiso   1.00
O1343  O     0.89345   0.46042   0.75001   0.00000  Uiso   1.00
O1344  O     0.89345   0.53958   0.75001   0.00000  Uiso   1.00
O1345  O     0.77321   0.46042   0.75000   0.00000  Uiso   1.00
O1346  O     0.83332   0.53960   0.68513   0.00000  Uiso   1.00
O1347  O     0.83334   0.46040   0.81487   0.00000  Uiso   1.00
O1348  O     0.83334   0.53960   0.81487   0.00000  Uiso   1.00
O1349  O     0.83332   0.46040   0.68513   0.00000  Uiso   1.00
O1350  O     0.76389   0.50314   0.87691   0.00000  Uiso   1.00
C1351  C     0.08751   0.83334   0.75228   0.00000  Uiso   1.00
C1352  C     0.04282   0.83337   0.75183   0.00000  Uiso   1.00
C1353  C     0.13955   0.69149   0.72272   0.00000  Uiso   1.00
C1354  C     0.19379   0.97516   0.77728   0.00000  Uiso   1.00
C1355  C     0.19378   0.69149   0.77728   0.00000  Uiso   1.00
C1356  C     0.13955   0.97516   0.72273   0.00000  Uiso   1.00
C1357  C     0.16346   0.83333   0.66432   0.00000  Uiso   1.00
C1358  C     0.16988   0.83333   0.83568   0.00000  Uiso   1.00
C1359  C     0.20940   0.83132   0.91143   0.00000  Uiso   1.00
C1360  C     0.12393   0.83132   0.58857   0.00000  Uiso   1.00
C1361  C     0.17174   0.83334   0.88417   0.00000  Uiso   1.00
C1362  C     0.24583   0.83334   0.74772   0.00000  Uiso   1.00
C1363  C     0.16159   0.83334   0.61583   0.00000  Uiso   1.00
C1364  C     0.13344   0.83517   0.90346   0.00000  Uiso   1.00
C1365  C     0.19989   0.83517   0.59654   0.00000  Uiso   1.00
C1366  C     0.13153   0.83257   0.94928   0.00000  Uiso   1.00
C1367  C     0.20180   0.83258   0.55072   0.00000  Uiso   1.00
C1368  C     0.16794   0.83210   0.97674   0.00000  Uiso   1.00
C1369  C     0.16540   0.83210   0.52326   0.00000  Uiso   1.00
C1370  C     0.20683   0.83141   0.95803   0.00000  Uiso   1.00
C1371  C     0.12650   0.83141   0.54197   0.00000  Uiso   1.00
C1372  C     0.09332   0.83044   0.96802   0.00000  Uiso   1.00
C1373  C     0.09073   0.83009   0.51314   0.00000  Uiso   1.00
C1374  C     0.24002   0.83045   0.53198   0.00000  Uiso   1.00
C1375  C     0.25316   0.82915   0.89494   0.00000  Uiso   1.00
C1376  C     0.25908   0.82819   0.84647   0.00000  Uiso   1.00
C1377  C     0.08018   0.82915   0.60506   0.00000  Uiso   1.00
C1378  C     0.07425   0.82819   0.65353   0.00000  Uiso   1.00
C1379  C     0.08289   0.88334   0.87309   0.00000  Uiso   1.00
C1380  C     0.03584   0.88294   0.86636   0.00000  Uiso   1.00
C1381  C     0.01867   0.93186   0.85643   0.00000  Uiso   1.00
C1382  C     0.25044   0.88335   0.62692   0.00000  Uiso   1.00
C1383  C     0.29749   0.88296   0.63364   0.00000  Uiso   1.00
C1384  C     0.24261   0.83010   0.98686   0.00000  Uiso   1.00
C1385  C     0.31466   0.93188   0.64358   0.00000  Uiso   1.00
C1386  C     0.02133   0.79074   0.75109   0.00000  Uiso   1.00
C1387  C     0.31201   0.87600   0.74948   0.00000  Uiso   1.00
C1388  C     0.31200   0.79074   0.74890   0.00000  Uiso   1.00
C1389  C     0.02132   0.87600   0.75052   0.00000  Uiso   1.00
C1390  C     0.29051   0.83337   0.74817   0.00000  Uiso   1.00
Cu1391 Cu    0.16667   0.88022   0.75000   0.00000  Uiso   1.00
Cu1392 Cu    0.16667   0.78645   0.75000   0.00000  Uiso   1.00
H1393  H     0.06482   0.82884   0.94788   0.00000  Uiso   1.00
H1394  H     0.21549   0.95638   0.79910   0.00000  Uiso   1.00
H1395  H     0.21548   0.71026   0.79911   0.00000  Uiso   1.00
H1396  H     0.11784   0.95638   0.70090   0.00000  Uiso   1.00
H1397  H     0.24454   0.79630   0.83181   0.00000  Uiso   1.00
H1398  H     0.24733   0.86132   0.83149   0.00000  Uiso   1.00
H1399  H     0.29257   0.82601   0.84129   0.00000  Uiso   1.00
H1400  H     0.27064   0.86023   0.90794   0.00000  Uiso   1.00
H1401  H     0.26840   0.79686   0.90845   0.00000  Uiso   1.00
H1402  H     0.08879   0.79630   0.66820   0.00000  Uiso   1.00
H1403  H     0.08600   0.86133   0.66850   0.00000  Uiso   1.00
H1404  H     0.26852   0.82885   0.55212   0.00000  Uiso   1.00
H1405  H     0.04077   0.82602   0.65871   0.00000  Uiso   1.00
H1406  H     0.06269   0.86022   0.59205   0.00000  Uiso   1.00
H1407  H     0.06494   0.79686   0.59156   0.00000  Uiso   1.00
H1408  H     0.09618   0.89987   0.84406   0.00000  Uiso   1.00
H1409  H     0.09128   0.90536   0.90261   0.00000  Uiso   1.00
H1410  H     0.02664   0.85907   0.83884   0.00000  Uiso   1.00
H1411  H     0.02202   0.86936   0.89634   0.00000  Uiso   1.00
H1412  H     0.02612   0.95572   0.88460   0.00000  Uiso   1.00
H1413  H     0.31792   0.92988   0.85077   0.00000  Uiso   1.00
H1414  H     0.03187   0.94641   0.82648   0.00000  Uiso   1.00
H1415  H     0.05982   0.82887   0.52440   0.00000  Uiso   1.00
H1416  H     0.23714   0.89988   0.65595   0.00000  Uiso   1.00
H1417  H     0.24204   0.90537   0.59740   0.00000  Uiso   1.00
H1418  H     0.30669   0.85909   0.66115   0.00000  Uiso   1.00
H1419  H     0.31131   0.86939   0.60366   0.00000  Uiso   1.00
H1420  H     0.30720   0.95574   0.61541   0.00000  Uiso   1.00
H1421  H     0.01540   0.92990   0.64923   0.00000  Uiso   1.00
H1422  H     0.30145   0.94642   0.67353   0.00000  Uiso   1.00
H1423  H     0.27352   0.82889   0.97560   0.00000  Uiso   1.00
H1424  H     0.03740   0.75742   0.75178   0.00000  Uiso   1.00
H1425  H     0.29595   0.90931   0.74933   0.00000  Uiso   1.00
H1426  H     0.29594   0.75742   0.74821   0.00000  Uiso   1.00
H1427  H     0.03738   0.90931   0.75067   0.00000  Uiso   1.00
H1428  H     0.11785   0.71026   0.70089   0.00000  Uiso   1.00
N1429  N     0.16667   0.95069   0.75000   0.00000  Uiso   1.00
N1430  N     0.16667   0.71598   0.75000   0.00000  Uiso   1.00
O1431  O     0.10655   0.87291   0.75000   0.00000  Uiso   1.00
O1432  O     0.23611   0.83649   0.62309   0.00000  Uiso   1.00
O1433  O     0.22679   0.79375   0.75001   0.00000  Uiso   1.00
O1434  O     0.22679   0.87291   0.75001   0.00000  Uiso   1.00
O1435  O     0.10655   0.79375   0.75000   0.00000  Uiso   1.00
O1436  O     0.16666   0.87293   0.68513   0.00000  Uiso   1.00
O1437  O     0.16668   0.79373   0.81487   0.00000  Uiso   1.00
O1438  O     0.16668   0.87293   0.81487   0.00000  Uiso   1.00
O1439  O     0.16666   0.79373   0.68513   0.00000  Uiso   1.00
O1440  O     0.09723   0.83648   0.87691   0.00000  Uiso   1.00
C1441  C     0.42084   0.83334   0.75228   0.00000  Uiso   1.00
C1442  C     0.37616   0.83337   0.75183   0.00000  Uiso   1.00
C1443  C     0.47288   0.69149   0.72272   0.00000  Uiso   1.00
C1444  C     0.52712   0.97516   0.77728   0.00000  Uiso   1.00
C1445  C     0.52712   0.69149   0.77728   0.00000  Uiso   1.00
C1446  C     0.47288   0.97516   0.72273   0.00000  Uiso   1.00
C1447  C     0.49679   0.83333   0.66432   0.00000  Uiso   1.00
C1448  C     0.50321   0.83333   0.83568   0.00000  Uiso   1.00
C1449  C     0.54273   0.83132   0.91143   0.00000  Uiso   1.00
C1450  C     0.45727   0.83132   0.58857   0.00000  Uiso   1.00
C1451  C     0.50508   0.83334   0.88417   0.00000  Uiso   1.00
C1452  C     0.57916   0.83334   0.74772   0.00000  Uiso   1.00
C1453  C     0.49493   0.83334   0.61583   0.00000  Uiso   1.00
C1454  C     0.46678   0.83517   0.90346   0.00000  Uiso   1.00
C1455  C     0.53322   0.83517   0.59654   0.00000  Uiso   1.00
C1456  C     0.46486   0.83257   0.94928   0.00000  Uiso   1.00
C1457  C     0.53514   0.83258   0.55072   0.00000  Uiso   1.00
C1458  C     0.50127   0.83210   0.97674   0.00000  Uiso   1.00
C1459  C     0.49873   0.83210   0.52326   0.00000  Uiso   1.00
C1460  C     0.54016   0.83141   0.95803   0.00000  Uiso   1.00
C1461  C     0.45984   0.83141   0.54197   0.00000  Uiso   1.00
C1462  C     0.42665   0.83044   0.96802   0.00000  Uiso   1.00
C1463  C     0.42406   0.83009   0.51314   0.00000  Uiso   1.00
C1464  C     0.57335   0.83045   0.53198   0.00000  Uiso   1.00
C1465  C     0.58649   0.82915   0.89494   0.00000  Uiso   1.00
C1466  C     0.59242   0.82819   0.84647   0.00000  Uiso   1.00
C1467  C     0.41351   0.82915   0.60506   0.00000  Uiso   1.00
C1468  C     0.40758   0.82819   0.65353   0.00000  Uiso   1.00
C1469  C     0.41622   0.88334   0.87309   0.00000  Uiso   1.00
C1470  C     0.36917   0.88294   0.86636   0.00000  Uiso   1.00
C1471  C     0.35200   0.93186   0.85643   0.00000  Uiso   1.00
C1472  C     0.58377   0.88335   0.62692   0.00000  Uiso   1.00
C1473  C     0.63082   0.88296   0.63364   0.00000  Uiso   1.00
C1474  C     0.57594   0.83010   0.98686   0.00000  Uiso   1.00
C1475  C     0.64799   0.93188   0.64358   0.00000  Uiso   1.00
C1476  C     0.35467   0.79074   0.75109   0.00000  Uiso   1.00
C1477  C     0.64534   0.87600   0.74948   0.00000  Uiso   1.00
C1478  C     0.64533   0.79074   0.74890   0.00000  Uiso   1.00
C1479  C     0.35466   0.87600   0.75052   0.00000  Uiso   1.00
C1480  C     0.62384   0.83337   0.74817   0.00000  Uiso   1.00
Cu1481 Cu    0.50000   0.88022   0.75000   0.00000  Uiso   1.00
Cu1482 Cu    0.50000   0.78645   0.75000   0.00000  Uiso   1.00
H1483  H     0.39815   0.82884   0.94788   0.00000  Uiso   1.00
H1484  H     0.54882   0.95638   0.79910   0.00000  Uiso   1.00
H1485  H     0.54881   0.71026   0.79911   0.00000  Uiso   1.00
H1486  H     0.45118   0.95638   0.70090   0.00000  Uiso   1.00
H1487  H     0.57788   0.79630   0.83181   0.00000  Uiso   1.00
H1488  H     0.58066   0.86132   0.83149   0.00000  Uiso   1.00
H1489  H     0.62590   0.82601   0.84129   0.00000  Uiso   1.00
H1490  H     0.60397   0.86023   0.90794   0.00000  Uiso   1.00
H1491  H     0.60173   0.79686   0.90845   0.00000  Uiso   1.00
H1492  H     0.42212   0.79630   0.66820   0.00000  Uiso   1.00
H1493  H     0.41934   0.86133   0.66850   0.00000  Uiso   1.00
H1494  H     0.60185   0.82885   0.55212   0.00000  Uiso   1.00
H1495  H     0.37410   0.82602   0.65871   0.00000  Uiso   1.00
H1496  H     0.39603   0.86022   0.59205   0.00000  Uiso   1.00
H1497  H     0.39827   0.79686   0.59156   0.00000  Uiso   1.00
H1498  H     0.42952   0.89987   0.84406   0.00000  Uiso   1.00
H1499  H     0.42461   0.90536   0.90261   0.00000  Uiso   1.00
H1500  H     0.35998   0.85907   0.83884   0.00000  Uiso   1.00
H1501  H     0.35535   0.86936   0.89634   0.00000  Uiso   1.00
H1502  H     0.35945   0.95572   0.88460   0.00000  Uiso   1.00
H1503  H     0.65125   0.92988   0.85077   0.00000  Uiso   1.00
H1504  H     0.36521   0.94641   0.82648   0.00000  Uiso   1.00
H1505  H     0.39315   0.82887   0.52440   0.00000  Uiso   1.00
H1506  H     0.57048   0.89988   0.65595   0.00000  Uiso   1.00
H1507  H     0.57538   0.90537   0.59740   0.00000  Uiso   1.00
H1508  H     0.64002   0.85909   0.66115   0.00000  Uiso   1.00
H1509  H     0.64465   0.86939   0.60366   0.00000  Uiso   1.00
H1510  H     0.64053   0.95574   0.61541   0.00000  Uiso   1.00
H1511  H     0.34874   0.92990   0.64923   0.00000  Uiso   1.00
H1512  H     0.63479   0.94642   0.67353   0.00000  Uiso   1.00
H1513  H     0.60685   0.82889   0.97560   0.00000  Uiso   1.00
H1514  H     0.37073   0.75742   0.75178   0.00000  Uiso   1.00
H1515  H     0.62929   0.90931   0.74933   0.00000  Uiso   1.00
H1516  H     0.62927   0.75742   0.74821   0.00000  Uiso   1.00
H1517  H     0.37071   0.90931   0.75067   0.00000  Uiso   1.00
H1518  H     0.45119   0.71026   0.70089   0.00000  Uiso   1.00
N1519  N     0.50000   0.95069   0.75000   0.00000  Uiso   1.00
N1520  N     0.50000   0.71598   0.75000   0.00000  Uiso   1.00
O1521  O     0.43988   0.87291   0.75000   0.00000  Uiso   1.00
O1522  O     0.56944   0.83649   0.62309   0.00000  Uiso   1.00
O1523  O     0.56012   0.79375   0.75001   0.00000  Uiso   1.00
O1524  O     0.56012   0.87291   0.75001   0.00000  Uiso   1.00
O1525  O     0.43988   0.79375   0.75000   0.00000  Uiso   1.00
O1526  O     0.49999   0.87293   0.68513   0.00000  Uiso   1.00
O1527  O     0.50001   0.79373   0.81487   0.00000  Uiso   1.00
O1528  O     0.50001   0.87293   0.81487   0.00000  Uiso   1.00
O1529  O     0.49999   0.79373   0.68513   0.00000  Uiso   1.00
O1530  O     0.43056   0.83648   0.87691   0.00000  Uiso   1.00
C1531  C     0.75417   0.83334   0.75228   0.00000  Uiso   1.00
C1532  C     0.70949   0.83337   0.75183   0.00000  Uiso   1.00
C1533  C     0.80622   0.69149   0.72272   0.00000  Uiso   1.00
C1534  C     0.86045   0.97516   0.77728   0.00000  Uiso   1.00
C1535  C     0.86045   0.69149   0.77728   0.00000  Uiso   1.00
C1536  C     0.80621   0.97516   0.72273   0.00000  Uiso   1.00
C1537  C     0.83012   0.83333   0.66432   0.00000  Uiso   1.00
C1538  C     0.83654   0.83333   0.83568   0.00000  Uiso   1.00
C1539  C     0.87607   0.83132   0.91143   0.00000  Uiso   1.00
C1540  C     0.79060   0.83132   0.58857   0.00000  Uiso   1.00
C1541  C     0.83841   0.83334   0.88417   0.00000  Uiso   1.00
C1542  C     0.91249   0.83334   0.74772   0.00000  Uiso   1.00
C1543  C     0.82826   0.83334   0.61583   0.00000  Uiso   1.00
C1544  C     0.80011   0.83517   0.90346   0.00000  Uiso   1.00
C1545  C     0.86656   0.83517   0.59654   0.00000  Uiso   1.00
C1546  C     0.79820   0.83257   0.94928   0.00000  Uiso   1.00
C1547  C     0.86847   0.83258   0.55072   0.00000  Uiso   1.00
C1548  C     0.83461   0.83210   0.97674   0.00000  Uiso   1.00
C1549  C     0.83206   0.83210   0.52326   0.00000  Uiso   1.00
C1550  C     0.87350   0.83141   0.95803   0.00000  Uiso   1.00
C1551  C     0.79317   0.83141   0.54197   0.00000  Uiso   1.00
C1552  C     0.75998   0.83044   0.96802   0.00000  Uiso   1.00
C1553  C     0.75740   0.83009   0.51314   0.00000  Uiso   1.00
C1554  C     0.90669   0.83045   0.53198   0.00000  Uiso   1.00
C1555  C     0.91982   0.82915   0.89494   0.00000  Uiso   1.00
C1556  C     0.92575   0.82819   0.84647   0.00000  Uiso   1.00
C1557  C     0.74684   0.82915   0.60506   0.00000  Uiso   1.00
C1558  C     0.74092   0.82819   0.65353   0.00000  Uiso   1.00
C1559  C     0.74956   0.88334   0.87309   0.00000  Uiso   1.00
C1560  C     0.70251   0.88294   0.86636   0.00000  Uiso   1.00
C1561  C     0.68533   0.93186   0.85643   0.00000  Uiso   1.00
C1562  C     0.91710   0.88335   0.62692   0.00000  Uiso   1.00
C1563  C     0.96416   0.88296   0.63364   0.00000  Uiso   1.00
C1564  C     0.90927   0.83010   0.98686   0.00000  Uiso   1.00
C1565  C     0.98133   0.93188   0.64358   0.00000  Uiso   1.00
C1566  C     0.68800   0.79074   0.75109   0.00000  Uiso   1.00
C1567  C     0.97868   0.87600   0.74948   0.00000  Uiso   1.00
C1568  C     0.97867   0.79074   0.74890   0.00000  Uiso   1.00
C1569  C     0.68799   0.87600   0.75052   0.00000  Uiso   1.00
C1570  C     0.95718   0.83337   0.74817   0.00000  Uiso   1.00
Cu1571 Cu    0.83333   0.88022   0.75000   0.00000  Uiso   1.00
Cu1572 Cu    0.83333   0.78645   0.75000   0.00000  Uiso   1.00
H1573  H     0.73148   0.82884   0.94788   0.00000  Uiso   1.00
H1574  H     0.88216   0.95638   0.79910   0.00000  Uiso   1.00
H1575  H     0.88215   0.71026   0.79911   0.00000  Uiso   1.00
H1576  H     0.78451   0.95638   0.70090   0.00000  Uiso   1.00
H1577  H     0.91121   0.79630   0.83181   0.00000  Uiso   1.00
H1578  H     0.91400   0.86132   0.83149   0.00000  Uiso   1.00
H1579  H     0.95923   0.82601   0.84129   0.00000  Uiso   1.00
H1580  H     0.93731   0.86023   0.90794   0.00000  Uiso   1.00
H1581  H     0.93506   0.79686   0.90845   0.00000  Uiso   1.00
H1582  H     0.75545   0.79630   0.66820   0.00000  Uiso   1.00
H1583  H     0.75267   0.86133   0.66850   0.00000  Uiso   1.00
H1584  H     0.93518   0.82885   0.55212   0.00000  Uiso   1.00
H1585  H     0.70743   0.82602   0.65871   0.00000  Uiso   1.00
H1586  H     0.72936   0.86022   0.59205   0.00000  Uiso   1.00
H1587  H     0.73161   0.79686   0.59156   0.00000  Uiso   1.00
H1588  H     0.76285   0.89987   0.84406   0.00000  Uiso   1.00
H1589  H     0.75795   0.90536   0.90261   0.00000  Uiso   1.00
H1590  H     0.69331   0.85907   0.83884   0.00000  Uiso   1.00
H1591  H     0.68868   0.86936   0.89634   0.00000  Uiso   1.00
H1592  H     0.69279   0.95572   0.88460   0.00000  Uiso   1.00
H1593  H     0.98459   0.92988   0.85077   0.00000  Uiso   1.00
H1594  H     0.69854   0.94641   0.82648   0.00000  Uiso   1.00
H1595  H     0.72648   0.82887   0.52440   0.00000  Uiso   1.00
H1596  H     0.90381   0.89988   0.65595   0.00000  Uiso   1.00
H1597  H     0.90871   0.90537   0.59740   0.00000  Uiso   1.00
H1598  H     0.97336   0.85909   0.66115   0.00000  Uiso   1.00
H1599  H     0.97798   0.86939   0.60366   0.00000  Uiso   1.00
H1600  H     0.97386   0.95574   0.61541   0.00000  Uiso   1.00
H1601  H     0.68207   0.92990   0.64923   0.00000  Uiso   1.00
H1602  H     0.96812   0.94642   0.67353   0.00000  Uiso   1.00
H1603  H     0.94018   0.82889   0.97560   0.00000  Uiso   1.00
H1604  H     0.70407   0.75742   0.75178   0.00000  Uiso   1.00
H1605  H     0.96262   0.90931   0.74933   0.00000  Uiso   1.00
H1606  H     0.96260   0.75742   0.74821   0.00000  Uiso   1.00
H1607  H     0.70405   0.90931   0.75067   0.00000  Uiso   1.00
H1608  H     0.78452   0.71026   0.70089   0.00000  Uiso   1.00
N1609  N     0.83333   0.95069   0.75000   0.00000  Uiso   1.00
N1610  N     0.83333   0.71598   0.75000   0.00000  Uiso   1.00
O1611  O     0.77321   0.87291   0.75000   0.00000  Uiso   1.00
O1612  O     0.90277   0.83649   0.62309   0.00000  Uiso   1.00
O1613  O     0.89345   0.79375   0.75001   0.00000  Uiso   1.00
O1614  O     0.89345   0.87291   0.75001   0.00000  Uiso   1.00
O1615  O     0.77321   0.79375   0.75000   0.00000  Uiso   1.00
O1616  O     0.83332   0.87293   0.68513   0.00000  Uiso   1.00
O1617  O     0.83334   0.79373   0.81487   0.00000  Uiso   1.00
O1618  O     0.83334   0.87293   0.81487   0.00000  Uiso   1.00
O1619  O     0.83332   0.79373   0.68513   0.00000  Uiso   1.00
O1620  O     0.76389   0.83648   0.87691   0.00000  Uiso   1.00
loop_
_geom_bond_atom_site_label_1
_geom_bond_atom_site_label_2
_geom_bond_distance
_geom_bond_site_symmetry_2
_ccdc_geom_bond_type
C1     C2      1.449   .     S
C1     O81     1.290   .     A
C1     O85     1.290   .     A
C2     C39     1.401   .     A
C2     C36     1.401   .     A
C3     N80     1.367   .     A
C3     H78     1.082   .     S
C3     C546    1.416   1_545 S
C4     N79     1.367   .     A
C4     H44     1.082   .     S
C4     C275    1.416   .     S
C5     H45     1.082   .     S
C5     N80     1.367   .     A
C5     C544    1.416   1_545 S
C6     H46     1.082   .     S
C6     N79     1.367   .     A
C6     C273    1.416   .     S
C7     O86     1.296   .     A
C7     O89     1.296   .     A
C7     C13     1.475   .     S
C8     O88     1.296   .     A
C8     O87     1.296   .     A
C8     C11     1.475   .     S
C9     C25     1.534   .     S
C9     C20     1.427   .     A
C9     C11     1.439   .     A
C10    C27     1.534   .     S
C10    C21     1.427   .     A
C10    C13     1.439   .     A
C11    C14     1.406   .     A
C12    O84     1.290   .     A
C12    O83     1.290   .     A
C12    C40     1.449   .     S
C13    C15     1.406   .     A
C14    O90     1.388   .     S
C14    C16     1.403   .     A
C15    O82     1.388   .     S
C15    C17     1.403   .     A
C16    C22     1.396   .     A
C16    C18     1.408   .     A
C17    C19     1.408   .     A
C17    C24     1.396   .     A
C18    C20     1.415   .     A
C18    C829    1.424   .     S
C19    C21     1.415   .     A
C19    C828    1.424   1_554 S
C20    C34     1.415   .     A
C21    C23     1.415   .     A
C22    H43     1.081   .     S
C22    C833    1.382   .     S
C23    H65     1.079   .     S
C23    C832    1.382   1_554 S
C24    H54     1.081   .     S
C24    C844    1.382   1_554 S
C25    H50     1.113   .     S
C25    C26     1.500   .     S
C25    H51     1.113   .     S
C26    H48     1.107   .     S
C26    H49     1.109   .     S
C26    H47     1.107   .     S
C27    H57     1.113   .     S
C27    H56     1.113   .     S
C27    C28     1.500   .     S
C28    H55     1.109   .     S
C28    H53     1.107   .     S
C28    H52     1.107   .     S
C29    H59     1.117   .     S
C29    O90     1.417   .     S
C29    C30     1.529   .     S
C29    H58     1.111   .     S
C30    C31     1.526   .     S
C30    H60     1.107   .     S
C30    H61     1.110   .     S
C31    H62     1.111   .     S
C31    H64     1.110   .     S
C31    H243    1.111   1_455 S
C32    H67     1.117   .     S
C32    H66     1.111   .     S
C32    O82     1.417   .     S
C32    C33     1.529   .     S
C33    H69     1.110   .     S
C33    C35     1.526   .     S
C33    H68     1.107   .     S
C34    H73     1.079   .     S
C34    C834    1.382   .     S
C35    H70     1.111   .     S
C35    H72     1.110   .     S
C35    H161    1.111   .     S
C36    H74     1.083   .     S
C36    C218    1.382   1_455 S
C37    C40     1.401   .     A
C37    H75     1.083   .     S
C37    C129    1.382   .     S
C38    H76     1.083   .     S
C38    C40     1.401   .     A
C38    C126    1.382   .     S
C39    H77     1.083   .     S
C39    C217    1.382   1_455 S
Cu41   Cu42    2.673   .     S
Cu41   O86     1.987   .     S
Cu41   O84     1.962   .     S
Cu41   O81     1.962   .     S
Cu41   O88     1.987   .     S
Cu41   N79     2.009   .     S
Cu42   N80     2.009   .     S
Cu42   O85     1.962   .     S
Cu42   O83     1.962   .     S
Cu42   O89     1.987   .     S
Cu42   O87     1.987   .     S
H63    C121    1.111   .     S
H71    C215    1.111   1_455 S
C91    C92     1.449   .     S
C91    O171    1.290   .     A
C91    O175    1.290   .     A
C92    C129    1.401   .     A
C92    C126    1.401   .     A
C93    N170    1.367   .     A
C93    H168    1.082   .     S
C93    C636    1.416   1_545 S
C94    N169    1.367   .     A
C94    H134    1.082   .     S
C94    C365    1.416   .     S
C95    H135    1.082   .     S
C95    N170    1.367   .     A
C95    C634    1.416   1_545 S
C96    H136    1.082   .     S
C96    N169    1.367   .     A
C96    C363    1.416   .     S
C97    O176    1.296   .     A
C97    O179    1.296   .     A
C97    C103    1.475   .     S
C98    O178    1.296   .     A
C98    O177    1.296   .     A
C98    C101    1.475   .     S
C99    C115    1.534   .     S
C99    C110    1.427   .     A
C99    C101    1.439   .     A
C100   C117    1.534   .     S
C100   C111    1.427   .     A
C100   C103    1.439   .     A
C101   C104    1.406   .     A
C102   O174    1.290   .     A
C102   O173    1.290   .     A
C102   C130    1.449   .     S
C103   C105    1.406   .     A
C104   O180    1.388   .     S
C104   C106    1.403   .     A
C105   O172    1.388   .     S
C105   C107    1.403   .     A
C106   C112    1.396   .     A
C106   C108    1.408   .     A
C107   C109    1.408   .     A
C107   C114    1.396   .     A
C108   C110    1.415   .     A
C108   C919    1.424   .     S
C109   C111    1.415   .     A
C109   C918    1.424   1_554 S
C110   C124    1.415   .     A
C111   C113    1.415   .     A
C112   H133    1.081   .     S
C112   C923    1.382   .     S
C113   H155    1.079   .     S
C113   C922    1.382   1_554 S
C114   H144    1.081   .     S
C114   C934    1.382   1_554 S
C115   H140    1.113   .     S
C115   C116    1.500   .     S
C115   H141    1.113   .     S
C116   H138    1.107   .     S
C116   H139    1.109   .     S
C116   H137    1.107   .     S
C117   H147    1.113   .     S
C117   H146    1.113   .     S
C117   C118    1.500   .     S
C118   H145    1.109   .     S
C118   H143    1.107   .     S
C118   H142    1.107   .     S
C119   H149    1.117   .     S
C119   O180    1.417   .     S
C119   C120    1.529   .     S
C119   H148    1.111   .     S
C120   C121    1.526   .     S
C120   H150    1.107   .     S
C120   H151    1.110   .     S
C121   H152    1.111   .     S
C121   H154    1.110   .     S
C122   H157    1.117   .     S
C122   H156    1.111   .     S
C122   O172    1.417   .     S
C122   C123    1.529   .     S
C123   H159    1.110   .     S
C123   C125    1.526   .     S
C123   H158    1.107   .     S
C124   H163    1.079   .     S
C124   C924    1.382   .     S
C125   H160    1.111   .     S
C125   H162    1.110   .     S
C125   H251    1.111   .     S
C126   H164    1.083   .     S
C127   C130    1.401   .     A
C127   H165    1.083   .     S
C127   C219    1.382   .     S
C128   H166    1.083   .     S
C128   C130    1.401   .     A
C128   C216    1.382   .     S
C129   H167    1.083   .     S
Cu131  Cu132   2.673   .     S
Cu131  O176    1.987   .     S
Cu131  O174    1.962   .     S
Cu131  O171    1.962   .     S
Cu131  O178    1.987   .     S
Cu131  N169    2.009   .     S
Cu132  N170    2.009   .     S
Cu132  O175    1.962   .     S
Cu132  O173    1.962   .     S
Cu132  O179    1.987   .     S
Cu132  O177    1.987   .     S
H153   C211    1.111   .     S
C181   C182    1.449   .     S
C181   O261    1.290   .     A
C181   O265    1.290   .     A
C182   C219    1.401   .     A
C182   C216    1.401   .     A
C183   N260    1.367   .     A
C183   H258    1.082   .     S
C183   C726    1.416   1_545 S
C184   N259    1.367   .     A
C184   H224    1.082   .     S
C184   C455    1.416   .     S
C185   H225    1.082   .     S
C185   N260    1.367   .     A
C185   C724    1.416   1_545 S
C186   H226    1.082   .     S
C186   N259    1.367   .     A
C186   C453    1.416   .     S
C187   O266    1.296   .     A
C187   O269    1.296   .     A
C187   C193    1.475   .     S
C188   O268    1.296   .     A
C188   O267    1.296   .     A
C188   C191    1.475   .     S
C189   C205    1.534   .     S
C189   C200    1.427   .     A
C189   C191    1.439   .     A
C190   C207    1.534   .     S
C190   C201    1.427   .     A
C190   C193    1.439   .     A
C191   C194    1.406   .     A
C192   O264    1.290   .     A
C192   O263    1.290   .     A
C192   C220    1.449   .     S
C193   C195    1.406   .     A
C194   O270    1.388   .     S
C194   C196    1.403   .     A
C195   O262    1.388   .     S
C195   C197    1.403   .     A
C196   C202    1.396   .     A
C196   C198    1.408   .     A
C197   C199    1.408   .     A
C197   C204    1.396   .     A
C198   C200    1.415   .     A
C198   C1009   1.424   .     S
C199   C201    1.415   .     A
C199   C1008   1.424   1_554 S
C200   C214    1.415   .     A
C201   C203    1.415   .     A
C202   H223    1.081   .     S
C202   C1013   1.382   .     S
C203   H245    1.079   .     S
C203   C1012   1.382   1_554 S
C204   H234    1.081   .     S
C204   C1024   1.382   1_554 S
C205   H230    1.113   .     S
C205   C206    1.500   .     S
C205   H231    1.113   .     S
C206   H228    1.107   .     S
C206   H229    1.109   .     S
C206   H227    1.107   .     S
C207   H237    1.113   .     S
C207   H236    1.113   .     S
C207   C208    1.500   .     S
C208   H235    1.109   .     S
C208   H233    1.107   .     S
C208   H232    1.107   .     S
C209   H239    1.117   .     S
C209   O270    1.417   .     S
C209   C210    1.529   .     S
C209   H238    1.111   .     S
C210   C211    1.526   .     S
C210   H240    1.107   .     S
C210   H241    1.110   .     S
C211   H242    1.111   .     S
C211   H244    1.110   .     S
C212   H247    1.117   .     S
C212   H246    1.111   .     S
C212   O262    1.417   .     S
C212   C213    1.529   .     S
C213   H249    1.110   .     S
C213   C215    1.526   .     S
C213   H248    1.107   .     S
C214   H253    1.079   .     S
C214   C1014   1.382   .     S
C215   H250    1.111   .     S
C215   H252    1.110   .     S
C215   H71     1.111   1_655 S
C216   H254    1.083   .     S
C217   C220    1.401   .     A
C217   H255    1.083   .     S
C217   C39     1.382   1_655 S
C218   H256    1.083   .     S
C218   C220    1.401   .     A
C218   C36     1.382   1_655 S
C219   H257    1.083   .     S
Cu221  Cu222   2.673   .     S
Cu221  O266    1.987   .     S
Cu221  O264    1.962   .     S
Cu221  O261    1.962   .     S
Cu221  O268    1.987   .     S
Cu221  N259    2.009   .     S
Cu222  N260    2.009   .     S
Cu222  O265    1.962   .     S
Cu222  O263    1.962   .     S
Cu222  O269    1.987   .     S
Cu222  O267    1.987   .     S
H243   C31     1.111   1_655 S
C271   C272    1.449   .     S
C271   O351    1.290   .     A
C271   O355    1.290   .     A
C272   C309    1.401   .     A
C272   C306    1.401   .     A
C273   N350    1.367   .     A
C273   H348    1.082   .     S
C274   N349    1.367   .     A
C274   H314    1.082   .     S
C274   C545    1.416   .     S
C275   H315    1.082   .     S
C275   N350    1.367   .     A
C276   H316    1.082   .     S
C276   N349    1.367   .     A
C276   C543    1.416   .     S
C277   O356    1.296   .     A
C277   O359    1.296   .     A
C277   C283    1.475   .     S
C278   O358    1.296   .     A
C278   O357    1.296   .     A
C278   C281    1.475   .     S
C279   C295    1.534   .     S
C279   C290    1.427   .     A
C279   C281    1.439   .     A
C280   C297    1.534   .     S
C280   C291    1.427   .     A
C280   C283    1.439   .     A
C281   C284    1.406   .     A
C282   O354    1.290   .     A
C282   O353    1.290   .     A
C282   C310    1.449   .     S
C283   C285    1.406   .     A
C284   O360    1.388   .     S
C284   C286    1.403   .     A
C285   O352    1.388   .     S
C285   C287    1.403   .     A
C286   C292    1.396   .     A
C286   C288    1.408   .     A
C287   C289    1.408   .     A
C287   C294    1.396   .     A
C288   C290    1.415   .     A
C288   C1099   1.424   .     S
C289   C291    1.415   .     A
C289   C1098   1.424   1_554 S
C290   C304    1.415   .     A
C291   C293    1.415   .     A
C292   H313    1.081   .     S
C292   C1103   1.382   .     S
C293   H335    1.079   .     S
C293   C1102   1.382   1_554 S
C294   H324    1.081   .     S
C294   C1114   1.382   1_554 S
C295   H320    1.113   .     S
C295   C296    1.500   .     S
C295   H321    1.113   .     S
C296   H318    1.107   .     S
C296   H319    1.109   .     S
C296   H317    1.107   .     S
C297   H327    1.113   .     S
C297   H326    1.113   .     S
C297   C298    1.500   .     S
C298   H325    1.109   .     S
C298   H323    1.107   .     S
C298   H322    1.107   .     S
C299   H329    1.117   .     S
C299   O360    1.417   .     S
C299   C300    1.529   .     S
C299   H328    1.111   .     S
C300   C301    1.526   .     S
C300   H330    1.107   .     S
C300   H331    1.110   .     S
C301   H332    1.111   .     S
C301   H334    1.110   .     S
C301   H513    1.111   1_455 S
C302   H337    1.117   .     S
C302   H336    1.111   .     S
C302   O352    1.417   .     S
C302   C303    1.529   .     S
C303   H339    1.110   .     S
C303   C305    1.526   .     S
C303   H338    1.107   .     S
C304   H343    1.079   .     S
C304   C1104   1.382   .     S
C305   H340    1.111   .     S
C305   H342    1.110   .     S
C305   H431    1.111   .     S
C306   H344    1.083   .     S
C306   C488    1.382   1_455 S
C307   C310    1.401   .     A
C307   H345    1.083   .     S
C307   C399    1.382   .     S
C308   H346    1.083   .     S
C308   C310    1.401   .     A
C308   C396    1.382   .     S
C309   H347    1.083   .     S
C309   C487    1.382   1_455 S
Cu311  Cu312   2.673   .     S
Cu311  O356    1.987   .     S
Cu311  O354    1.962   .     S
Cu311  O351    1.962   .     S
Cu311  O358    1.987   .     S
Cu311  N349    2.009   .     S
Cu312  N350    2.009   .     S
Cu312  O355    1.962   .     S
Cu312  O353    1.962   .     S
Cu312  O359    1.987   .     S
Cu312  O357    1.987   .     S
H333   C391    1.111   .     S
H341   C485    1.111   1_455 S
C361   C362    1.449   .     S
C361   O441    1.290   .     A
C361   O445    1.290   .     A
C362   C399    1.401   .     A
C362   C396    1.401   .     A
C363   N440    1.367   .     A
C363   H438    1.082   .     S
C364   N439    1.367   .     A
C364   H404    1.082   .     S
C364   C635    1.416   .     S
C365   H405    1.082   .     S
C365   N440    1.367   .     A
C366   H406    1.082   .     S
C366   N439    1.367   .     A
C366   C633    1.416   .     S
C367   O446    1.296   .     A
C367   O449    1.296   .     A
C367   C373    1.475   .     S
C368   O448    1.296   .     A
C368   O447    1.296   .     A
C368   C371    1.475   .     S
C369   C385    1.534   .     S
C369   C380    1.427   .     A
C369   C371    1.439   .     A
C370   C387    1.534   .     S
C370   C381    1.427   .     A
C370   C373    1.439   .     A
C371   C374    1.406   .     A
C372   O444    1.290   .     A
C372   O443    1.290   .     A
C372   C400    1.449   .     S
C373   C375    1.406   .     A
C374   O450    1.388   .     S
C374   C376    1.403   .     A
C375   O442    1.388   .     S
C375   C377    1.403   .     A
C376   C382    1.396   .     A
C376   C378    1.408   .     A
C377   C379    1.408   .     A
C377   C384    1.396   .     A
C378   C380    1.415   .     A
C378   C1189   1.424   .     S
C379   C381    1.415   .     A
C379   C1188   1.424   1_554 S
C380   C394    1.415   .     A
C381   C383    1.415   .     A
C382   H403    1.081   .     S
C382   C1193   1.382   .     S
C383   H425    1.079   .     S
C383   C1192   1.382   1_554 S
C384   H414    1.081   .     S
C384   C1204   1.382   1_554 S
C385   H410    1.113   .     S
C385   C386    1.500   .     S
C385   H411    1.113   .     S
C386   H408    1.107   .     S
C386   H409    1.109   .     S
C386   H407    1.107   .     S
C387   H417    1.113   .     S
C387   H416    1.113   .     S
C387   C388    1.500   .     S
C388   H415    1.109   .     S
C388   H413    1.107   .     S
C388   H412    1.107   .     S
C389   H419    1.117   .     S
C389   O450    1.417   .     S
C389   C390    1.529   .     S
C389   H418    1.111   .     S
C390   C391    1.526   .     S
C390   H420    1.107   .     S
C390   H421    1.110   .     S
C391   H422    1.111   .     S
C391   H424    1.110   .     S
C392   H427    1.117   .     S
C392   H426    1.111   .     S
C392   O442    1.417   .     S
C392   C393    1.529   .     S
C393   H429    1.110   .     S
C393   C395    1.526   .     S
C393   H428    1.107   .     S
C394   H433    1.079   .     S
C394   C1194   1.382   .     S
C395   H430    1.111   .     S
C395   H432    1.110   .     S
C395   H521    1.111   .     S
C396   H434    1.083   .     S
C397   C400    1.401   .     A
C397   H435    1.083   .     S
C397   C489    1.382   .     S
C398   H436    1.083   .     S
C398   C400    1.401   .     A
C398   C486    1.382   .     S
C399   H437    1.083   .     S
Cu401  Cu402   2.673   .     S
Cu401  O446    1.987   .     S
Cu401  O444    1.962   .     S
Cu401  O441    1.962   .     S
Cu401  O448    1.987   .     S
Cu401  N439    2.009   .     S
Cu402  N440    2.009   .     S
Cu402  O445    1.962   .     S
Cu402  O443    1.962   .     S
Cu402  O449    1.987   .     S
Cu402  O447    1.987   .     S
H423   C481    1.111   .     S
C451   C452    1.449   .     S
C451   O531    1.290   .     A
C451   O535    1.290   .     A
C452   C489    1.401   .     A
C452   C486    1.401   .     A
C453   N530    1.367   .     A
C453   H528    1.082   .     S
C454   N529    1.367   .     A
C454   H494    1.082   .     S
C454   C725    1.416   .     S
C455   H495    1.082   .     S
C455   N530    1.367   .     A
C456   H496    1.082   .     S
C456   N529    1.367   .     A
C456   C723    1.416   .     S
C457   O536    1.296   .     A
C457   O539    1.296   .     A
C457   C463    1.475   .     S
C458   O538    1.296   .     A
C458   O537    1.296   .     A
C458   C461    1.475   .     S
C459   C475    1.534   .     S
C459   C470    1.427   .     A
C459   C461    1.439   .     A
C460   C477    1.534   .     S
C460   C471    1.427   .     A
C460   C463    1.439   .     A
C461   C464    1.406   .     A
C462   O534    1.290   .     A
C462   O533    1.290   .     A
C462   C490    1.449   .     S
C463   C465    1.406   .     A
C464   O540    1.388   .     S
C464   C466    1.403   .     A
C465   O532    1.388   .     S
C465   C467    1.403   .     A
C466   C472    1.396   .     A
C466   C468    1.408   .     A
C467   C469    1.408   .     A
C467   C474    1.396   .     A
C468   C470    1.415   .     A
C468   C1279   1.424   .     S
C469   C471    1.415   .     A
C469   C1278   1.424   1_554 S
C470   C484    1.415   .     A
C471   C473    1.415   .     A
C472   H493    1.081   .     S
C472   C1283   1.382   .     S
C473   H515    1.079   .     S
C473   C1282   1.382   1_554 S
C474   H504    1.081   .     S
C474   C1294   1.382   1_554 S
C475   H500    1.113   .     S
C475   C476    1.500   .     S
C475   H501    1.113   .     S
C476   H498    1.107   .     S
C476   H499    1.109   .     S
C476   H497    1.107   .     S
C477   H507    1.113   .     S
C477   H506    1.113   .     S
C477   C478    1.500   .     S
C478   H505    1.109   .     S
C478   H503    1.107   .     S
C478   H502    1.107   .     S
C479   H509    1.117   .     S
C479   O540    1.417   .     S
C479   C480    1.529   .     S
C479   H508    1.111   .     S
C480   C481    1.526   .     S
C480   H510    1.107   .     S
C480   H511    1.110   .     S
C481   H512    1.111   .     S
C481   H514    1.110   .     S
C482   H517    1.117   .     S
C482   H516    1.111   .     S
C482   O532    1.417   .     S
C482   C483    1.529   .     S
C483   H519    1.110   .     S
C483   C485    1.526   .     S
C483   H518    1.107   .     S
C484   H523    1.079   .     S
C484   C1284   1.382   .     S
C485   H520    1.111   .     S
C485   H522    1.110   .     S
C485   H341    1.111   1_655 S
C486   H524    1.083   .     S
C487   C490    1.401   .     A
C487   H525    1.083   .     S
C487   C309    1.382   1_655 S
C488   H526    1.083   .     S
C488   C490    1.401   .     A
C488   C306    1.382   1_655 S
C489   H527    1.083   .     S
Cu491  Cu492   2.673   .     S
Cu491  O536    1.987   .     S
Cu491  O534    1.962   .     S
Cu491  O531    1.962   .     S
Cu491  O538    1.987   .     S
Cu491  N529    2.009   .     S
Cu492  N530    2.009   .     S
Cu492  O535    1.962   .     S
Cu492  O533    1.962   .     S
Cu492  O539    1.987   .     S
Cu492  O537    1.987   .     S
H513   C301    1.111   1_655 S
C541   C542    1.449   .     S
C541   O621    1.290   .     A
C541   O625    1.290   .     A
C542   C579    1.401   .     A
C542   C576    1.401   .     A
C543   N620    1.367   .     A
C543   H618    1.082   .     S
C544   N619    1.367   .     A
C544   H584    1.082   .     S
C544   C5      1.416   1_565 S
C545   H585    1.082   .     S
C545   N620    1.367   .     A
C546   H586    1.082   .     S
C546   N619    1.367   .     A
C546   C3      1.416   1_565 S
C547   O626    1.296   .     A
C547   O629    1.296   .     A
C547   C553    1.475   .     S
C548   O628    1.296   .     A
C548   O627    1.296   .     A
C548   C551    1.475   .     S
C549   C565    1.534   .     S
C549   C560    1.427   .     A
C549   C551    1.439   .     A
C550   C567    1.534   .     S
C550   C561    1.427   .     A
C550   C553    1.439   .     A
C551   C554    1.406   .     A
C552   O624    1.290   .     A
C552   O623    1.290   .     A
C552   C580    1.449   .     S
C553   C555    1.406   .     A
C554   O630    1.388   .     S
C554   C556    1.403   .     A
C555   O622    1.388   .     S
C555   C557    1.403   .     A
C556   C562    1.396   .     A
C556   C558    1.408   .     A
C557   C559    1.408   .     A
C557   C564    1.396   .     A
C558   C560    1.415   .     A
C558   C1369   1.424   .     S
C559   C561    1.415   .     A
C559   C1368   1.424   1_554 S
C560   C574    1.415   .     A
C561   C563    1.415   .     A
C562   H583    1.081   .     S
C562   C1373   1.382   .     S
C563   H605    1.079   .     S
C563   C1372   1.382   1_554 S
C564   H594    1.081   .     S
C564   C1384   1.382   1_554 S
C565   H590    1.113   .     S
C565   C566    1.500   .     S
C565   H591    1.113   .     S
C566   H588    1.107   .     S
C566   H589    1.109   .     S
C566   H587    1.107   .     S
C567   H597    1.113   .     S
C567   H596    1.113   .     S
C567   C568    1.500   .     S
C568   H595    1.109   .     S
C568   H593    1.107   .     S
C568   H592    1.107   .     S
C569   H599    1.117   .     S
C569   O630    1.417   .     S
C569   C570    1.529   .     S
C569   H598    1.111   .     S
C570   C571    1.526   .     S
C570   H600    1.107   .     S
C570   H601    1.110   .     S
C571   H602    1.111   .     S
C571   H604    1.110   .     S
C571   H783    1.111   1_455 S
C572   H607    1.117   .     S
C572   H606    1.111   .     S
C572   O622    1.417   .     S
C572   C573    1.529   .     S
C573   H609    1.110   .     S
C573   C575    1.526   .     S
C573   H608    1.107   .     S
C574   H613    1.079   .     S
C574   C1374   1.382   .     S
C575   H610    1.111   .     S
C575   H612    1.110   .     S
C575   H701    1.111   .     S
C576   H614    1.083   .     S
C576   C758    1.382   1_455 S
C577   C580    1.401   .     A
C577   H615    1.083   .     S
C577   C669    1.382   .     S
C578   H616    1.083   .     S
C578   C580    1.401   .     A
C578   C666    1.382   .     S
C579   H617    1.083   .     S
C579   C757    1.382   1_455 S
Cu581  Cu582   2.673   .     S
Cu581  O626    1.987   .     S
Cu581  O624    1.962   .     S
Cu581  O621    1.962   .     S
Cu581  O628    1.987   .     S
Cu581  N619    2.009   .     S
Cu582  N620    2.009   .     S
Cu582  O625    1.962   .     S
Cu582  O623    1.962   .     S
Cu582  O629    1.987   .     S
Cu582  O627    1.987   .     S
H603   C661    1.111   .     S
H611   C755    1.111   1_455 S
C631   C632    1.449   .     S
C631   O711    1.290   .     A
C631   O715    1.290   .     A
C632   C669    1.401   .     A
C632   C666    1.401   .     A
C633   N710    1.367   .     A
C633   H708    1.082   .     S
C634   N709    1.367   .     A
C634   H674    1.082   .     S
C634   C95     1.416   1_565 S
C635   H675    1.082   .     S
C635   N710    1.367   .     A
C636   H676    1.082   .     S
C636   N709    1.367   .     A
C636   C93     1.416   1_565 S
C637   O716    1.296   .     A
C637   O719    1.296   .     A
C637   C643    1.475   .     S
C638   O718    1.296   .     A
C638   O717    1.296   .     A
C638   C641    1.475   .     S
C639   C655    1.534   .     S
C639   C650    1.427   .     A
C639   C641    1.439   .     A
C640   C657    1.534   .     S
C640   C651    1.427   .     A
C640   C643    1.439   .     A
C641   C644    1.406   .     A
C642   O714    1.290   .     A
C642   O713    1.290   .     A
C642   C670    1.449   .     S
C643   C645    1.406   .     A
C644   O720    1.388   .     S
C644   C646    1.403   .     A
C645   O712    1.388   .     S
C645   C647    1.403   .     A
C646   C652    1.396   .     A
C646   C648    1.408   .     A
C647   C649    1.408   .     A
C647   C654    1.396   .     A
C648   C650    1.415   .     A
C648   C1459   1.424   .     S
C649   C651    1.415   .     A
C649   C1458   1.424   1_554 S
C650   C664    1.415   .     A
C651   C653    1.415   .     A
C652   H673    1.081   .     S
C652   C1463   1.382   .     S
C653   H695    1.079   .     S
C653   C1462   1.382   1_554 S
C654   H684    1.081   .     S
C654   C1474   1.382   1_554 S
C655   H680    1.113   .     S
C655   C656    1.500   .     S
C655   H681    1.113   .     S
C656   H678    1.107   .     S
C656   H679    1.109   .     S
C656   H677    1.107   .     S
C657   H687    1.113   .     S
C657   H686    1.113   .     S
C657   C658    1.500   .     S
C658   H685    1.109   .     S
C658   H683    1.107   .     S
C658   H682    1.107   .     S
C659   H689    1.117   .     S
C659   O720    1.417   .     S
C659   C660    1.529   .     S
C659   H688    1.111   .     S
C660   C661    1.526   .     S
C660   H690    1.107   .     S
C660   H691    1.110   .     S
C661   H692    1.111   .     S
C661   H694    1.110   .     S
C662   H697    1.117   .     S
C662   H696    1.111   .     S
C662   O712    1.417   .     S
C662   C663    1.529   .     S
C663   H699    1.110   .     S
C663   C665    1.526   .     S
C663   H698    1.107   .     S
C664   H703    1.079   .     S
C664   C1464   1.382   .     S
C665   H700    1.111   .     S
C665   H702    1.110   .     S
C665   H791    1.111   .     S
C666   H704    1.083   .     S
C667   C670    1.401   .     A
C667   H705    1.083   .     S
C667   C759    1.382   .     S
C668   H706    1.083   .     S
C668   C670    1.401   .     A
C668   C756    1.382   .     S
C669   H707    1.083   .     S
Cu671  Cu672   2.673   .     S
Cu671  O716    1.987   .     S
Cu671  O714    1.962   .     S
Cu671  O711    1.962   .     S
Cu671  O718    1.987   .     S
Cu671  N709    2.009   .     S
Cu672  N710    2.009   .     S
Cu672  O715    1.962   .     S
Cu672  O713    1.962   .     S
Cu672  O719    1.987   .     S
Cu672  O717    1.987   .     S
H693   C751    1.111   .     S
C721   C722    1.449   .     S
C721   O801    1.290   .     A
C721   O805    1.290   .     A
C722   C759    1.401   .     A
C722   C756    1.401   .     A
C723   N800    1.367   .     A
C723   H798    1.082   .     S
C724   N799    1.367   .     A
C724   H764    1.082   .     S
C724   C185    1.416   1_565 S
C725   H765    1.082   .     S
C725   N800    1.367   .     A
C726   H766    1.082   .     S
C726   N799    1.367   .     A
C726   C183    1.416   1_565 S
C727   O806    1.296   .     A
C727   O809    1.296   .     A
C727   C733    1.475   .     S
C728   O808    1.296   .     A
C728   O807    1.296   .     A
C728   C731    1.475   .     S
C729   C745    1.534   .     S
C729   C740    1.427   .     A
C729   C731    1.439   .     A
C730   C747    1.534   .     S
C730   C741    1.427   .     A
C730   C733    1.439   .     A
C731   C734    1.406   .     A
C732   O804    1.290   .     A
C732   O803    1.290   .     A
C732   C760    1.449   .     S
C733   C735    1.406   .     A
C734   O810    1.388   .     S
C734   C736    1.403   .     A
C735   O802    1.388   .     S
C735   C737    1.403   .     A
C736   C742    1.396   .     A
C736   C738    1.408   .     A
C737   C739    1.408   .     A
C737   C744    1.396   .     A
C738   C740    1.415   .     A
C738   C1549   1.424   .     S
C739   C741    1.415   .     A
C739   C1548   1.424   1_554 S
C740   C754    1.415   .     A
C741   C743    1.415   .     A
C742   H763    1.081   .     S
C742   C1553   1.382   .     S
C743   H785    1.079   .     S
C743   C1552   1.382   1_554 S
C744   H774    1.081   .     S
C744   C1564   1.382   1_554 S
C745   H770    1.113   .     S
C745   C746    1.500   .     S
C745   H771    1.113   .     S
C746   H768    1.107   .     S
C746   H769    1.109   .     S
C746   H767    1.107   .     S
C747   H777    1.113   .     S
C747   H776    1.113   .     S
C747   C748    1.500   .     S
C748   H775    1.109   .     S
C748   H773    1.107   .     S
C748   H772    1.107   .     S
C749   H779    1.117   .     S
C749   O810    1.417   .     S
C749   C750    1.529   .     S
C749   H778    1.111   .     S
C750   C751    1.526   .     S
C750   H780    1.107   .     S
C750   H781    1.110   .     S
C751   H782    1.111   .     S
C751   H784    1.110   .     S
C752   H787    1.117   .     S
C752   H786    1.111   .     S
C752   O802    1.417   .     S
C752   C753    1.529   .     S
C753   H789    1.110   .     S
C753   C755    1.526   .     S
C753   H788    1.107   .     S
C754   H793    1.079   .     S
C754   C1554   1.382   .     S
C755   H790    1.111   .     S
C755   H792    1.110   .     S
C755   H611    1.111   1_655 S
C756   H794    1.083   .     S
C757   C760    1.401   .     A
C757   H795    1.083   .     S
C757   C579    1.382   1_655 S
C758   H796    1.083   .     S
C758   C760    1.401   .     A
C758   C576    1.382   1_655 S
C759   H797    1.083   .     S
Cu761  Cu762   2.673   .     S
Cu761  O806    1.987   .     S
Cu761  O804    1.962   .     S
Cu761  O801    1.962   .     S
Cu761  O808    1.987   .     S
Cu761  N799    2.009   .     S
Cu762  N800    2.009   .     S
Cu762  O805    1.962   .     S
Cu762  O803    1.962   .     S
Cu762  O809    1.987   .     S
Cu762  O807    1.987   .     S
H783   C571    1.111   1_655 S
C811   C812    1.449   .     S
C811   O891    1.290   .     A
C811   O895    1.290   .     A
C812   C849    1.401   .     A
C812   C846    1.401   .     A
C813   N890    1.367   .     A
C813   H888    1.082   .     S
C813   C1356   1.416   1_545 S
C814   N889    1.367   .     A
C814   H854    1.082   .     S
C814   C1085   1.416   .     S
C815   H855    1.082   .     S
C815   N890    1.367   .     A
C815   C1354   1.416   1_545 S
C816   H856    1.082   .     S
C816   N889    1.367   .     A
C816   C1083   1.416   .     S
C817   O896    1.296   .     A
C817   O899    1.296   .     A
C817   C823    1.475   .     S
C818   O898    1.296   .     A
C818   O897    1.296   .     A
C818   C821    1.475   .     S
C819   C835    1.534   .     S
C819   C830    1.427   .     A
C819   C821    1.439   .     A
C820   C837    1.534   .     S
C820   C831    1.427   .     A
C820   C823    1.439   .     A
C821   C824    1.406   .     A
C822   O894    1.290   .     A
C822   O893    1.290   .     A
C822   C850    1.449   .     S
C823   C825    1.406   .     A
C824   O900    1.388   .     S
C824   C826    1.403   .     A
C825   O892    1.388   .     S
C825   C827    1.403   .     A
C826   C832    1.396   .     A
C826   C828    1.408   .     A
C827   C829    1.408   .     A
C827   C834    1.396   .     A
C828   C830    1.415   .     A
C828   C19     1.424   1_556 S
C829   C831    1.415   .     A
C830   C844    1.415   .     A
C831   C833    1.415   .     A
C832   H853    1.081   .     S
C832   C23     1.382   1_556 S
C833   H875    1.079   .     S
C834   H864    1.081   .     S
C835   H860    1.113   .     S
C835   C836    1.500   .     S
C835   H861    1.113   .     S
C836   H858    1.107   .     S
C836   H859    1.109   .     S
C836   H857    1.107   .     S
C837   H867    1.113   .     S
C837   H866    1.113   .     S
C837   C838    1.500   .     S
C838   H865    1.109   .     S
C838   H863    1.107   .     S
C838   H862    1.107   .     S
C839   H869    1.117   .     S
C839   O900    1.417   .     S
C839   C840    1.529   .     S
C839   H868    1.111   .     S
C840   C841    1.526   .     S
C840   H870    1.107   .     S
C840   H871    1.110   .     S
C841   H872    1.111   .     S
C841   H874    1.110   .     S
C841   H1053   1.111   1_455 S
C842   H877    1.117   .     S
C842   H876    1.111   .     S
C842   O892    1.417   .     S
C842   C843    1.529   .     S
C843   H879    1.110   .     S
C843   C845    1.526   .     S
C843   H878    1.107   .     S
C844   H883    1.079   .     S
C844   C24     1.382   1_556 S
C845   H880    1.111   .     S
C845   H882    1.110   .     S
C845   H971    1.111   .     S
C846   H884    1.083   .     S
C846   C1028   1.382   1_455 S
C847   C850    1.401   .     A
C847   H885    1.083   .     S
C847   C939    1.382   .     S
C848   H886    1.083   .     S
C848   C850    1.401   .     A
C848   C936    1.382   .     S
C849   H887    1.083   .     S
C849   C1027   1.382   1_455 S
Cu851  Cu852   2.673   .     S
Cu851  O896    1.987   .     S
Cu851  O894    1.962   .     S
Cu851  O891    1.962   .     S
Cu851  O898    1.987   .     S
Cu851  N889    2.009   .     S
Cu852  N890    2.009   .     S
Cu852  O895    1.962   .     S
Cu852  O893    1.962   .     S
Cu852  O899    1.987   .     S
Cu852  O897    1.987   .     S
H873   C931    1.111   .     S
H881   C1025   1.111   1_455 S
C901   C902    1.449   .     S
C901   O981    1.290   .     A
C901   O985    1.290   .     A
C902   C939    1.401   .     A
C902   C936    1.401   .     A
C903   N980    1.367   .     A
C903   H978    1.082   .     S
C903   C1446   1.416   1_545 S
C904   N979    1.367   .     A
C904   H944    1.082   .     S
C904   C1175   1.416   .     S
C905   H945    1.082   .     S
C905   N980    1.367   .     A
C905   C1444   1.416   1_545 S
C906   H946    1.082   .     S
C906   N979    1.367   .     A
C906   C1173   1.416   .     S
C907   O986    1.296   .     A
C907   O989    1.296   .     A
C907   C913    1.475   .     S
C908   O988    1.296   .     A
C908   O987    1.296   .     A
C908   C911    1.475   .     S
C909   C925    1.534   .     S
C909   C920    1.427   .     A
C909   C911    1.439   .     A
C910   C927    1.534   .     S
C910   C921    1.427   .     A
C910   C913    1.439   .     A
C911   C914    1.406   .     A
C912   O984    1.290   .     A
C912   O983    1.290   .     A
C912   C940    1.449   .     S
C913   C915    1.406   .     A
C914   O990    1.388   .     S
C914   C916    1.403   .     A
C915   O982    1.388   .     S
C915   C917    1.403   .     A
C916   C922    1.396   .     A
C916   C918    1.408   .     A
C917   C919    1.408   .     A
C917   C924    1.396   .     A
C918   C920    1.415   .     A
C918   C109    1.424   1_556 S
C919   C921    1.415   .     A
C920   C934    1.415   .     A
C921   C923    1.415   .     A
C922   H943    1.081   .     S
C922   C113    1.382   1_556 S
C923   H965    1.079   .     S
C924   H954    1.081   .     S
C925   H950    1.113   .     S
C925   C926    1.500   .     S
C925   H951    1.113   .     S
C926   H948    1.107   .     S
C926   H949    1.109   .     S
C926   H947    1.107   .     S
C927   H957    1.113   .     S
C927   H956    1.113   .     S
C927   C928    1.500   .     S
C928   H955    1.109   .     S
C928   H953    1.107   .     S
C928   H952    1.107   .     S
C929   H959    1.117   .     S
C929   O990    1.417   .     S
C929   C930    1.529   .     S
C929   H958    1.111   .     S
C930   C931    1.526   .     S
C930   H960    1.107   .     S
C930   H961    1.110   .     S
C931   H962    1.111   .     S
C931   H964    1.110   .     S
C932   H967    1.117   .     S
C932   H966    1.111   .     S
C932   O982    1.417   .     S
C932   C933    1.529   .     S
C933   H969    1.110   .     S
C933   C935    1.526   .     S
C933   H968    1.107   .     S
C934   H973    1.079   .     S
C934   C114    1.382   1_556 S
C935   H970    1.111   .     S
C935   H972    1.110   .     S
C935   H1061   1.111   .     S
C936   H974    1.083   .     S
C937   C940    1.401   .     A
C937   H975    1.083   .     S
C937   C1029   1.382   .     S
C938   H976    1.083   .     S
C938   C940    1.401   .     A
C938   C1026   1.382   .     S
C939   H977    1.083   .     S
Cu941  Cu942   2.673   .     S
Cu941  O986    1.987   .     S
Cu941  O984    1.962   .     S
Cu941  O981    1.962   .     S
Cu941  O988    1.987   .     S
Cu941  N979    2.009   .     S
Cu942  N980    2.009   .     S
Cu942  O985    1.962   .     S
Cu942  O983    1.962   .     S
Cu942  O989    1.987   .     S
Cu942  O987    1.987   .     S
H963   C1021   1.111   .     S
C991   C992    1.449   .     S
C991   O1071   1.290   .     A
C991   O1075   1.290   .     A
C992   C1029   1.401   .     A
C992   C1026   1.401   .     A
C993   N1070   1.367   .     A
C993   H1068   1.082   .     S
C993   C1536   1.416   1_545 S
C994   N1069   1.367   .     A
C994   H1034   1.082   .     S
C994   C1265   1.416   .     S
C995   H1035   1.082   .     S
C995   N1070   1.367   .     A
C995   C1534   1.416   1_545 S
C996   H1036   1.082   .     S
C996   N1069   1.367   .     A
C996   C1263   1.416   .     S
C997   O1076   1.296   .     A
C997   O1079   1.296   .     A
C997   C1003   1.475   .     S
C998   O1078   1.296   .     A
C998   O1077   1.296   .     A
C998   C1001   1.475   .     S
C999   C1015   1.534   .     S
C999   C1010   1.427   .     A
C999   C1001   1.439   .     A
C1000  C1017   1.534   .     S
C1000  C1011   1.427   .     A
C1000  C1003   1.439   .     A
C1001  C1004   1.406   .     A
C1002  O1074   1.290   .     A
C1002  O1073   1.290   .     A
C1002  C1030   1.449   .     S
C1003  C1005   1.406   .     A
C1004  O1080   1.388   .     S
C1004  C1006   1.403   .     A
C1005  O1072   1.388   .     S
C1005  C1007   1.403   .     A
C1006  C1012   1.396   .     A
C1006  C1008   1.408   .     A
C1007  C1009   1.408   .     A
C1007  C1014   1.396   .     A
C1008  C1010   1.415   .     A
C1008  C199    1.424   1_556 S
C1009  C1011   1.415   .     A
C1010  C1024   1.415   .     A
C1011  C1013   1.415   .     A
C1012  H1033   1.081   .     S
C1012  C203    1.382   1_556 S
C1013  H1055   1.079   .     S
C1014  H1044   1.081   .     S
C1015  H1040   1.113   .     S
C1015  C1016   1.500   .     S
C1015  H1041   1.113   .     S
C1016  H1038   1.107   .     S
C1016  H1039   1.109   .     S
C1016  H1037   1.107   .     S
C1017  H1047   1.113   .     S
C1017  H1046   1.113   .     S
C1017  C1018   1.500   .     S
C1018  H1045   1.109   .     S
C1018  H1043   1.107   .     S
C1018  H1042   1.107   .     S
C1019  H1049   1.117   .     S
C1019  O1080   1.417   .     S
C1019  C1020   1.529   .     S
C1019  H1048   1.111   .     S
C1020  C1021   1.526   .     S
C1020  H1050   1.107   .     S
C1020  H1051   1.110   .     S
C1021  H1052   1.111   .     S
C1021  H1054   1.110   .     S
C1022  H1057   1.117   .     S
C1022  H1056   1.111   .     S
C1022  O1072   1.417   .     S
C1022  C1023   1.529   .     S
C1023  H1059   1.110   .     S
C1023  C1025   1.526   .     S
C1023  H1058   1.107   .     S
C1024  H1063   1.079   .     S
C1024  C204    1.382   1_556 S
C1025  H1060   1.111   .     S
C1025  H1062   1.110   .     S
C1025  H881    1.111   1_655 S
C1026  H1064   1.083   .     S
C1027  C1030   1.401   .     A
C1027  H1065   1.083   .     S
C1027  C849    1.382   1_655 S
C1028  H1066   1.083   .     S
C1028  C1030   1.401   .     A
C1028  C846    1.382   1_655 S
C1029  H1067   1.083   .     S
Cu1031 Cu1032  2.673   .     S
Cu1031 O1076   1.987   .     S
Cu1031 O1074   1.962   .     S
Cu1031 O1071   1.962   .     S
Cu1031 O1078   1.987   .     S
Cu1031 N1069   2.009   .     S
Cu1032 N1070   2.009   .     S
Cu1032 O1075   1.962   .     S
Cu1032 O1073   1.962   .     S
Cu1032 O1079   1.987   .     S
Cu1032 O1077   1.987   .     S
H1053  C841    1.111   1_655 S
C1081  C1082   1.449   .     S
C1081  O1161   1.290   .     A
C1081  O1165   1.290   .     A
C1082  C1119   1.401   .     A
C1082  C1116   1.401   .     A
C1083  N1160   1.367   .     A
C1083  H1158   1.082   .     S
C1084  N1159   1.367   .     A
C1084  H1124   1.082   .     S
C1084  C1355   1.416   .     S
C1085  H1125   1.082   .     S
C1085  N1160   1.367   .     A
C1086  H1126   1.082   .     S
C1086  N1159   1.367   .     A
C1086  C1353   1.416   .     S
C1087  O1166   1.296   .     A
C1087  O1169   1.296   .     A
C1087  C1093   1.475   .     S
C1088  O1168   1.296   .     A
C1088  O1167   1.296   .     A
C1088  C1091   1.475   .     S
C1089  C1105   1.534   .     S
C1089  C1100   1.427   .     A
C1089  C1091   1.439   .     A
C1090  C1107   1.534   .     S
C1090  C1101   1.427   .     A
C1090  C1093   1.439   .     A
C1091  C1094   1.406   .     A
C1092  O1164   1.290   .     A
C1092  O1163   1.290   .     A
C1092  C1120   1.449   .     S
C1093  C1095   1.406   .     A
C1094  O1170   1.388   .     S
C1094  C1096   1.403   .     A
C1095  O1162   1.388   .     S
C1095  C1097   1.403   .     A
C1096  C1102   1.396   .     A
C1096  C1098   1.408   .     A
C1097  C1099   1.408   .     A
C1097  C1104   1.396   .     A
C1098  C1100   1.415   .     A
C1098  C289    1.424   1_556 S
C1099  C1101   1.415   .     A
C1100  C1114   1.415   .     A
C1101  C1103   1.415   .     A
C1102  H1123   1.081   .     S
C1102  C293    1.382   1_556 S
C1103  H1145   1.079   .     S
C1104  H1134   1.081   .     S
C1105  H1130   1.113   .     S
C1105  C1106   1.500   .     S
C1105  H1131   1.113   .     S
C1106  H1128   1.107   .     S
C1106  H1129   1.109   .     S
C1106  H1127   1.107   .     S
C1107  H1137   1.113   .     S
C1107  H1136   1.113   .     S
C1107  C1108   1.500   .     S
C1108  H1135   1.109   .     S
C1108  H1133   1.107   .     S
C1108  H1132   1.107   .     S
C1109  H1139   1.117   .     S
C1109  O1170   1.417   .     S
C1109  C1110   1.529   .     S
C1109  H1138   1.111   .     S
C1110  C1111   1.526   .     S
C1110  H1140   1.107   .     S
C1110  H1141   1.110   .     S
C1111  H1142   1.111   .     S
C1111  H1144   1.110   .     S
C1111  H1323   1.111   1_455 S
C1112  H1147   1.117   .     S
C1112  H1146   1.111   .     S
C1112  O1162   1.417   .     S
C1112  C1113   1.529   .     S
C1113  H1149   1.110   .     S
C1113  C1115   1.526   .     S
C1113  H1148   1.107   .     S
C1114  H1153   1.079   .     S
C1114  C294    1.382   1_556 S
C1115  H1150   1.111   .     S
C1115  H1152   1.110   .     S
C1115  H1241   1.111   .     S
C1116  H1154   1.083   .     S
C1116  C1298   1.382   1_455 S
C1117  C1120   1.401   .     A
C1117  H1155   1.083   .     S
C1117  C1209   1.382   .     S
C1118  H1156   1.083   .     S
C1118  C1120   1.401   .     A
C1118  C1206   1.382   .     S
C1119  H1157   1.083   .     S
C1119  C1297   1.382   1_455 S
Cu1121 Cu1122  2.673   .     S
Cu1121 O1166   1.987   .     S
Cu1121 O1164   1.962   .     S
Cu1121 O1161   1.962   .     S
Cu1121 O1168   1.987   .     S
Cu1121 N1159   2.009   .     S
Cu1122 N1160   2.009   .     S
Cu1122 O1165   1.962   .     S
Cu1122 O1163   1.962   .     S
Cu1122 O1169   1.987   .     S
Cu1122 O1167   1.987   .     S
H1143  C1201   1.111   .     S
H1151  C1295   1.111   1_455 S
C1171  C1172   1.449   .     S
C1171  O1251   1.290   .     A
C1171  O1255   1.290   .     A
C1172  C1209   1.401   .     A
C1172  C1206   1.401   .     A
C1173  N1250   1.367   .     A
C1173  H1248   1.082   .     S
C1174  N1249   1.367   .     A
C1174  H1214   1.082   .     S
C1174  C1445   1.416   .     S
C1175  H1215   1.082   .     S
C1175  N1250   1.367   .     A
C1176  H1216   1.082   .     S
C1176  N1249   1.367   .     A
C1176  C1443   1.416   .     S
C1177  O1256   1.296   .     A
C1177  O1259   1.296   .     A
C1177  C1183   1.475   .     S
C1178  O1258   1.296   .     A
C1178  O1257   1.296   .     A
C1178  C1181   1.475   .     S
C1179  C1195   1.534   .     S
C1179  C1190   1.427   .     A
C1179  C1181   1.439   .     A
C1180  C1197   1.534   .     S
C1180  C1191   1.427   .     A
C1180  C1183   1.439   .     A
C1181  C1184   1.406   .     A
C1182  O1254   1.290   .     A
C1182  O1253   1.290   .     A
C1182  C1210   1.449   .     S
C1183  C1185   1.406   .     A
C1184  O1260   1.388   .     S
C1184  C1186   1.403   .     A
C1185  O1252   1.388   .     S
C1185  C1187   1.403   .     A
C1186  C1192   1.396   .     A
C1186  C1188   1.408   .     A
C1187  C1189   1.408   .     A
C1187  C1194   1.396   .     A
C1188  C1190   1.415   .     A
C1188  C379    1.424   1_556 S
C1189  C1191   1.415   .     A
C1190  C1204   1.415   .     A
C1191  C1193   1.415   .     A
C1192  H1213   1.081   .     S
C1192  C383    1.382   1_556 S
C1193  H1235   1.079   .     S
C1194  H1224   1.081   .     S
C1195  H1220   1.113   .     S
C1195  C1196   1.500   .     S
C1195  H1221   1.113   .     S
C1196  H1218   1.107   .     S
C1196  H1219   1.109   .     S
C1196  H1217   1.107   .     S
C1197  H1227   1.113   .     S
C1197  H1226   1.113   .     S
C1197  C1198   1.500   .     S
C1198  H1225   1.109   .     S
C1198  H1223   1.107   .     S
C1198  H1222   1.107   .     S
C1199  H1229   1.117   .     S
C1199  O1260   1.417   .     S
C1199  C1200   1.529   .     S
C1199  H1228   1.111   .     S
C1200  C1201   1.526   .     S
C1200  H1230   1.107   .     S
C1200  H1231   1.110   .     S
C1201  H1232   1.111   .     S
C1201  H1234   1.110   .     S
C1202  H1237   1.117   .     S
C1202  H1236   1.111   .     S
C1202  O1252   1.417   .     S
C1202  C1203   1.529   .     S
C1203  H1239   1.110   .     S
C1203  C1205   1.526   .     S
C1203  H1238   1.107   .     S
C1204  H1243   1.079   .     S
C1204  C384    1.382   1_556 S
C1205  H1240   1.111   .     S
C1205  H1242   1.110   .     S
C1205  H1331   1.111   .     S
C1206  H1244   1.083   .     S
C1207  C1210   1.401   .     A
C1207  H1245   1.083   .     S
C1207  C1299   1.382   .     S
C1208  H1246   1.083   .     S
C1208  C1210   1.401   .     A
C1208  C1296   1.382   .     S
C1209  H1247   1.083   .     S
Cu1211 Cu1212  2.673   .     S
Cu1211 O1256   1.987   .     S
Cu1211 O1254   1.962   .     S
Cu1211 O1251   1.962   .     S
Cu1211 O1258   1.987   .     S
Cu1211 N1249   2.009   .     S
Cu1212 N1250   2.009   .     S
Cu1212 O1255   1.962   .     S
Cu1212 O1253   1.962   .     S
Cu1212 O1259   1.987   .     S
Cu1212 O1257   1.987   .     S
H1233  C1291   1.111   .     S
C1261  C1262   1.449   .     S
C1261  O1341   1.290   .     A
C1261  O1345   1.290   .     A
C1262  C1299   1.401   .     A
C1262  C1296   1.401   .     A
C1263  N1340   1.367   .     A
C1263  H1338   1.082   .     S
C1264  N1339   1.367   .     A
C1264  H1304   1.082   .     S
C1264  C1535   1.416   .     S
C1265  H1305   1.082   .     S
C1265  N1340   1.367   .     A
C1266  H1306   1.082   .     S
C1266  N1339   1.367   .     A
C1266  C1533   1.416   .     S
C1267  O1346   1.296   .     A
C1267  O1349   1.296   .     A
C1267  C1273   1.475   .     S
C1268  O1348   1.296   .     A
C1268  O1347   1.296   .     A
C1268  C1271   1.475   .     S
C1269  C1285   1.534   .     S
C1269  C1280   1.427   .     A
C1269  C1271   1.439   .     A
C1270  C1287   1.534   .     S
C1270  C1281   1.427   .     A
C1270  C1273   1.439   .     A
C1271  C1274   1.406   .     A
C1272  O1344   1.290   .     A
C1272  O1343   1.290   .     A
C1272  C1300   1.449   .     S
C1273  C1275   1.406   .     A
C1274  O1350   1.388   .     S
C1274  C1276   1.403   .     A
C1275  O1342   1.388   .     S
C1275  C1277   1.403   .     A
C1276  C1282   1.396   .     A
C1276  C1278   1.408   .     A
C1277  C1279   1.408   .     A
C1277  C1284   1.396   .     A
C1278  C1280   1.415   .     A
C1278  C469    1.424   1_556 S
C1279  C1281   1.415   .     A
C1280  C1294   1.415   .     A
C1281  C1283   1.415   .     A
C1282  H1303   1.081   .     S
C1282  C473    1.382   1_556 S
C1283  H1325   1.079   .     S
C1284  H1314   1.081   .     S
C1285  H1310   1.113   .     S
C1285  C1286   1.500   .     S
C1285  H1311   1.113   .     S
C1286  H1308   1.107   .     S
C1286  H1309   1.109   .     S
C1286  H1307   1.107   .     S
C1287  H1317   1.113   .     S
C1287  H1316   1.113   .     S
C1287  C1288   1.500   .     S
C1288  H1315   1.109   .     S
C1288  H1313   1.107   .     S
C1288  H1312   1.107   .     S
C1289  H1319   1.117   .     S
C1289  O1350   1.417   .     S
C1289  C1290   1.529   .     S
C1289  H1318   1.111   .     S
C1290  C1291   1.526   .     S
C1290  H1320   1.107   .     S
C1290  H1321   1.110   .     S
C1291  H1322   1.111   .     S
C1291  H1324   1.110   .     S
C1292  H1327   1.117   .     S
C1292  H1326   1.111   .     S
C1292  O1342   1.417   .     S
C1292  C1293   1.529   .     S
C1293  H1329   1.110   .     S
C1293  C1295   1.526   .     S
C1293  H1328   1.107   .     S
C1294  H1333   1.079   .     S
C1294  C474    1.382   1_556 S
C1295  H1330   1.111   .     S
C1295  H1332   1.110   .     S
C1295  H1151   1.111   1_655 S
C1296  H1334   1.083   .     S
C1297  C1300   1.401   .     A
C1297  H1335   1.083   .     S
C1297  C1119   1.382   1_655 S
C1298  H1336   1.083   .     S
C1298  C1300   1.401   .     A
C1298  C1116   1.382   1_655 S
C1299  H1337   1.083   .     S
Cu1301 Cu1302  2.673   .     S
Cu1301 O1346   1.987   .     S
Cu1301 O1344   1.962   .     S
Cu1301 O1341   1.962   .     S
Cu1301 O1348   1.987   .     S
Cu1301 N1339   2.009   .     S
Cu1302 N1340   2.009   .     S
Cu1302 O1345   1.962   .     S
Cu1302 O1343   1.962   .     S
Cu1302 O1349   1.987   .     S
Cu1302 O1347   1.987   .     S
H1323  C1111   1.111   1_655 S
C1351  C1352   1.449   .     S
C1351  O1431   1.290   .     A
C1351  O1435   1.290   .     A
C1352  C1389   1.401   .     A
C1352  C1386   1.401   .     A
C1353  N1430   1.367   .     A
C1353  H1428   1.082   .     S
C1354  N1429   1.367   .     A
C1354  H1394   1.082   .     S
C1354  C815    1.416   1_565 S
C1355  H1395   1.082   .     S
C1355  N1430   1.367   .     A
C1356  H1396   1.082   .     S
C1356  N1429   1.367   .     A
C1356  C813    1.416   1_565 S
C1357  O1436   1.296   .     A
C1357  O1439   1.296   .     A
C1357  C1363   1.475   .     S
C1358  O1438   1.296   .     A
C1358  O1437   1.296   .     A
C1358  C1361   1.475   .     S
C1359  C1375   1.534   .     S
C1359  C1370   1.427   .     A
C1359  C1361   1.439   .     A
C1360  C1377   1.534   .     S
C1360  C1371   1.427   .     A
C1360  C1363   1.439   .     A
C1361  C1364   1.406   .     A
C1362  O1434   1.290   .     A
C1362  O1433   1.290   .     A
C1362  C1390   1.449   .     S
C1363  C1365   1.406   .     A
C1364  O1440   1.388   .     S
C1364  C1366   1.403   .     A
C1365  O1432   1.388   .     S
C1365  C1367   1.403   .     A
C1366  C1372   1.396   .     A
C1366  C1368   1.408   .     A
C1367  C1369   1.408   .     A
C1367  C1374   1.396   .     A
C1368  C1370   1.415   .     A
C1368  C559    1.424   1_556 S
C1369  C1371   1.415   .     A
C1370  C1384   1.415   .     A
C1371  C1373   1.415   .     A
C1372  H1393   1.081   .     S
C1372  C563    1.382   1_556 S
C1373  H1415   1.079   .     S
C1374  H1404   1.081   .     S
C1375  H1400   1.113   .     S
C1375  C1376   1.500   .     S
C1375  H1401   1.113   .     S
C1376  H1398   1.107   .     S
C1376  H1399   1.109   .     S
C1376  H1397   1.107   .     S
C1377  H1407   1.113   .     S
C1377  H1406   1.113   .     S
C1377  C1378   1.500   .     S
C1378  H1405   1.109   .     S
C1378  H1403   1.107   .     S
C1378  H1402   1.107   .     S
C1379  H1409   1.117   .     S
C1379  O1440   1.417   .     S
C1379  C1380   1.529   .     S
C1379  H1408   1.111   .     S
C1380  C1381   1.526   .     S
C1380  H1410   1.107   .     S
C1380  H1411   1.110   .     S
C1381  H1412   1.111   .     S
C1381  H1414   1.110   .     S
C1381  H1593   1.111   1_455 S
C1382  H1417   1.117   .     S
C1382  H1416   1.111   .     S
C1382  O1432   1.417   .     S
C1382  C1383   1.529   .     S
C1383  H1419   1.110   .     S
C1383  C1385   1.526   .     S
C1383  H1418   1.107   .     S
C1384  H1423   1.079   .     S
C1384  C564    1.382   1_556 S
C1385  H1420   1.111   .     S
C1385  H1422   1.110   .     S
C1385  H1511   1.111   .     S
C1386  H1424   1.083   .     S
C1386  C1568   1.382   1_455 S
C1387  C1390   1.401   .     A
C1387  H1425   1.083   .     S
C1387  C1479   1.382   .     S
C1388  H1426   1.083   .     S
C1388  C1390   1.401   .     A
C1388  C1476   1.382   .     S
C1389  H1427   1.083   .     S
C1389  C1567   1.382   1_455 S
Cu1391 Cu1392  2.673   .     S
Cu1391 O1436   1.987   .     S
Cu1391 O1434   1.962   .     S
Cu1391 O1431   1.962   .     S
Cu1391 O1438   1.987   .     S
Cu1391 N1429   2.009   .     S
Cu1392 N1430   2.009   .     S
Cu1392 O1435   1.962   .     S
Cu1392 O1433   1.962   .     S
Cu1392 O1439   1.987   .     S
Cu1392 O1437   1.987   .     S
H1413  C1471   1.111   .     S
H1421  C1565   1.111   1_455 S
C1441  C1442   1.449   .     S
C1441  O1521   1.290   .     A
C1441  O1525   1.290   .     A
C1442  C1479   1.401   .     A
C1442  C1476   1.401   .     A
C1443  N1520   1.367   .     A
C1443  H1518   1.082   .     S
C1444  N1519   1.367   .     A
C1444  H1484   1.082   .     S
C1444  C905    1.416   1_565 S
C1445  H1485   1.082   .     S
C1445  N1520   1.367   .     A
C1446  H1486   1.082   .     S
C1446  N1519   1.367   .     A
C1446  C903    1.416   1_565 S
C1447  O1526   1.296   .     A
C1447  O1529   1.296   .     A
C1447  C1453   1.475   .     S
C1448  O1528   1.296   .     A
C1448  O1527   1.296   .     A
C1448  C1451   1.475   .     S
C1449  C1465   1.534   .     S
C1449  C1460   1.427   .     A
C1449  C1451   1.439   .     A
C1450  C1467   1.534   .     S
C1450  C1461   1.427   .     A
C1450  C1453   1.439   .     A
C1451  C1454   1.406   .     A
C1452  O1524   1.290   .     A
C1452  O1523   1.290   .     A
C1452  C1480   1.449   .     S
C1453  C1455   1.406   .     A
C1454  O1530   1.388   .     S
C1454  C1456   1.403   .     A
C1455  O1522   1.388   .     S
C1455  C1457   1.403   .     A
C1456  C1462   1.396   .     A
C1456  C1458   1.408   .     A
C1457  C1459   1.408   .     A
C1457  C1464   1.396   .     A
C1458  C1460   1.415   .     A
C1458  C649    1.424   1_556 S
C1459  C1461   1.415   .     A
C1460  C1474   1.415   .     A
C1461  C1463   1.415   .     A
C1462  H1483   1.081   .     S
C1462  C653    1.382   1_556 S
C1463  H1505   1.079   .     S
C1464  H1494   1.081   .     S
C1465  H1490   1.113   .     S
C1465  C1466   1.500   .     S
C1465  H1491   1.113   .     S
C1466  H1488   1.107   .     S
C1466  H1489   1.109   .     S
C1466  H1487   1.107   .     S
C1467  H1497   1.113   .     S
C1467  H1496   1.113   .     S
C1467  C1468   1.500   .     S
C1468  H1495   1.109   .     S
C1468  H1493   1.107   .     S
C1468  H1492   1.107   .     S
C1469  H1499   1.117   .     S
C1469  O1530   1.417   .     S
C1469  C1470   1.529   .     S
C1469  H1498   1.111   .     S
C1470  C1471   1.526   .     S
C1470  H1500   1.107   .     S
C1470  H1501   1.110   .     S
C1471  H1502   1.111   .     S
C1471  H1504   1.110   .     S
C1472  H1507   1.117   .     S
C1472  H1506   1.111   .     S
C1472  O1522   1.417   .     S
C1472  C1473   1.529   .     S
C1473  H1509   1.110   .     S
C1473  C1475   1.526   .     S
C1473  H1508   1.107   .     S
C1474  H1513   1.079   .     S
C1474  C654    1.382   1_556 S
C1475  H1510   1.111   .     S
C1475  H1512   1.110   .     S
C1475  H1601   1.111   .     S
C1476  H1514   1.083   .     S
C1477  C1480   1.401   .     A
C1477  H1515   1.083   .     S
C1477  C1569   1.382   .     S
C1478  H1516   1.083   .     S
C1478  C1480   1.401   .     A
C1478  C1566   1.382   .     S
C1479  H1517   1.083   .     S
Cu1481 Cu1482  2.673   .     S
Cu1481 O1526   1.987   .     S
Cu1481 O1524   1.962   .     S
Cu1481 O1521   1.962   .     S
Cu1481 O1528   1.987   .     S
Cu1481 N1519   2.009   .     S
Cu1482 N1520   2.009   .     S
Cu1482 O1525   1.962   .     S
Cu1482 O1523   1.962   .     S
Cu1482 O1529   1.987   .     S
Cu1482 O1527   1.987   .     S
H1503  C1561   1.111   .     S
C1531  C1532   1.449   .     S
C1531  O1611   1.290   .     A
C1531  O1615   1.290   .     A
C1532  C1569   1.401   .     A
C1532  C1566   1.401   .     A
C1533  N1610   1.367   .     A
C1533  H1608   1.082   .     S
C1534  N1609   1.367   .     A
C1534  H1574   1.082   .     S
C1534  C995    1.416   1_565 S
C1535  H1575   1.082   .     S
C1535  N1610   1.367   .     A
C1536  H1576   1.082   .     S
C1536  N1609   1.367   .     A
C1536  C993    1.416   1_565 S
C1537  O1616   1.296   .     A
C1537  O1619   1.296   .     A
C1537  C1543   1.475   .     S
C1538  O1618   1.296   .     A
C1538  O1617   1.296   .     A
C1538  C1541   1.475   .     S
C1539  C1555   1.534   .     S
C1539  C1550   1.427   .     A
C1539  C1541   1.439   .     A
C1540  C1557   1.534   .     S
C1540  C1551   1.427   .     A
C1540  C1543   1.439   .     A
C1541  C1544   1.406   .     A
C1542  O1614   1.290   .     A
C1542  O1613   1.290   .     A
C1542  C1570   1.449   .     S
C1543  C1545   1.406   .     A
C1544  O1620   1.388   .     S
C1544  C1546   1.403   .     A
C1545  O1612   1.388   .     S
C1545  C1547   1.403   .     A
C1546  C1552   1.396   .     A
C1546  C1548   1.408   .     A
C1547  C1549   1.408   .     A
C1547  C1554   1.396   .     A
C1548  C1550   1.415   .     A
C1548  C739    1.424   1_556 S
C1549  C1551   1.415   .     A
C1550  C1564   1.415   .     A
C1551  C1553   1.415   .     A
C1552  H1573   1.081   .     S
C1552  C743    1.382   1_556 S
C1553  H1595   1.079   .     S
C1554  H1584   1.081   .     S
C1555  H1580   1.113   .     S
C1555  C1556   1.500   .     S
C1555  H1581   1.113   .     S
C1556  H1578   1.107   .     S
C1556  H1579   1.109   .     S
C1556  H1577   1.107   .     S
C1557  H1587   1.113   .     S
C1557  H1586   1.113   .     S
C1557  C1558   1.500   .     S
C1558  H1585   1.109   .     S
C1558  H1583   1.107   .     S
C1558  H1582   1.107   .     S
C1559  H1589   1.117   .     S
C1559  O1620   1.417   .     S
C1559  C1560   1.529   .     S
C1559  H1588   1.111   .     S
C1560  C1561   1.526   .     S
C1560  H1590   1.107   .     S
C1560  H1591   1.110   .     S
C1561  H1592   1.111   .     S
C1561  H1594   1.110   .     S
C1562  H1597   1.117   .     S
C1562  H1596   1.111   .     S
C1562  O1612   1.417   .     S
C1562  C1563   1.529   .     S
C1563  H1599   1.110   .     S
C1563  C1565   1.526   .     S
C1563  H1598   1.107   .     S
C1564  H1603   1.079   .     S
C1564  C744    1.382   1_556 S
C1565  H1600   1.111   .     S
C1565  H1602   1.110   .     S
C1565  H1421   1.111   1_655 S
C1566  H1604   1.083   .     S
C1567  C1570   1.401   .     A
C1567  H1605   1.083   .     S
C1567  C1389   1.382   1_655 S
C1568  H1606   1.083   .     S
C1568  C1570   1.401   .     A
C1568  C1386   1.382   1_655 S
C1569  H1607   1.083   .     S
Cu1571 Cu1572  2.673   .     S
Cu1571 O1616   1.987   .     S
Cu1571 O1614   1.962   .     S
Cu1571 O1611   1.962   .     S
Cu1571 O1618   1.987   .     S
Cu1571 N1609   2.009   .     S
Cu1572 N1610   2.009   .     S
Cu1572 O1615   1.962   .     S
Cu1572 O1613   1.962   .     S
Cu1572 O1619   1.987   .     S
Cu1572 O1617   1.987   .     S
H1593  C1381   1.111   1_655 S
