data_str_m2_o1_o17_pcu_sym.209
_audit_creation_date              2020-01-03
_audit_creation_method            'Materials Studio'
_symmetry_space_group_name_H-M    'P1'
_symmetry_Int_Tables_number       1
_symmetry_cell_setting            triclinic
loop_
_symmetry_equiv_pos_as_xyz
  x,y,z
_cell_length_a                    32.8469
_cell_length_b                    28.5650
_cell_length_c                    30.0745
_cell_angle_alpha                 90.6564
_cell_angle_beta                  90.8122
_cell_angle_gamma                 90.2481
loop_
_atom_site_label
_atom_site_type_symbol
_atom_site_fract_x
_atom_site_fract_y
_atom_site_fract_z
_atom_site_U_iso_or_equiv
_atom_site_adp_type
_atom_site_occupancy
O1     O     0.10655   0.20625   0.25000   0.00000  Uiso   1.00
O2     O     0.22679   0.12709   0.25001   0.00000  Uiso   1.00
O3     O     0.22679   0.20625   0.25001   0.00000  Uiso   1.00
O4     O     0.10655   0.12709   0.25000   0.00000  Uiso   1.00
C5     C     0.08731   0.16665   0.25019   0.00000  Uiso   1.00
C6     C     0.24603   0.16683   0.25050   0.00000  Uiso   1.00
O7     O     0.16666   0.20627   0.18513   0.00000  Uiso   1.00
O8     O     0.16668   0.12707   0.31487   0.00000  Uiso   1.00
O9     O     0.16668   0.20627   0.31487   0.00000  Uiso   1.00
O10    O     0.16666   0.12707   0.18513   0.00000  Uiso   1.00
C11    C     0.16471   0.16645   0.16449   0.00000  Uiso   1.00
C12    C     0.16868   0.16688   0.33550   0.00000  Uiso   1.00
Cu13   Cu    0.16667   0.21355   0.25000   0.00000  Uiso   1.00
Cu14   Cu    0.16667   0.11978   0.25000   0.00000  Uiso   1.00
C15    C     0.20363   0.18495   0.40833   0.00000  Uiso   1.00
C16    C     0.12986   0.14833   0.09160   0.00000  Uiso   1.00
C17    C     0.17007   0.16692   0.38384   0.00000  Uiso   1.00
C18    C     0.16337   0.16644   0.11613   0.00000  Uiso   1.00
C19    C     0.13651   0.14847   0.40509   0.00000  Uiso   1.00
C20    C     0.19688   0.18504   0.09489   0.00000  Uiso   1.00
C21    C     0.13360   0.15081   0.45122   0.00000  Uiso   1.00
C22    C     0.19981   0.18271   0.04875   0.00000  Uiso   1.00
C23    C     0.16780   0.16620   0.47662   0.00000  Uiso   1.00
C24    C     0.16562   0.16728   0.02335   0.00000  Uiso   1.00
C25    C     0.20448   0.17931   0.45527   0.00000  Uiso   1.00
C26    C     0.12897   0.15410   0.04469   0.00000  Uiso   1.00
C27    C     0.09661   0.14025   0.47210   0.00000  Uiso   1.00
C28    C     0.23679   0.19330   0.02788   0.00000  Uiso   1.00
C29    C     0.09321   0.14709   0.01822   0.00000  Uiso   1.00
C30    C     0.24022   0.18636   0.48177   0.00000  Uiso   1.00
H31    H     0.11164   0.13537   0.38454   0.00000  Uiso   1.00
H32    H     0.22173   0.19820   0.11546   0.00000  Uiso   1.00
C33    C     0.02040   0.12453   0.24691   0.00000  Uiso   1.00
C34    C     0.31272   0.20967   0.24716   0.00000  Uiso   1.00
C35    C     0.31242   0.12498   0.25634   0.00000  Uiso   1.00
C36    C     0.02121   0.20949   0.25578   0.00000  Uiso   1.00
C37    C     0.29068   0.16723   0.25134   0.00000  Uiso   1.00
C38    C     0.04268   0.16685   0.25085   0.00000  Uiso   1.00
C39    C     0.14996   0.02419   0.21532   0.00000  Uiso   1.00
C40    C     0.18361   0.30911   0.28456   0.00000  Uiso   1.00
C41    C     0.18327   0.02527   0.28478   0.00000  Uiso   1.00
C42    C     0.14961   0.30802   0.21546   0.00000  Uiso   1.00
H43    H     0.13649   0.04214   0.18754   0.00000  Uiso   1.00
H44    H     0.19750   0.29113   0.31210   0.00000  Uiso   1.00
H45    H     0.19660   0.04414   0.31275   0.00000  Uiso   1.00
H46    H     0.13561   0.28910   0.18787   0.00000  Uiso   1.00
N47    N     0.16667   0.28402   0.25000   0.00000  Uiso   1.00
N48    N     0.16667   0.04931   0.25000   0.00000  Uiso   1.00
C49    C     0.23525   0.21373   0.38433   0.00000  Uiso   1.00
H50    H     0.25471   0.23497   0.40713   0.00000  Uiso   1.00
H51    H     0.25416   0.19080   0.36294   0.00000  Uiso   1.00
H52    H     0.22011   0.24012   0.36340   0.00000  Uiso   1.00
C53    C     0.09837   0.11928   0.11550   0.00000  Uiso   1.00
H54    H     0.07889   0.09813   0.09264   0.00000  Uiso   1.00
H55    H     0.11365   0.09281   0.13620   0.00000  Uiso   1.00
H56    H     0.07945   0.14201   0.13708   0.00000  Uiso   1.00
I57    I     0.04424   0.11576   0.43466   0.00000  Uiso   1.00
I58    I     0.28912   0.21793   0.06530   0.00000  Uiso   1.00
C59    C     0.05117   0.15612   0.03624   0.00000  Uiso   1.00
H60    H     0.03472   0.18054   0.01394   0.00000  Uiso   1.00
H61    H     0.03350   0.12301   0.03816   0.00000  Uiso   1.00
H62    H     0.05211   0.17414   0.06906   0.00000  Uiso   1.00
C63    C     0.28227   0.17722   0.46383   0.00000  Uiso   1.00
H64    H     0.29870   0.15289   0.48624   0.00000  Uiso   1.00
H65    H     0.28135   0.15905   0.43108   0.00000  Uiso   1.00
H66    H     0.29996   0.21031   0.46180   0.00000  Uiso   1.00
I67    I     0.04396   0.06042   0.21999   0.00000  Uiso   1.00
I68    I     0.28734   0.27359   0.22189   0.00000  Uiso   1.00
I69    I     0.28816   0.06333   0.28644   0.00000  Uiso   1.00
I70    I     0.04745   0.27279   0.28340   0.00000  Uiso   1.00
O71    O     0.43988   0.20625   0.25000   0.00000  Uiso   1.00
O72    O     0.56012   0.12709   0.25001   0.00000  Uiso   1.00
O73    O     0.56012   0.20625   0.25001   0.00000  Uiso   1.00
O74    O     0.43988   0.12709   0.25000   0.00000  Uiso   1.00
C75    C     0.42065   0.16665   0.25019   0.00000  Uiso   1.00
C76    C     0.57936   0.16683   0.25050   0.00000  Uiso   1.00
O77    O     0.49999   0.20627   0.18513   0.00000  Uiso   1.00
O78    O     0.50001   0.12707   0.31487   0.00000  Uiso   1.00
O79    O     0.50001   0.20627   0.31487   0.00000  Uiso   1.00
O80    O     0.49999   0.12707   0.18513   0.00000  Uiso   1.00
C81    C     0.49804   0.16645   0.16449   0.00000  Uiso   1.00
C82    C     0.50202   0.16688   0.33550   0.00000  Uiso   1.00
Cu83   Cu    0.50000   0.21355   0.25000   0.00000  Uiso   1.00
Cu84   Cu    0.50000   0.11978   0.25000   0.00000  Uiso   1.00
C85    C     0.53697   0.18495   0.40833   0.00000  Uiso   1.00
C86    C     0.46319   0.14833   0.09160   0.00000  Uiso   1.00
C87    C     0.50340   0.16692   0.38384   0.00000  Uiso   1.00
C88    C     0.49670   0.16644   0.11613   0.00000  Uiso   1.00
C89    C     0.46985   0.14847   0.40509   0.00000  Uiso   1.00
C90    C     0.53022   0.18504   0.09489   0.00000  Uiso   1.00
C91    C     0.46693   0.15081   0.45122   0.00000  Uiso   1.00
C92    C     0.53314   0.18271   0.04875   0.00000  Uiso   1.00
C93    C     0.50114   0.16620   0.47662   0.00000  Uiso   1.00
C94    C     0.49896   0.16728   0.02335   0.00000  Uiso   1.00
C95    C     0.53781   0.17931   0.45527   0.00000  Uiso   1.00
C96    C     0.46230   0.15410   0.04469   0.00000  Uiso   1.00
C97    C     0.42994   0.14025   0.47210   0.00000  Uiso   1.00
C98    C     0.57012   0.19330   0.02788   0.00000  Uiso   1.00
C99    C     0.42655   0.14709   0.01822   0.00000  Uiso   1.00
C100   C     0.57355   0.18636   0.48177   0.00000  Uiso   1.00
H101   H     0.44497   0.13537   0.38454   0.00000  Uiso   1.00
H102   H     0.55506   0.19820   0.11546   0.00000  Uiso   1.00
C103   C     0.35373   0.12453   0.24691   0.00000  Uiso   1.00
C104   C     0.64605   0.20967   0.24716   0.00000  Uiso   1.00
C105   C     0.64576   0.12498   0.25634   0.00000  Uiso   1.00
C106   C     0.35455   0.20949   0.25578   0.00000  Uiso   1.00
C107   C     0.62401   0.16723   0.25134   0.00000  Uiso   1.00
C108   C     0.37602   0.16685   0.25085   0.00000  Uiso   1.00
C109   C     0.48329   0.02419   0.21532   0.00000  Uiso   1.00
C110   C     0.51694   0.30911   0.28456   0.00000  Uiso   1.00
C111   C     0.51660   0.02527   0.28478   0.00000  Uiso   1.00
C112   C     0.48295   0.30802   0.21546   0.00000  Uiso   1.00
H113   H     0.46982   0.04214   0.18754   0.00000  Uiso   1.00
H114   H     0.53083   0.29113   0.31210   0.00000  Uiso   1.00
H115   H     0.52994   0.04414   0.31275   0.00000  Uiso   1.00
H116   H     0.46894   0.28910   0.18787   0.00000  Uiso   1.00
N117   N     0.50000   0.28402   0.25000   0.00000  Uiso   1.00
N118   N     0.50000   0.04931   0.25000   0.00000  Uiso   1.00
C119   C     0.56858   0.21373   0.38433   0.00000  Uiso   1.00
H120   H     0.58805   0.23497   0.40713   0.00000  Uiso   1.00
H121   H     0.58750   0.19080   0.36294   0.00000  Uiso   1.00
H122   H     0.55344   0.24012   0.36340   0.00000  Uiso   1.00
C123   C     0.43170   0.11928   0.11550   0.00000  Uiso   1.00
H124   H     0.41223   0.09813   0.09264   0.00000  Uiso   1.00
H125   H     0.44699   0.09281   0.13620   0.00000  Uiso   1.00
H126   H     0.41278   0.14201   0.13708   0.00000  Uiso   1.00
I127   I     0.37757   0.11576   0.43466   0.00000  Uiso   1.00
I128   I     0.62245   0.21793   0.06530   0.00000  Uiso   1.00
C129   C     0.38451   0.15612   0.03624   0.00000  Uiso   1.00
H130   H     0.36805   0.18054   0.01394   0.00000  Uiso   1.00
H131   H     0.36683   0.12301   0.03816   0.00000  Uiso   1.00
H132   H     0.38544   0.17414   0.06906   0.00000  Uiso   1.00
C133   C     0.61560   0.17722   0.46383   0.00000  Uiso   1.00
H134   H     0.63203   0.15289   0.48624   0.00000  Uiso   1.00
H135   H     0.61468   0.15905   0.43108   0.00000  Uiso   1.00
H136   H     0.63330   0.21031   0.46180   0.00000  Uiso   1.00
I137   I     0.37729   0.06042   0.21999   0.00000  Uiso   1.00
I138   I     0.62067   0.27359   0.22189   0.00000  Uiso   1.00
I139   I     0.62149   0.06333   0.28644   0.00000  Uiso   1.00
I140   I     0.38079   0.27279   0.28340   0.00000  Uiso   1.00
O141   O     0.77321   0.20625   0.25000   0.00000  Uiso   1.00
O142   O     0.89345   0.12709   0.25001   0.00000  Uiso   1.00
O143   O     0.89345   0.20625   0.25001   0.00000  Uiso   1.00
O144   O     0.77321   0.12709   0.25000   0.00000  Uiso   1.00
C145   C     0.75398   0.16665   0.25019   0.00000  Uiso   1.00
C146   C     0.91269   0.16683   0.25050   0.00000  Uiso   1.00
O147   O     0.83332   0.20627   0.18513   0.00000  Uiso   1.00
O148   O     0.83334   0.12707   0.31487   0.00000  Uiso   1.00
O149   O     0.83334   0.20627   0.31487   0.00000  Uiso   1.00
O150   O     0.83332   0.12707   0.18513   0.00000  Uiso   1.00
C151   C     0.83138   0.16645   0.16449   0.00000  Uiso   1.00
C152   C     0.83535   0.16688   0.33550   0.00000  Uiso   1.00
Cu153  Cu    0.83333   0.21355   0.25000   0.00000  Uiso   1.00
Cu154  Cu    0.83333   0.11978   0.25000   0.00000  Uiso   1.00
C155   C     0.87030   0.18495   0.40833   0.00000  Uiso   1.00
C156   C     0.79652   0.14833   0.09160   0.00000  Uiso   1.00
C157   C     0.83674   0.16692   0.38384   0.00000  Uiso   1.00
C158   C     0.83003   0.16644   0.11613   0.00000  Uiso   1.00
C159   C     0.80318   0.14847   0.40509   0.00000  Uiso   1.00
C160   C     0.86355   0.18504   0.09489   0.00000  Uiso   1.00
C161   C     0.80026   0.15081   0.45122   0.00000  Uiso   1.00
C162   C     0.86648   0.18271   0.04875   0.00000  Uiso   1.00
C163   C     0.83447   0.16620   0.47662   0.00000  Uiso   1.00
C164   C     0.83229   0.16728   0.02335   0.00000  Uiso   1.00
C165   C     0.87115   0.17931   0.45527   0.00000  Uiso   1.00
C166   C     0.79564   0.15410   0.04469   0.00000  Uiso   1.00
C167   C     0.76328   0.14025   0.47210   0.00000  Uiso   1.00
C168   C     0.90346   0.19330   0.02788   0.00000  Uiso   1.00
C169   C     0.75988   0.14709   0.01822   0.00000  Uiso   1.00
C170   C     0.90689   0.18636   0.48177   0.00000  Uiso   1.00
H171   H     0.77831   0.13537   0.38454   0.00000  Uiso   1.00
H172   H     0.88839   0.19820   0.11546   0.00000  Uiso   1.00
C173   C     0.68707   0.12453   0.24691   0.00000  Uiso   1.00
C174   C     0.97939   0.20967   0.24716   0.00000  Uiso   1.00
C175   C     0.97909   0.12498   0.25634   0.00000  Uiso   1.00
C176   C     0.68788   0.20949   0.25578   0.00000  Uiso   1.00
C177   C     0.95735   0.16723   0.25134   0.00000  Uiso   1.00
C178   C     0.70935   0.16685   0.25085   0.00000  Uiso   1.00
C179   C     0.81662   0.02419   0.21532   0.00000  Uiso   1.00
C180   C     0.85028   0.30911   0.28456   0.00000  Uiso   1.00
C181   C     0.84993   0.02527   0.28478   0.00000  Uiso   1.00
C182   C     0.81628   0.30802   0.21546   0.00000  Uiso   1.00
H183   H     0.80315   0.04214   0.18754   0.00000  Uiso   1.00
H184   H     0.86416   0.29113   0.31210   0.00000  Uiso   1.00
H185   H     0.86327   0.04414   0.31275   0.00000  Uiso   1.00
H186   H     0.80228   0.28910   0.18787   0.00000  Uiso   1.00
N187   N     0.83333   0.28402   0.25000   0.00000  Uiso   1.00
N188   N     0.83333   0.04931   0.25000   0.00000  Uiso   1.00
C189   C     0.90192   0.21373   0.38433   0.00000  Uiso   1.00
H190   H     0.92138   0.23497   0.40713   0.00000  Uiso   1.00
H191   H     0.92083   0.19080   0.36294   0.00000  Uiso   1.00
H192   H     0.88677   0.24012   0.36340   0.00000  Uiso   1.00
C193   C     0.76503   0.11928   0.11550   0.00000  Uiso   1.00
H194   H     0.74556   0.09813   0.09264   0.00000  Uiso   1.00
H195   H     0.78032   0.09281   0.13620   0.00000  Uiso   1.00
H196   H     0.74611   0.14201   0.13708   0.00000  Uiso   1.00
I197   I     0.71090   0.11576   0.43466   0.00000  Uiso   1.00
I198   I     0.95578   0.21793   0.06530   0.00000  Uiso   1.00
C199   C     0.71784   0.15612   0.03624   0.00000  Uiso   1.00
H200   H     0.70138   0.18054   0.01394   0.00000  Uiso   1.00
H201   H     0.70017   0.12301   0.03816   0.00000  Uiso   1.00
H202   H     0.71878   0.17414   0.06906   0.00000  Uiso   1.00
C203   C     0.94894   0.17722   0.46383   0.00000  Uiso   1.00
H204   H     0.96536   0.15289   0.48624   0.00000  Uiso   1.00
H205   H     0.94801   0.15905   0.43108   0.00000  Uiso   1.00
H206   H     0.96663   0.21031   0.46180   0.00000  Uiso   1.00
I207   I     0.71063   0.06042   0.21999   0.00000  Uiso   1.00
I208   I     0.95400   0.27359   0.22189   0.00000  Uiso   1.00
I209   I     0.95483   0.06333   0.28644   0.00000  Uiso   1.00
I210   I     0.71412   0.27279   0.28340   0.00000  Uiso   1.00
O211   O     0.10655   0.53958   0.25000   0.00000  Uiso   1.00
O212   O     0.22679   0.46042   0.25001   0.00000  Uiso   1.00
O213   O     0.22679   0.53958   0.25001   0.00000  Uiso   1.00
O214   O     0.10655   0.46042   0.25000   0.00000  Uiso   1.00
C215   C     0.08731   0.49998   0.25019   0.00000  Uiso   1.00
C216   C     0.24603   0.50016   0.25050   0.00000  Uiso   1.00
O217   O     0.16666   0.53960   0.18513   0.00000  Uiso   1.00
O218   O     0.16668   0.46040   0.31487   0.00000  Uiso   1.00
O219   O     0.16668   0.53960   0.31487   0.00000  Uiso   1.00
O220   O     0.16666   0.46040   0.18513   0.00000  Uiso   1.00
C221   C     0.16471   0.49978   0.16449   0.00000  Uiso   1.00
C222   C     0.16868   0.50022   0.33550   0.00000  Uiso   1.00
Cu223  Cu    0.16667   0.54689   0.25000   0.00000  Uiso   1.00
Cu224  Cu    0.16667   0.45311   0.25000   0.00000  Uiso   1.00
C225   C     0.20363   0.51828   0.40833   0.00000  Uiso   1.00
C226   C     0.12986   0.48167   0.09160   0.00000  Uiso   1.00
C227   C     0.17007   0.50025   0.38384   0.00000  Uiso   1.00
C228   C     0.16337   0.49977   0.11613   0.00000  Uiso   1.00
C229   C     0.13651   0.48180   0.40509   0.00000  Uiso   1.00
C230   C     0.19688   0.51837   0.09489   0.00000  Uiso   1.00
C231   C     0.13360   0.48414   0.45122   0.00000  Uiso   1.00
C232   C     0.19981   0.51604   0.04875   0.00000  Uiso   1.00
C233   C     0.16780   0.49954   0.47662   0.00000  Uiso   1.00
C234   C     0.16562   0.50062   0.02335   0.00000  Uiso   1.00
C235   C     0.20448   0.51264   0.45527   0.00000  Uiso   1.00
C236   C     0.12897   0.48744   0.04469   0.00000  Uiso   1.00
C237   C     0.09661   0.47358   0.47210   0.00000  Uiso   1.00
C238   C     0.23679   0.52664   0.02788   0.00000  Uiso   1.00
C239   C     0.09321   0.48043   0.01822   0.00000  Uiso   1.00
C240   C     0.24022   0.51969   0.48177   0.00000  Uiso   1.00
H241   H     0.11164   0.46870   0.38454   0.00000  Uiso   1.00
H242   H     0.22173   0.53154   0.11546   0.00000  Uiso   1.00
C243   C     0.02040   0.45787   0.24691   0.00000  Uiso   1.00
C244   C     0.31272   0.54300   0.24716   0.00000  Uiso   1.00
C245   C     0.31242   0.45832   0.25634   0.00000  Uiso   1.00
C246   C     0.02121   0.54282   0.25578   0.00000  Uiso   1.00
C247   C     0.29068   0.50056   0.25134   0.00000  Uiso   1.00
C248   C     0.04268   0.50019   0.25085   0.00000  Uiso   1.00
C249   C     0.14996   0.35752   0.21532   0.00000  Uiso   1.00
C250   C     0.18361   0.64244   0.28456   0.00000  Uiso   1.00
C251   C     0.18327   0.35860   0.28478   0.00000  Uiso   1.00
C252   C     0.14961   0.64135   0.21546   0.00000  Uiso   1.00
H253   H     0.13649   0.37548   0.18754   0.00000  Uiso   1.00
H254   H     0.19750   0.62446   0.31210   0.00000  Uiso   1.00
H255   H     0.19660   0.37748   0.31275   0.00000  Uiso   1.00
H256   H     0.13561   0.62244   0.18787   0.00000  Uiso   1.00
N257   N     0.16667   0.61736   0.25000   0.00000  Uiso   1.00
N258   N     0.16667   0.38264   0.25000   0.00000  Uiso   1.00
C259   C     0.23525   0.54707   0.38433   0.00000  Uiso   1.00
H260   H     0.25471   0.56830   0.40713   0.00000  Uiso   1.00
H261   H     0.25416   0.52413   0.36294   0.00000  Uiso   1.00
H262   H     0.22011   0.57346   0.36340   0.00000  Uiso   1.00
C263   C     0.09837   0.45262   0.11550   0.00000  Uiso   1.00
H264   H     0.07889   0.43146   0.09264   0.00000  Uiso   1.00
H265   H     0.11365   0.42614   0.13620   0.00000  Uiso   1.00
H266   H     0.07945   0.47534   0.13708   0.00000  Uiso   1.00
I267   I     0.04424   0.44909   0.43466   0.00000  Uiso   1.00
I268   I     0.28912   0.55126   0.06530   0.00000  Uiso   1.00
C269   C     0.05117   0.48946   0.03624   0.00000  Uiso   1.00
H270   H     0.03472   0.51387   0.01394   0.00000  Uiso   1.00
H271   H     0.03350   0.45634   0.03816   0.00000  Uiso   1.00
H272   H     0.05211   0.50747   0.06906   0.00000  Uiso   1.00
C273   C     0.28227   0.51055   0.46383   0.00000  Uiso   1.00
H274   H     0.29870   0.48622   0.48624   0.00000  Uiso   1.00
H275   H     0.28135   0.49238   0.43108   0.00000  Uiso   1.00
H276   H     0.29996   0.54364   0.46180   0.00000  Uiso   1.00
I277   I     0.04396   0.39376   0.21999   0.00000  Uiso   1.00
I278   I     0.28734   0.60693   0.22189   0.00000  Uiso   1.00
I279   I     0.28816   0.39666   0.28644   0.00000  Uiso   1.00
I280   I     0.04745   0.60613   0.28340   0.00000  Uiso   1.00
O281   O     0.43988   0.53958   0.25000   0.00000  Uiso   1.00
O282   O     0.56012   0.46042   0.25001   0.00000  Uiso   1.00
O283   O     0.56012   0.53958   0.25001   0.00000  Uiso   1.00
O284   O     0.43988   0.46042   0.25000   0.00000  Uiso   1.00
C285   C     0.42065   0.49998   0.25019   0.00000  Uiso   1.00
C286   C     0.57936   0.50016   0.25050   0.00000  Uiso   1.00
O287   O     0.49999   0.53960   0.18513   0.00000  Uiso   1.00
O288   O     0.50001   0.46040   0.31487   0.00000  Uiso   1.00
O289   O     0.50001   0.53960   0.31487   0.00000  Uiso   1.00
O290   O     0.49999   0.46040   0.18513   0.00000  Uiso   1.00
C291   C     0.49804   0.49978   0.16449   0.00000  Uiso   1.00
C292   C     0.50202   0.50022   0.33550   0.00000  Uiso   1.00
Cu293  Cu    0.50000   0.54689   0.25000   0.00000  Uiso   1.00
Cu294  Cu    0.50000   0.45311   0.25000   0.00000  Uiso   1.00
C295   C     0.53697   0.51828   0.40833   0.00000  Uiso   1.00
C296   C     0.46319   0.48167   0.09160   0.00000  Uiso   1.00
C297   C     0.50340   0.50025   0.38384   0.00000  Uiso   1.00
C298   C     0.49670   0.49977   0.11613   0.00000  Uiso   1.00
C299   C     0.46985   0.48180   0.40509   0.00000  Uiso   1.00
C300   C     0.53022   0.51837   0.09489   0.00000  Uiso   1.00
C301   C     0.46693   0.48414   0.45122   0.00000  Uiso   1.00
C302   C     0.53314   0.51604   0.04875   0.00000  Uiso   1.00
C303   C     0.50114   0.49954   0.47662   0.00000  Uiso   1.00
C304   C     0.49896   0.50062   0.02335   0.00000  Uiso   1.00
C305   C     0.53781   0.51264   0.45527   0.00000  Uiso   1.00
C306   C     0.46230   0.48744   0.04469   0.00000  Uiso   1.00
C307   C     0.42994   0.47358   0.47210   0.00000  Uiso   1.00
C308   C     0.57012   0.52664   0.02788   0.00000  Uiso   1.00
C309   C     0.42655   0.48043   0.01822   0.00000  Uiso   1.00
C310   C     0.57355   0.51969   0.48177   0.00000  Uiso   1.00
H311   H     0.44497   0.46870   0.38454   0.00000  Uiso   1.00
H312   H     0.55506   0.53154   0.11546   0.00000  Uiso   1.00
C313   C     0.35373   0.45787   0.24691   0.00000  Uiso   1.00
C314   C     0.64605   0.54300   0.24716   0.00000  Uiso   1.00
C315   C     0.64576   0.45832   0.25634   0.00000  Uiso   1.00
C316   C     0.35455   0.54282   0.25578   0.00000  Uiso   1.00
C317   C     0.62401   0.50056   0.25134   0.00000  Uiso   1.00
C318   C     0.37602   0.50019   0.25085   0.00000  Uiso   1.00
C319   C     0.48329   0.35752   0.21532   0.00000  Uiso   1.00
C320   C     0.51694   0.64244   0.28456   0.00000  Uiso   1.00
C321   C     0.51660   0.35860   0.28478   0.00000  Uiso   1.00
C322   C     0.48295   0.64135   0.21546   0.00000  Uiso   1.00
H323   H     0.46982   0.37548   0.18754   0.00000  Uiso   1.00
H324   H     0.53083   0.62446   0.31210   0.00000  Uiso   1.00
H325   H     0.52994   0.37748   0.31275   0.00000  Uiso   1.00
H326   H     0.46894   0.62244   0.18787   0.00000  Uiso   1.00
N327   N     0.50000   0.61736   0.25000   0.00000  Uiso   1.00
N328   N     0.50000   0.38264   0.25000   0.00000  Uiso   1.00
C329   C     0.56858   0.54707   0.38433   0.00000  Uiso   1.00
H330   H     0.58805   0.56830   0.40713   0.00000  Uiso   1.00
H331   H     0.58750   0.52413   0.36294   0.00000  Uiso   1.00
H332   H     0.55344   0.57346   0.36340   0.00000  Uiso   1.00
C333   C     0.43170   0.45262   0.11550   0.00000  Uiso   1.00
H334   H     0.41223   0.43146   0.09264   0.00000  Uiso   1.00
H335   H     0.44699   0.42614   0.13620   0.00000  Uiso   1.00
H336   H     0.41278   0.47534   0.13708   0.00000  Uiso   1.00
I337   I     0.37757   0.44909   0.43466   0.00000  Uiso   1.00
I338   I     0.62245   0.55126   0.06530   0.00000  Uiso   1.00
C339   C     0.38451   0.48946   0.03624   0.00000  Uiso   1.00
H340   H     0.36805   0.51387   0.01394   0.00000  Uiso   1.00
H341   H     0.36683   0.45634   0.03816   0.00000  Uiso   1.00
H342   H     0.38544   0.50747   0.06906   0.00000  Uiso   1.00
C343   C     0.61560   0.51055   0.46383   0.00000  Uiso   1.00
H344   H     0.63203   0.48622   0.48624   0.00000  Uiso   1.00
H345   H     0.61468   0.49238   0.43108   0.00000  Uiso   1.00
H346   H     0.63330   0.54364   0.46180   0.00000  Uiso   1.00
I347   I     0.37729   0.39376   0.21999   0.00000  Uiso   1.00
I348   I     0.62067   0.60693   0.22189   0.00000  Uiso   1.00
I349   I     0.62149   0.39666   0.28644   0.00000  Uiso   1.00
I350   I     0.38079   0.60613   0.28340   0.00000  Uiso   1.00
O351   O     0.77321   0.53958   0.25000   0.00000  Uiso   1.00
O352   O     0.89345   0.46042   0.25001   0.00000  Uiso   1.00
O353   O     0.89345   0.53958   0.25001   0.00000  Uiso   1.00
O354   O     0.77321   0.46042   0.25000   0.00000  Uiso   1.00
C355   C     0.75398   0.49998   0.25019   0.00000  Uiso   1.00
C356   C     0.91269   0.50016   0.25050   0.00000  Uiso   1.00
O357   O     0.83332   0.53960   0.18513   0.00000  Uiso   1.00
O358   O     0.83334   0.46040   0.31487   0.00000  Uiso   1.00
O359   O     0.83334   0.53960   0.31487   0.00000  Uiso   1.00
O360   O     0.83332   0.46040   0.18513   0.00000  Uiso   1.00
C361   C     0.83138   0.49978   0.16449   0.00000  Uiso   1.00
C362   C     0.83535   0.50022   0.33550   0.00000  Uiso   1.00
Cu363  Cu    0.83333   0.54689   0.25000   0.00000  Uiso   1.00
Cu364  Cu    0.83333   0.45311   0.25000   0.00000  Uiso   1.00
C365   C     0.87030   0.51828   0.40833   0.00000  Uiso   1.00
C366   C     0.79652   0.48167   0.09160   0.00000  Uiso   1.00
C367   C     0.83674   0.50025   0.38384   0.00000  Uiso   1.00
C368   C     0.83003   0.49977   0.11613   0.00000  Uiso   1.00
C369   C     0.80318   0.48180   0.40509   0.00000  Uiso   1.00
C370   C     0.86355   0.51837   0.09489   0.00000  Uiso   1.00
C371   C     0.80026   0.48414   0.45122   0.00000  Uiso   1.00
C372   C     0.86648   0.51604   0.04875   0.00000  Uiso   1.00
C373   C     0.83447   0.49954   0.47662   0.00000  Uiso   1.00
C374   C     0.83229   0.50062   0.02335   0.00000  Uiso   1.00
C375   C     0.87115   0.51264   0.45527   0.00000  Uiso   1.00
C376   C     0.79564   0.48744   0.04469   0.00000  Uiso   1.00
C377   C     0.76328   0.47358   0.47210   0.00000  Uiso   1.00
C378   C     0.90346   0.52664   0.02788   0.00000  Uiso   1.00
C379   C     0.75988   0.48043   0.01822   0.00000  Uiso   1.00
C380   C     0.90689   0.51969   0.48177   0.00000  Uiso   1.00
H381   H     0.77831   0.46870   0.38454   0.00000  Uiso   1.00
H382   H     0.88839   0.53154   0.11546   0.00000  Uiso   1.00
C383   C     0.68707   0.45787   0.24691   0.00000  Uiso   1.00
C384   C     0.97939   0.54300   0.24716   0.00000  Uiso   1.00
C385   C     0.97909   0.45832   0.25634   0.00000  Uiso   1.00
C386   C     0.68788   0.54282   0.25578   0.00000  Uiso   1.00
C387   C     0.95735   0.50056   0.25134   0.00000  Uiso   1.00
C388   C     0.70935   0.50019   0.25085   0.00000  Uiso   1.00
C389   C     0.81662   0.35752   0.21532   0.00000  Uiso   1.00
C390   C     0.85028   0.64244   0.28456   0.00000  Uiso   1.00
C391   C     0.84993   0.35860   0.28478   0.00000  Uiso   1.00
C392   C     0.81628   0.64135   0.21546   0.00000  Uiso   1.00
H393   H     0.80315   0.37548   0.18754   0.00000  Uiso   1.00
H394   H     0.86416   0.62446   0.31210   0.00000  Uiso   1.00
H395   H     0.86327   0.37748   0.31275   0.00000  Uiso   1.00
H396   H     0.80228   0.62244   0.18787   0.00000  Uiso   1.00
N397   N     0.83333   0.61736   0.25000   0.00000  Uiso   1.00
N398   N     0.83333   0.38264   0.25000   0.00000  Uiso   1.00
C399   C     0.90192   0.54707   0.38433   0.00000  Uiso   1.00
H400   H     0.92138   0.56830   0.40713   0.00000  Uiso   1.00
H401   H     0.92083   0.52413   0.36294   0.00000  Uiso   1.00
H402   H     0.88677   0.57346   0.36340   0.00000  Uiso   1.00
C403   C     0.76503   0.45262   0.11550   0.00000  Uiso   1.00
H404   H     0.74556   0.43146   0.09264   0.00000  Uiso   1.00
H405   H     0.78032   0.42614   0.13620   0.00000  Uiso   1.00
H406   H     0.74611   0.47534   0.13708   0.00000  Uiso   1.00
I407   I     0.71090   0.44909   0.43466   0.00000  Uiso   1.00
I408   I     0.95578   0.55126   0.06530   0.00000  Uiso   1.00
C409   C     0.71784   0.48946   0.03624   0.00000  Uiso   1.00
H410   H     0.70138   0.51387   0.01394   0.00000  Uiso   1.00
H411   H     0.70017   0.45634   0.03816   0.00000  Uiso   1.00
H412   H     0.71878   0.50747   0.06906   0.00000  Uiso   1.00
C413   C     0.94894   0.51055   0.46383   0.00000  Uiso   1.00
H414   H     0.96536   0.48622   0.48624   0.00000  Uiso   1.00
H415   H     0.94801   0.49238   0.43108   0.00000  Uiso   1.00
H416   H     0.96663   0.54364   0.46180   0.00000  Uiso   1.00
I417   I     0.71063   0.39376   0.21999   0.00000  Uiso   1.00
I418   I     0.95400   0.60693   0.22189   0.00000  Uiso   1.00
I419   I     0.95483   0.39666   0.28644   0.00000  Uiso   1.00
I420   I     0.71412   0.60613   0.28340   0.00000  Uiso   1.00
O421   O     0.10655   0.87291   0.25000   0.00000  Uiso   1.00
O422   O     0.22679   0.79375   0.25001   0.00000  Uiso   1.00
O423   O     0.22679   0.87291   0.25001   0.00000  Uiso   1.00
O424   O     0.10655   0.79375   0.25000   0.00000  Uiso   1.00
C425   C     0.08731   0.83331   0.25019   0.00000  Uiso   1.00
C426   C     0.24603   0.83349   0.25050   0.00000  Uiso   1.00
O427   O     0.16666   0.87293   0.18513   0.00000  Uiso   1.00
O428   O     0.16668   0.79373   0.31487   0.00000  Uiso   1.00
O429   O     0.16668   0.87293   0.31487   0.00000  Uiso   1.00
O430   O     0.16666   0.79373   0.18513   0.00000  Uiso   1.00
C431   C     0.16471   0.83312   0.16449   0.00000  Uiso   1.00
C432   C     0.16868   0.83355   0.33550   0.00000  Uiso   1.00
Cu433  Cu    0.16667   0.88022   0.25000   0.00000  Uiso   1.00
Cu434  Cu    0.16667   0.78645   0.25000   0.00000  Uiso   1.00
C435   C     0.20363   0.85162   0.40833   0.00000  Uiso   1.00
C436   C     0.12986   0.81500   0.09160   0.00000  Uiso   1.00
C437   C     0.17007   0.83359   0.38384   0.00000  Uiso   1.00
C438   C     0.16337   0.83310   0.11613   0.00000  Uiso   1.00
C439   C     0.13651   0.81513   0.40509   0.00000  Uiso   1.00
C440   C     0.19688   0.85171   0.09489   0.00000  Uiso   1.00
C441   C     0.13360   0.81748   0.45122   0.00000  Uiso   1.00
C442   C     0.19981   0.84938   0.04875   0.00000  Uiso   1.00
C443   C     0.16780   0.83287   0.47662   0.00000  Uiso   1.00
C444   C     0.16562   0.83395   0.02335   0.00000  Uiso   1.00
C445   C     0.20448   0.84598   0.45527   0.00000  Uiso   1.00
C446   C     0.12897   0.82077   0.04469   0.00000  Uiso   1.00
C447   C     0.09661   0.80691   0.47210   0.00000  Uiso   1.00
C448   C     0.23679   0.85997   0.02788   0.00000  Uiso   1.00
C449   C     0.09321   0.81376   0.01822   0.00000  Uiso   1.00
C450   C     0.24022   0.85303   0.48177   0.00000  Uiso   1.00
H451   H     0.11164   0.80203   0.38454   0.00000  Uiso   1.00
H452   H     0.22173   0.86487   0.11546   0.00000  Uiso   1.00
C453   C     0.02040   0.79120   0.24691   0.00000  Uiso   1.00
C454   C     0.31272   0.87633   0.24716   0.00000  Uiso   1.00
C455   C     0.31242   0.79165   0.25634   0.00000  Uiso   1.00
C456   C     0.02121   0.87615   0.25578   0.00000  Uiso   1.00
C457   C     0.29068   0.83390   0.25134   0.00000  Uiso   1.00
C458   C     0.04268   0.83352   0.25085   0.00000  Uiso   1.00
C459   C     0.14996   0.69085   0.21532   0.00000  Uiso   1.00
C460   C     0.18361   0.97577   0.28456   0.00000  Uiso   1.00
C461   C     0.18327   0.69194   0.28478   0.00000  Uiso   1.00
C462   C     0.14961   0.97468   0.21546   0.00000  Uiso   1.00
H463   H     0.13649   0.70881   0.18754   0.00000  Uiso   1.00
H464   H     0.19750   0.95779   0.31210   0.00000  Uiso   1.00
H465   H     0.19660   0.71081   0.31275   0.00000  Uiso   1.00
H466   H     0.13561   0.95577   0.18787   0.00000  Uiso   1.00
N467   N     0.16667   0.95069   0.25000   0.00000  Uiso   1.00
N468   N     0.16667   0.71598   0.25000   0.00000  Uiso   1.00
C469   C     0.23525   0.88040   0.38433   0.00000  Uiso   1.00
H470   H     0.25471   0.90163   0.40713   0.00000  Uiso   1.00
H471   H     0.25416   0.85747   0.36294   0.00000  Uiso   1.00
H472   H     0.22011   0.90679   0.36340   0.00000  Uiso   1.00
C473   C     0.09837   0.78595   0.11550   0.00000  Uiso   1.00
H474   H     0.07889   0.76480   0.09264   0.00000  Uiso   1.00
H475   H     0.11365   0.75947   0.13620   0.00000  Uiso   1.00
H476   H     0.07945   0.80868   0.13708   0.00000  Uiso   1.00
I477   I     0.04424   0.78243   0.43466   0.00000  Uiso   1.00
I478   I     0.28912   0.88459   0.06530   0.00000  Uiso   1.00
C479   C     0.05117   0.82279   0.03624   0.00000  Uiso   1.00
H480   H     0.03472   0.84721   0.01394   0.00000  Uiso   1.00
H481   H     0.03350   0.78968   0.03816   0.00000  Uiso   1.00
H482   H     0.05211   0.84080   0.06906   0.00000  Uiso   1.00
C483   C     0.28227   0.84388   0.46383   0.00000  Uiso   1.00
H484   H     0.29870   0.81956   0.48624   0.00000  Uiso   1.00
H485   H     0.28135   0.82571   0.43108   0.00000  Uiso   1.00
H486   H     0.29996   0.87697   0.46180   0.00000  Uiso   1.00
I487   I     0.04396   0.72709   0.21999   0.00000  Uiso   1.00
I488   I     0.28734   0.94026   0.22189   0.00000  Uiso   1.00
I489   I     0.28816   0.72999   0.28644   0.00000  Uiso   1.00
I490   I     0.04745   0.93946   0.28340   0.00000  Uiso   1.00
O491   O     0.43988   0.87291   0.25000   0.00000  Uiso   1.00
O492   O     0.56012   0.79375   0.25001   0.00000  Uiso   1.00
O493   O     0.56012   0.87291   0.25001   0.00000  Uiso   1.00
O494   O     0.43988   0.79375   0.25000   0.00000  Uiso   1.00
C495   C     0.42065   0.83331   0.25019   0.00000  Uiso   1.00
C496   C     0.57936   0.83349   0.25050   0.00000  Uiso   1.00
O497   O     0.49999   0.87293   0.18513   0.00000  Uiso   1.00
O498   O     0.50001   0.79373   0.31487   0.00000  Uiso   1.00
O499   O     0.50001   0.87293   0.31487   0.00000  Uiso   1.00
O500   O     0.49999   0.79373   0.18513   0.00000  Uiso   1.00
C501   C     0.49804   0.83312   0.16449   0.00000  Uiso   1.00
C502   C     0.50202   0.83355   0.33550   0.00000  Uiso   1.00
Cu503  Cu    0.50000   0.88022   0.25000   0.00000  Uiso   1.00
Cu504  Cu    0.50000   0.78645   0.25000   0.00000  Uiso   1.00
C505   C     0.53697   0.85162   0.40833   0.00000  Uiso   1.00
C506   C     0.46319   0.81500   0.09160   0.00000  Uiso   1.00
C507   C     0.50340   0.83359   0.38384   0.00000  Uiso   1.00
C508   C     0.49670   0.83310   0.11613   0.00000  Uiso   1.00
C509   C     0.46985   0.81513   0.40509   0.00000  Uiso   1.00
C510   C     0.53022   0.85171   0.09489   0.00000  Uiso   1.00
C511   C     0.46693   0.81748   0.45122   0.00000  Uiso   1.00
C512   C     0.53314   0.84938   0.04875   0.00000  Uiso   1.00
C513   C     0.50114   0.83287   0.47662   0.00000  Uiso   1.00
C514   C     0.49896   0.83395   0.02335   0.00000  Uiso   1.00
C515   C     0.53781   0.84598   0.45527   0.00000  Uiso   1.00
C516   C     0.46230   0.82077   0.04469   0.00000  Uiso   1.00
C517   C     0.42994   0.80691   0.47210   0.00000  Uiso   1.00
C518   C     0.57012   0.85997   0.02788   0.00000  Uiso   1.00
C519   C     0.42655   0.81376   0.01822   0.00000  Uiso   1.00
C520   C     0.57355   0.85303   0.48177   0.00000  Uiso   1.00
H521   H     0.44497   0.80203   0.38454   0.00000  Uiso   1.00
H522   H     0.55506   0.86487   0.11546   0.00000  Uiso   1.00
C523   C     0.35373   0.79120   0.24691   0.00000  Uiso   1.00
C524   C     0.64605   0.87633   0.24716   0.00000  Uiso   1.00
C525   C     0.64576   0.79165   0.25634   0.00000  Uiso   1.00
C526   C     0.35455   0.87615   0.25578   0.00000  Uiso   1.00
C527   C     0.62401   0.83390   0.25134   0.00000  Uiso   1.00
C528   C     0.37602   0.83352   0.25085   0.00000  Uiso   1.00
C529   C     0.48329   0.69085   0.21532   0.00000  Uiso   1.00
C530   C     0.51694   0.97577   0.28456   0.00000  Uiso   1.00
C531   C     0.51660   0.69194   0.28478   0.00000  Uiso   1.00
C532   C     0.48295   0.97468   0.21546   0.00000  Uiso   1.00
H533   H     0.46982   0.70881   0.18754   0.00000  Uiso   1.00
H534   H     0.53083   0.95779   0.31210   0.00000  Uiso   1.00
H535   H     0.52994   0.71081   0.31275   0.00000  Uiso   1.00
H536   H     0.46894   0.95577   0.18787   0.00000  Uiso   1.00
N537   N     0.50000   0.95069   0.25000   0.00000  Uiso   1.00
N538   N     0.50000   0.71598   0.25000   0.00000  Uiso   1.00
C539   C     0.56858   0.88040   0.38433   0.00000  Uiso   1.00
H540   H     0.58805   0.90163   0.40713   0.00000  Uiso   1.00
H541   H     0.58750   0.85747   0.36294   0.00000  Uiso   1.00
H542   H     0.55344   0.90679   0.36340   0.00000  Uiso   1.00
C543   C     0.43170   0.78595   0.11550   0.00000  Uiso   1.00
H544   H     0.41223   0.76480   0.09264   0.00000  Uiso   1.00
H545   H     0.44699   0.75947   0.13620   0.00000  Uiso   1.00
H546   H     0.41278   0.80868   0.13708   0.00000  Uiso   1.00
I547   I     0.37757   0.78243   0.43466   0.00000  Uiso   1.00
I548   I     0.62245   0.88459   0.06530   0.00000  Uiso   1.00
C549   C     0.38451   0.82279   0.03624   0.00000  Uiso   1.00
H550   H     0.36805   0.84721   0.01394   0.00000  Uiso   1.00
H551   H     0.36683   0.78968   0.03816   0.00000  Uiso   1.00
H552   H     0.38544   0.84080   0.06906   0.00000  Uiso   1.00
C553   C     0.61560   0.84388   0.46383   0.00000  Uiso   1.00
H554   H     0.63203   0.81956   0.48624   0.00000  Uiso   1.00
H555   H     0.61468   0.82571   0.43108   0.00000  Uiso   1.00
H556   H     0.63330   0.87697   0.46180   0.00000  Uiso   1.00
I557   I     0.37729   0.72709   0.21999   0.00000  Uiso   1.00
I558   I     0.62067   0.94026   0.22189   0.00000  Uiso   1.00
I559   I     0.62149   0.72999   0.28644   0.00000  Uiso   1.00
I560   I     0.38079   0.93946   0.28340   0.00000  Uiso   1.00
O561   O     0.77321   0.87291   0.25000   0.00000  Uiso   1.00
O562   O     0.89345   0.79375   0.25001   0.00000  Uiso   1.00
O563   O     0.89345   0.87291   0.25001   0.00000  Uiso   1.00
O564   O     0.77321   0.79375   0.25000   0.00000  Uiso   1.00
C565   C     0.75398   0.83331   0.25019   0.00000  Uiso   1.00
C566   C     0.91269   0.83349   0.25050   0.00000  Uiso   1.00
O567   O     0.83332   0.87293   0.18513   0.00000  Uiso   1.00
O568   O     0.83334   0.79373   0.31487   0.00000  Uiso   1.00
O569   O     0.83334   0.87293   0.31487   0.00000  Uiso   1.00
O570   O     0.83332   0.79373   0.18513   0.00000  Uiso   1.00
C571   C     0.83138   0.83312   0.16449   0.00000  Uiso   1.00
C572   C     0.83535   0.83355   0.33550   0.00000  Uiso   1.00
Cu573  Cu    0.83333   0.88022   0.25000   0.00000  Uiso   1.00
Cu574  Cu    0.83333   0.78645   0.25000   0.00000  Uiso   1.00
C575   C     0.87030   0.85162   0.40833   0.00000  Uiso   1.00
C576   C     0.79652   0.81500   0.09160   0.00000  Uiso   1.00
C577   C     0.83674   0.83359   0.38384   0.00000  Uiso   1.00
C578   C     0.83003   0.83310   0.11613   0.00000  Uiso   1.00
C579   C     0.80318   0.81513   0.40509   0.00000  Uiso   1.00
C580   C     0.86355   0.85171   0.09489   0.00000  Uiso   1.00
C581   C     0.80026   0.81748   0.45122   0.00000  Uiso   1.00
C582   C     0.86648   0.84938   0.04875   0.00000  Uiso   1.00
C583   C     0.83447   0.83287   0.47662   0.00000  Uiso   1.00
C584   C     0.83229   0.83395   0.02335   0.00000  Uiso   1.00
C585   C     0.87115   0.84598   0.45527   0.00000  Uiso   1.00
C586   C     0.79564   0.82077   0.04469   0.00000  Uiso   1.00
C587   C     0.76328   0.80691   0.47210   0.00000  Uiso   1.00
C588   C     0.90346   0.85997   0.02788   0.00000  Uiso   1.00
C589   C     0.75988   0.81376   0.01822   0.00000  Uiso   1.00
C590   C     0.90689   0.85303   0.48177   0.00000  Uiso   1.00
H591   H     0.77831   0.80203   0.38454   0.00000  Uiso   1.00
H592   H     0.88839   0.86487   0.11546   0.00000  Uiso   1.00
C593   C     0.68707   0.79120   0.24691   0.00000  Uiso   1.00
C594   C     0.97939   0.87633   0.24716   0.00000  Uiso   1.00
C595   C     0.97909   0.79165   0.25634   0.00000  Uiso   1.00
C596   C     0.68788   0.87615   0.25578   0.00000  Uiso   1.00
C597   C     0.95735   0.83390   0.25134   0.00000  Uiso   1.00
C598   C     0.70935   0.83352   0.25085   0.00000  Uiso   1.00
C599   C     0.81662   0.69085   0.21532   0.00000  Uiso   1.00
C600   C     0.85028   0.97577   0.28456   0.00000  Uiso   1.00
C601   C     0.84993   0.69194   0.28478   0.00000  Uiso   1.00
C602   C     0.81628   0.97468   0.21546   0.00000  Uiso   1.00
H603   H     0.80315   0.70881   0.18754   0.00000  Uiso   1.00
H604   H     0.86416   0.95779   0.31210   0.00000  Uiso   1.00
H605   H     0.86327   0.71081   0.31275   0.00000  Uiso   1.00
H606   H     0.80228   0.95577   0.18787   0.00000  Uiso   1.00
N607   N     0.83333   0.95069   0.25000   0.00000  Uiso   1.00
N608   N     0.83333   0.71598   0.25000   0.00000  Uiso   1.00
C609   C     0.90192   0.88040   0.38433   0.00000  Uiso   1.00
H610   H     0.92138   0.90163   0.40713   0.00000  Uiso   1.00
H611   H     0.92083   0.85747   0.36294   0.00000  Uiso   1.00
H612   H     0.88677   0.90679   0.36340   0.00000  Uiso   1.00
C613   C     0.76503   0.78595   0.11550   0.00000  Uiso   1.00
H614   H     0.74556   0.76480   0.09264   0.00000  Uiso   1.00
H615   H     0.78032   0.75947   0.13620   0.00000  Uiso   1.00
H616   H     0.74611   0.80868   0.13708   0.00000  Uiso   1.00
I617   I     0.71090   0.78243   0.43466   0.00000  Uiso   1.00
I618   I     0.95578   0.88459   0.06530   0.00000  Uiso   1.00
C619   C     0.71784   0.82279   0.03624   0.00000  Uiso   1.00
H620   H     0.70138   0.84721   0.01394   0.00000  Uiso   1.00
H621   H     0.70017   0.78968   0.03816   0.00000  Uiso   1.00
H622   H     0.71878   0.84080   0.06906   0.00000  Uiso   1.00
C623   C     0.94894   0.84388   0.46383   0.00000  Uiso   1.00
H624   H     0.96536   0.81956   0.48624   0.00000  Uiso   1.00
H625   H     0.94801   0.82571   0.43108   0.00000  Uiso   1.00
H626   H     0.96663   0.87697   0.46180   0.00000  Uiso   1.00
I627   I     0.71063   0.72709   0.21999   0.00000  Uiso   1.00
I628   I     0.95400   0.94026   0.22189   0.00000  Uiso   1.00
I629   I     0.95483   0.72999   0.28644   0.00000  Uiso   1.00
I630   I     0.71412   0.93946   0.28340   0.00000  Uiso   1.00
O631   O     0.10655   0.20625   0.75000   0.00000  Uiso   1.00
O632   O     0.22679   0.12709   0.75001   0.00000  Uiso   1.00
O633   O     0.22679   0.20625   0.75001   0.00000  Uiso   1.00
O634   O     0.10655   0.12709   0.75000   0.00000  Uiso   1.00
C635   C     0.08731   0.16665   0.75019   0.00000  Uiso   1.00
C636   C     0.24603   0.16683   0.75050   0.00000  Uiso   1.00
O637   O     0.16666   0.20627   0.68513   0.00000  Uiso   1.00
O638   O     0.16668   0.12707   0.81487   0.00000  Uiso   1.00
O639   O     0.16668   0.20627   0.81487   0.00000  Uiso   1.00
O640   O     0.16666   0.12707   0.68513   0.00000  Uiso   1.00
C641   C     0.16471   0.16645   0.66449   0.00000  Uiso   1.00
C642   C     0.16868   0.16688   0.83550   0.00000  Uiso   1.00
Cu643  Cu    0.16667   0.21355   0.75000   0.00000  Uiso   1.00
Cu644  Cu    0.16667   0.11978   0.75000   0.00000  Uiso   1.00
C645   C     0.20363   0.18495   0.90833   0.00000  Uiso   1.00
C646   C     0.12986   0.14833   0.59160   0.00000  Uiso   1.00
C647   C     0.17007   0.16692   0.88384   0.00000  Uiso   1.00
C648   C     0.16337   0.16644   0.61613   0.00000  Uiso   1.00
C649   C     0.13651   0.14847   0.90509   0.00000  Uiso   1.00
C650   C     0.19688   0.18504   0.59489   0.00000  Uiso   1.00
C651   C     0.13360   0.15081   0.95122   0.00000  Uiso   1.00
C652   C     0.19981   0.18271   0.54875   0.00000  Uiso   1.00
C653   C     0.16780   0.16620   0.97662   0.00000  Uiso   1.00
C654   C     0.16562   0.16728   0.52335   0.00000  Uiso   1.00
C655   C     0.20448   0.17931   0.95527   0.00000  Uiso   1.00
C656   C     0.12897   0.15410   0.54469   0.00000  Uiso   1.00
C657   C     0.09661   0.14025   0.97210   0.00000  Uiso   1.00
C658   C     0.23679   0.19330   0.52788   0.00000  Uiso   1.00
C659   C     0.09321   0.14709   0.51822   0.00000  Uiso   1.00
C660   C     0.24022   0.18636   0.98177   0.00000  Uiso   1.00
H661   H     0.11164   0.13537   0.88454   0.00000  Uiso   1.00
H662   H     0.22173   0.19820   0.61546   0.00000  Uiso   1.00
C663   C     0.02040   0.12453   0.74691   0.00000  Uiso   1.00
C664   C     0.31272   0.20967   0.74716   0.00000  Uiso   1.00
C665   C     0.31242   0.12498   0.75634   0.00000  Uiso   1.00
C666   C     0.02121   0.20949   0.75578   0.00000  Uiso   1.00
C667   C     0.29068   0.16723   0.75134   0.00000  Uiso   1.00
C668   C     0.04268   0.16685   0.75085   0.00000  Uiso   1.00
C669   C     0.14996   0.02419   0.71532   0.00000  Uiso   1.00
C670   C     0.18361   0.30911   0.78456   0.00000  Uiso   1.00
C671   C     0.18327   0.02527   0.78478   0.00000  Uiso   1.00
C672   C     0.14961   0.30802   0.71546   0.00000  Uiso   1.00
H673   H     0.13649   0.04214   0.68754   0.00000  Uiso   1.00
H674   H     0.19750   0.29113   0.81210   0.00000  Uiso   1.00
H675   H     0.19660   0.04414   0.81275   0.00000  Uiso   1.00
H676   H     0.13561   0.28910   0.68787   0.00000  Uiso   1.00
N677   N     0.16667   0.28402   0.75000   0.00000  Uiso   1.00
N678   N     0.16667   0.04931   0.75000   0.00000  Uiso   1.00
C679   C     0.23525   0.21373   0.88433   0.00000  Uiso   1.00
H680   H     0.25471   0.23497   0.90713   0.00000  Uiso   1.00
H681   H     0.25416   0.19080   0.86294   0.00000  Uiso   1.00
H682   H     0.22011   0.24012   0.86340   0.00000  Uiso   1.00
C683   C     0.09837   0.11928   0.61550   0.00000  Uiso   1.00
H684   H     0.07889   0.09813   0.59264   0.00000  Uiso   1.00
H685   H     0.11365   0.09281   0.63620   0.00000  Uiso   1.00
H686   H     0.07945   0.14201   0.63708   0.00000  Uiso   1.00
I687   I     0.04424   0.11576   0.93466   0.00000  Uiso   1.00
I688   I     0.28912   0.21793   0.56530   0.00000  Uiso   1.00
C689   C     0.05117   0.15612   0.53624   0.00000  Uiso   1.00
H690   H     0.03472   0.18054   0.51394   0.00000  Uiso   1.00
H691   H     0.03350   0.12301   0.53816   0.00000  Uiso   1.00
H692   H     0.05211   0.17414   0.56906   0.00000  Uiso   1.00
C693   C     0.28227   0.17722   0.96383   0.00000  Uiso   1.00
H694   H     0.29870   0.15289   0.98624   0.00000  Uiso   1.00
H695   H     0.28135   0.15905   0.93108   0.00000  Uiso   1.00
H696   H     0.29996   0.21031   0.96180   0.00000  Uiso   1.00
I697   I     0.04396   0.06042   0.71999   0.00000  Uiso   1.00
I698   I     0.28734   0.27359   0.72189   0.00000  Uiso   1.00
I699   I     0.28816   0.06333   0.78644   0.00000  Uiso   1.00
I700   I     0.04745   0.27279   0.78340   0.00000  Uiso   1.00
O701   O     0.43988   0.20625   0.75000   0.00000  Uiso   1.00
O702   O     0.56012   0.12709   0.75001   0.00000  Uiso   1.00
O703   O     0.56012   0.20625   0.75001   0.00000  Uiso   1.00
O704   O     0.43988   0.12709   0.75000   0.00000  Uiso   1.00
C705   C     0.42065   0.16665   0.75019   0.00000  Uiso   1.00
C706   C     0.57936   0.16683   0.75050   0.00000  Uiso   1.00
O707   O     0.49999   0.20627   0.68513   0.00000  Uiso   1.00
O708   O     0.50001   0.12707   0.81487   0.00000  Uiso   1.00
O709   O     0.50001   0.20627   0.81487   0.00000  Uiso   1.00
O710   O     0.49999   0.12707   0.68513   0.00000  Uiso   1.00
C711   C     0.49804   0.16645   0.66449   0.00000  Uiso   1.00
C712   C     0.50202   0.16688   0.83550   0.00000  Uiso   1.00
Cu713  Cu    0.50000   0.21355   0.75000   0.00000  Uiso   1.00
Cu714  Cu    0.50000   0.11978   0.75000   0.00000  Uiso   1.00
C715   C     0.53697   0.18495   0.90833   0.00000  Uiso   1.00
C716   C     0.46319   0.14833   0.59160   0.00000  Uiso   1.00
C717   C     0.50340   0.16692   0.88384   0.00000  Uiso   1.00
C718   C     0.49670   0.16644   0.61613   0.00000  Uiso   1.00
C719   C     0.46985   0.14847   0.90509   0.00000  Uiso   1.00
C720   C     0.53022   0.18504   0.59489   0.00000  Uiso   1.00
C721   C     0.46693   0.15081   0.95122   0.00000  Uiso   1.00
C722   C     0.53314   0.18271   0.54875   0.00000  Uiso   1.00
C723   C     0.50114   0.16620   0.97662   0.00000  Uiso   1.00
C724   C     0.49896   0.16728   0.52335   0.00000  Uiso   1.00
C725   C     0.53781   0.17931   0.95527   0.00000  Uiso   1.00
C726   C     0.46230   0.15410   0.54469   0.00000  Uiso   1.00
C727   C     0.42994   0.14025   0.97210   0.00000  Uiso   1.00
C728   C     0.57012   0.19330   0.52788   0.00000  Uiso   1.00
C729   C     0.42655   0.14709   0.51822   0.00000  Uiso   1.00
C730   C     0.57355   0.18636   0.98177   0.00000  Uiso   1.00
H731   H     0.44497   0.13537   0.88454   0.00000  Uiso   1.00
H732   H     0.55506   0.19820   0.61546   0.00000  Uiso   1.00
C733   C     0.35373   0.12453   0.74691   0.00000  Uiso   1.00
C734   C     0.64605   0.20967   0.74716   0.00000  Uiso   1.00
C735   C     0.64576   0.12498   0.75634   0.00000  Uiso   1.00
C736   C     0.35455   0.20949   0.75578   0.00000  Uiso   1.00
C737   C     0.62401   0.16723   0.75134   0.00000  Uiso   1.00
C738   C     0.37602   0.16685   0.75085   0.00000  Uiso   1.00
C739   C     0.48329   0.02419   0.71532   0.00000  Uiso   1.00
C740   C     0.51694   0.30911   0.78456   0.00000  Uiso   1.00
C741   C     0.51660   0.02527   0.78478   0.00000  Uiso   1.00
C742   C     0.48295   0.30802   0.71546   0.00000  Uiso   1.00
H743   H     0.46982   0.04214   0.68754   0.00000  Uiso   1.00
H744   H     0.53083   0.29113   0.81210   0.00000  Uiso   1.00
H745   H     0.52994   0.04414   0.81275   0.00000  Uiso   1.00
H746   H     0.46894   0.28910   0.68787   0.00000  Uiso   1.00
N747   N     0.50000   0.28402   0.75000   0.00000  Uiso   1.00
N748   N     0.50000   0.04931   0.75000   0.00000  Uiso   1.00
C749   C     0.56858   0.21373   0.88433   0.00000  Uiso   1.00
H750   H     0.58805   0.23497   0.90713   0.00000  Uiso   1.00
H751   H     0.58750   0.19080   0.86294   0.00000  Uiso   1.00
H752   H     0.55344   0.24012   0.86340   0.00000  Uiso   1.00
C753   C     0.43170   0.11928   0.61550   0.00000  Uiso   1.00
H754   H     0.41223   0.09813   0.59264   0.00000  Uiso   1.00
H755   H     0.44699   0.09281   0.63620   0.00000  Uiso   1.00
H756   H     0.41278   0.14201   0.63708   0.00000  Uiso   1.00
I757   I     0.37757   0.11576   0.93466   0.00000  Uiso   1.00
I758   I     0.62245   0.21793   0.56530   0.00000  Uiso   1.00
C759   C     0.38451   0.15612   0.53624   0.00000  Uiso   1.00
H760   H     0.36805   0.18054   0.51394   0.00000  Uiso   1.00
H761   H     0.36683   0.12301   0.53816   0.00000  Uiso   1.00
H762   H     0.38544   0.17414   0.56906   0.00000  Uiso   1.00
C763   C     0.61560   0.17722   0.96383   0.00000  Uiso   1.00
H764   H     0.63203   0.15289   0.98624   0.00000  Uiso   1.00
H765   H     0.61468   0.15905   0.93108   0.00000  Uiso   1.00
H766   H     0.63330   0.21031   0.96180   0.00000  Uiso   1.00
I767   I     0.37729   0.06042   0.71999   0.00000  Uiso   1.00
I768   I     0.62067   0.27359   0.72189   0.00000  Uiso   1.00
I769   I     0.62149   0.06333   0.78644   0.00000  Uiso   1.00
I770   I     0.38079   0.27279   0.78340   0.00000  Uiso   1.00
O771   O     0.77321   0.20625   0.75000   0.00000  Uiso   1.00
O772   O     0.89345   0.12709   0.75001   0.00000  Uiso   1.00
O773   O     0.89345   0.20625   0.75001   0.00000  Uiso   1.00
O774   O     0.77321   0.12709   0.75000   0.00000  Uiso   1.00
C775   C     0.75398   0.16665   0.75019   0.00000  Uiso   1.00
C776   C     0.91269   0.16683   0.75050   0.00000  Uiso   1.00
O777   O     0.83332   0.20627   0.68513   0.00000  Uiso   1.00
O778   O     0.83334   0.12707   0.81487   0.00000  Uiso   1.00
O779   O     0.83334   0.20627   0.81487   0.00000  Uiso   1.00
O780   O     0.83332   0.12707   0.68513   0.00000  Uiso   1.00
C781   C     0.83138   0.16645   0.66449   0.00000  Uiso   1.00
C782   C     0.83535   0.16688   0.83550   0.00000  Uiso   1.00
Cu783  Cu    0.83333   0.21355   0.75000   0.00000  Uiso   1.00
Cu784  Cu    0.83333   0.11978   0.75000   0.00000  Uiso   1.00
C785   C     0.87030   0.18495   0.90833   0.00000  Uiso   1.00
C786   C     0.79652   0.14833   0.59160   0.00000  Uiso   1.00
C787   C     0.83674   0.16692   0.88384   0.00000  Uiso   1.00
C788   C     0.83003   0.16644   0.61613   0.00000  Uiso   1.00
C789   C     0.80318   0.14847   0.90509   0.00000  Uiso   1.00
C790   C     0.86355   0.18504   0.59489   0.00000  Uiso   1.00
C791   C     0.80026   0.15081   0.95122   0.00000  Uiso   1.00
C792   C     0.86648   0.18271   0.54875   0.00000  Uiso   1.00
C793   C     0.83447   0.16620   0.97662   0.00000  Uiso   1.00
C794   C     0.83229   0.16728   0.52335   0.00000  Uiso   1.00
C795   C     0.87115   0.17931   0.95527   0.00000  Uiso   1.00
C796   C     0.79564   0.15410   0.54469   0.00000  Uiso   1.00
C797   C     0.76328   0.14025   0.97210   0.00000  Uiso   1.00
C798   C     0.90346   0.19330   0.52788   0.00000  Uiso   1.00
C799   C     0.75988   0.14709   0.51822   0.00000  Uiso   1.00
C800   C     0.90689   0.18636   0.98177   0.00000  Uiso   1.00
H801   H     0.77831   0.13537   0.88454   0.00000  Uiso   1.00
H802   H     0.88839   0.19820   0.61546   0.00000  Uiso   1.00
C803   C     0.68707   0.12453   0.74691   0.00000  Uiso   1.00
C804   C     0.97939   0.20967   0.74716   0.00000  Uiso   1.00
C805   C     0.97909   0.12498   0.75634   0.00000  Uiso   1.00
C806   C     0.68788   0.20949   0.75578   0.00000  Uiso   1.00
C807   C     0.95735   0.16723   0.75134   0.00000  Uiso   1.00
C808   C     0.70935   0.16685   0.75085   0.00000  Uiso   1.00
C809   C     0.81662   0.02419   0.71532   0.00000  Uiso   1.00
C810   C     0.85028   0.30911   0.78456   0.00000  Uiso   1.00
C811   C     0.84993   0.02527   0.78478   0.00000  Uiso   1.00
C812   C     0.81628   0.30802   0.71546   0.00000  Uiso   1.00
H813   H     0.80315   0.04214   0.68754   0.00000  Uiso   1.00
H814   H     0.86416   0.29113   0.81210   0.00000  Uiso   1.00
H815   H     0.86327   0.04414   0.81275   0.00000  Uiso   1.00
H816   H     0.80228   0.28910   0.68787   0.00000  Uiso   1.00
N817   N     0.83333   0.28402   0.75000   0.00000  Uiso   1.00
N818   N     0.83333   0.04931   0.75000   0.00000  Uiso   1.00
C819   C     0.90192   0.21373   0.88433   0.00000  Uiso   1.00
H820   H     0.92138   0.23497   0.90713   0.00000  Uiso   1.00
H821   H     0.92083   0.19080   0.86294   0.00000  Uiso   1.00
H822   H     0.88677   0.24012   0.86340   0.00000  Uiso   1.00
C823   C     0.76503   0.11928   0.61550   0.00000  Uiso   1.00
H824   H     0.74556   0.09813   0.59264   0.00000  Uiso   1.00
H825   H     0.78032   0.09281   0.63620   0.00000  Uiso   1.00
H826   H     0.74611   0.14201   0.63708   0.00000  Uiso   1.00
I827   I     0.71090   0.11576   0.93466   0.00000  Uiso   1.00
I828   I     0.95578   0.21793   0.56530   0.00000  Uiso   1.00
C829   C     0.71784   0.15612   0.53624   0.00000  Uiso   1.00
H830   H     0.70138   0.18054   0.51394   0.00000  Uiso   1.00
H831   H     0.70017   0.12301   0.53816   0.00000  Uiso   1.00
H832   H     0.71878   0.17414   0.56906   0.00000  Uiso   1.00
C833   C     0.94894   0.17722   0.96383   0.00000  Uiso   1.00
H834   H     0.96536   0.15289   0.98624   0.00000  Uiso   1.00
H835   H     0.94801   0.15905   0.93108   0.00000  Uiso   1.00
H836   H     0.96663   0.21031   0.96180   0.00000  Uiso   1.00
I837   I     0.71063   0.06042   0.71999   0.00000  Uiso   1.00
I838   I     0.95400   0.27359   0.72189   0.00000  Uiso   1.00
I839   I     0.95483   0.06333   0.78644   0.00000  Uiso   1.00
I840   I     0.71412   0.27279   0.78340   0.00000  Uiso   1.00
O841   O     0.10655   0.53958   0.75000   0.00000  Uiso   1.00
O842   O     0.22679   0.46042   0.75001   0.00000  Uiso   1.00
O843   O     0.22679   0.53958   0.75001   0.00000  Uiso   1.00
O844   O     0.10655   0.46042   0.75000   0.00000  Uiso   1.00
C845   C     0.08731   0.49998   0.75019   0.00000  Uiso   1.00
C846   C     0.24603   0.50016   0.75050   0.00000  Uiso   1.00
O847   O     0.16666   0.53960   0.68513   0.00000  Uiso   1.00
O848   O     0.16668   0.46040   0.81487   0.00000  Uiso   1.00
O849   O     0.16668   0.53960   0.81487   0.00000  Uiso   1.00
O850   O     0.16666   0.46040   0.68513   0.00000  Uiso   1.00
C851   C     0.16471   0.49978   0.66449   0.00000  Uiso   1.00
C852   C     0.16868   0.50022   0.83550   0.00000  Uiso   1.00
Cu853  Cu    0.16667   0.54689   0.75000   0.00000  Uiso   1.00
Cu854  Cu    0.16667   0.45311   0.75000   0.00000  Uiso   1.00
C855   C     0.20363   0.51828   0.90833   0.00000  Uiso   1.00
C856   C     0.12986   0.48167   0.59160   0.00000  Uiso   1.00
C857   C     0.17007   0.50025   0.88384   0.00000  Uiso   1.00
C858   C     0.16337   0.49977   0.61613   0.00000  Uiso   1.00
C859   C     0.13651   0.48180   0.90509   0.00000  Uiso   1.00
C860   C     0.19688   0.51837   0.59489   0.00000  Uiso   1.00
C861   C     0.13360   0.48414   0.95122   0.00000  Uiso   1.00
C862   C     0.19981   0.51604   0.54875   0.00000  Uiso   1.00
C863   C     0.16780   0.49954   0.97662   0.00000  Uiso   1.00
C864   C     0.16562   0.50062   0.52335   0.00000  Uiso   1.00
C865   C     0.20448   0.51264   0.95527   0.00000  Uiso   1.00
C866   C     0.12897   0.48744   0.54469   0.00000  Uiso   1.00
C867   C     0.09661   0.47358   0.97210   0.00000  Uiso   1.00
C868   C     0.23679   0.52664   0.52788   0.00000  Uiso   1.00
C869   C     0.09321   0.48043   0.51822   0.00000  Uiso   1.00
C870   C     0.24022   0.51969   0.98177   0.00000  Uiso   1.00
H871   H     0.11164   0.46870   0.88454   0.00000  Uiso   1.00
H872   H     0.22173   0.53154   0.61546   0.00000  Uiso   1.00
C873   C     0.02040   0.45787   0.74691   0.00000  Uiso   1.00
C874   C     0.31272   0.54300   0.74716   0.00000  Uiso   1.00
C875   C     0.31242   0.45832   0.75634   0.00000  Uiso   1.00
C876   C     0.02121   0.54282   0.75578   0.00000  Uiso   1.00
C877   C     0.29068   0.50056   0.75134   0.00000  Uiso   1.00
C878   C     0.04268   0.50019   0.75085   0.00000  Uiso   1.00
C879   C     0.14996   0.35752   0.71532   0.00000  Uiso   1.00
C880   C     0.18361   0.64244   0.78456   0.00000  Uiso   1.00
C881   C     0.18327   0.35860   0.78478   0.00000  Uiso   1.00
C882   C     0.14961   0.64135   0.71546   0.00000  Uiso   1.00
H883   H     0.13649   0.37548   0.68754   0.00000  Uiso   1.00
H884   H     0.19750   0.62446   0.81210   0.00000  Uiso   1.00
H885   H     0.19660   0.37748   0.81275   0.00000  Uiso   1.00
H886   H     0.13561   0.62244   0.68787   0.00000  Uiso   1.00
N887   N     0.16667   0.61736   0.75000   0.00000  Uiso   1.00
N888   N     0.16667   0.38264   0.75000   0.00000  Uiso   1.00
C889   C     0.23525   0.54707   0.88433   0.00000  Uiso   1.00
H890   H     0.25471   0.56830   0.90713   0.00000  Uiso   1.00
H891   H     0.25416   0.52413   0.86294   0.00000  Uiso   1.00
H892   H     0.22011   0.57346   0.86340   0.00000  Uiso   1.00
C893   C     0.09837   0.45262   0.61550   0.00000  Uiso   1.00
H894   H     0.07889   0.43146   0.59264   0.00000  Uiso   1.00
H895   H     0.11365   0.42614   0.63620   0.00000  Uiso   1.00
H896   H     0.07945   0.47534   0.63708   0.00000  Uiso   1.00
I897   I     0.04424   0.44909   0.93466   0.00000  Uiso   1.00
I898   I     0.28912   0.55126   0.56530   0.00000  Uiso   1.00
C899   C     0.05117   0.48946   0.53624   0.00000  Uiso   1.00
H900   H     0.03472   0.51387   0.51394   0.00000  Uiso   1.00
H901   H     0.03350   0.45634   0.53816   0.00000  Uiso   1.00
H902   H     0.05211   0.50747   0.56906   0.00000  Uiso   1.00
C903   C     0.28227   0.51055   0.96383   0.00000  Uiso   1.00
H904   H     0.29870   0.48622   0.98624   0.00000  Uiso   1.00
H905   H     0.28135   0.49238   0.93108   0.00000  Uiso   1.00
H906   H     0.29996   0.54364   0.96180   0.00000  Uiso   1.00
I907   I     0.04396   0.39376   0.71999   0.00000  Uiso   1.00
I908   I     0.28734   0.60693   0.72189   0.00000  Uiso   1.00
I909   I     0.28816   0.39666   0.78644   0.00000  Uiso   1.00
I910   I     0.04745   0.60613   0.78340   0.00000  Uiso   1.00
O911   O     0.43988   0.53958   0.75000   0.00000  Uiso   1.00
O912   O     0.56012   0.46042   0.75001   0.00000  Uiso   1.00
O913   O     0.56012   0.53958   0.75001   0.00000  Uiso   1.00
O914   O     0.43988   0.46042   0.75000   0.00000  Uiso   1.00
C915   C     0.42065   0.49998   0.75019   0.00000  Uiso   1.00
C916   C     0.57936   0.50016   0.75050   0.00000  Uiso   1.00
O917   O     0.49999   0.53960   0.68513   0.00000  Uiso   1.00
O918   O     0.50001   0.46040   0.81487   0.00000  Uiso   1.00
O919   O     0.50001   0.53960   0.81487   0.00000  Uiso   1.00
O920   O     0.49999   0.46040   0.68513   0.00000  Uiso   1.00
C921   C     0.49804   0.49978   0.66449   0.00000  Uiso   1.00
C922   C     0.50202   0.50022   0.83550   0.00000  Uiso   1.00
Cu923  Cu    0.50000   0.54689   0.75000   0.00000  Uiso   1.00
Cu924  Cu    0.50000   0.45311   0.75000   0.00000  Uiso   1.00
C925   C     0.53697   0.51828   0.90833   0.00000  Uiso   1.00
C926   C     0.46319   0.48167   0.59160   0.00000  Uiso   1.00
C927   C     0.50340   0.50025   0.88384   0.00000  Uiso   1.00
C928   C     0.49670   0.49977   0.61613   0.00000  Uiso   1.00
C929   C     0.46985   0.48180   0.90509   0.00000  Uiso   1.00
C930   C     0.53022   0.51837   0.59489   0.00000  Uiso   1.00
C931   C     0.46693   0.48414   0.95122   0.00000  Uiso   1.00
C932   C     0.53314   0.51604   0.54875   0.00000  Uiso   1.00
C933   C     0.50114   0.49954   0.97662   0.00000  Uiso   1.00
C934   C     0.49896   0.50062   0.52335   0.00000  Uiso   1.00
C935   C     0.53781   0.51264   0.95527   0.00000  Uiso   1.00
C936   C     0.46230   0.48744   0.54469   0.00000  Uiso   1.00
C937   C     0.42994   0.47358   0.97210   0.00000  Uiso   1.00
C938   C     0.57012   0.52664   0.52788   0.00000  Uiso   1.00
C939   C     0.42655   0.48043   0.51822   0.00000  Uiso   1.00
C940   C     0.57355   0.51969   0.98177   0.00000  Uiso   1.00
H941   H     0.44497   0.46870   0.88454   0.00000  Uiso   1.00
H942   H     0.55506   0.53154   0.61546   0.00000  Uiso   1.00
C943   C     0.35373   0.45787   0.74691   0.00000  Uiso   1.00
C944   C     0.64605   0.54300   0.74716   0.00000  Uiso   1.00
C945   C     0.64576   0.45832   0.75634   0.00000  Uiso   1.00
C946   C     0.35455   0.54282   0.75578   0.00000  Uiso   1.00
C947   C     0.62401   0.50056   0.75134   0.00000  Uiso   1.00
C948   C     0.37602   0.50019   0.75085   0.00000  Uiso   1.00
C949   C     0.48329   0.35752   0.71532   0.00000  Uiso   1.00
C950   C     0.51694   0.64244   0.78456   0.00000  Uiso   1.00
C951   C     0.51660   0.35860   0.78478   0.00000  Uiso   1.00
C952   C     0.48295   0.64135   0.71546   0.00000  Uiso   1.00
H953   H     0.46982   0.37548   0.68754   0.00000  Uiso   1.00
H954   H     0.53083   0.62446   0.81210   0.00000  Uiso   1.00
H955   H     0.52994   0.37748   0.81275   0.00000  Uiso   1.00
H956   H     0.46894   0.62244   0.68787   0.00000  Uiso   1.00
N957   N     0.50000   0.61736   0.75000   0.00000  Uiso   1.00
N958   N     0.50000   0.38264   0.75000   0.00000  Uiso   1.00
C959   C     0.56858   0.54707   0.88433   0.00000  Uiso   1.00
H960   H     0.58805   0.56830   0.90713   0.00000  Uiso   1.00
H961   H     0.58750   0.52413   0.86294   0.00000  Uiso   1.00
H962   H     0.55344   0.57346   0.86340   0.00000  Uiso   1.00
C963   C     0.43170   0.45262   0.61550   0.00000  Uiso   1.00
H964   H     0.41223   0.43146   0.59264   0.00000  Uiso   1.00
H965   H     0.44699   0.42614   0.63620   0.00000  Uiso   1.00
H966   H     0.41278   0.47534   0.63708   0.00000  Uiso   1.00
I967   I     0.37757   0.44909   0.93466   0.00000  Uiso   1.00
I968   I     0.62245   0.55126   0.56530   0.00000  Uiso   1.00
C969   C     0.38451   0.48946   0.53624   0.00000  Uiso   1.00
H970   H     0.36805   0.51387   0.51394   0.00000  Uiso   1.00
H971   H     0.36683   0.45634   0.53816   0.00000  Uiso   1.00
H972   H     0.38544   0.50747   0.56906   0.00000  Uiso   1.00
C973   C     0.61560   0.51055   0.96383   0.00000  Uiso   1.00
H974   H     0.63203   0.48622   0.98624   0.00000  Uiso   1.00
H975   H     0.61468   0.49238   0.93108   0.00000  Uiso   1.00
H976   H     0.63330   0.54364   0.96180   0.00000  Uiso   1.00
I977   I     0.37729   0.39376   0.71999   0.00000  Uiso   1.00
I978   I     0.62067   0.60693   0.72189   0.00000  Uiso   1.00
I979   I     0.62149   0.39666   0.78644   0.00000  Uiso   1.00
I980   I     0.38079   0.60613   0.78340   0.00000  Uiso   1.00
O981   O     0.77321   0.53958   0.75000   0.00000  Uiso   1.00
O982   O     0.89345   0.46042   0.75001   0.00000  Uiso   1.00
O983   O     0.89345   0.53958   0.75001   0.00000  Uiso   1.00
O984   O     0.77321   0.46042   0.75000   0.00000  Uiso   1.00
C985   C     0.75398   0.49998   0.75019   0.00000  Uiso   1.00
C986   C     0.91269   0.50016   0.75050   0.00000  Uiso   1.00
O987   O     0.83332   0.53960   0.68513   0.00000  Uiso   1.00
O988   O     0.83334   0.46040   0.81487   0.00000  Uiso   1.00
O989   O     0.83334   0.53960   0.81487   0.00000  Uiso   1.00
O990   O     0.83332   0.46040   0.68513   0.00000  Uiso   1.00
C991   C     0.83138   0.49978   0.66449   0.00000  Uiso   1.00
C992   C     0.83535   0.50022   0.83550   0.00000  Uiso   1.00
Cu993  Cu    0.83333   0.54689   0.75000   0.00000  Uiso   1.00
Cu994  Cu    0.83333   0.45311   0.75000   0.00000  Uiso   1.00
C995   C     0.87030   0.51828   0.90833   0.00000  Uiso   1.00
C996   C     0.79652   0.48167   0.59160   0.00000  Uiso   1.00
C997   C     0.83674   0.50025   0.88384   0.00000  Uiso   1.00
C998   C     0.83003   0.49977   0.61613   0.00000  Uiso   1.00
C999   C     0.80318   0.48180   0.90509   0.00000  Uiso   1.00
C1000  C     0.86355   0.51837   0.59489   0.00000  Uiso   1.00
C1001  C     0.80026   0.48414   0.95122   0.00000  Uiso   1.00
C1002  C     0.86648   0.51604   0.54875   0.00000  Uiso   1.00
C1003  C     0.83447   0.49954   0.97662   0.00000  Uiso   1.00
C1004  C     0.83229   0.50062   0.52335   0.00000  Uiso   1.00
C1005  C     0.87115   0.51264   0.95527   0.00000  Uiso   1.00
C1006  C     0.79564   0.48744   0.54469   0.00000  Uiso   1.00
C1007  C     0.76328   0.47358   0.97210   0.00000  Uiso   1.00
C1008  C     0.90346   0.52664   0.52788   0.00000  Uiso   1.00
C1009  C     0.75988   0.48043   0.51822   0.00000  Uiso   1.00
C1010  C     0.90689   0.51969   0.98177   0.00000  Uiso   1.00
H1011  H     0.77831   0.46870   0.88454   0.00000  Uiso   1.00
H1012  H     0.88839   0.53154   0.61546   0.00000  Uiso   1.00
C1013  C     0.68707   0.45787   0.74691   0.00000  Uiso   1.00
C1014  C     0.97939   0.54300   0.74716   0.00000  Uiso   1.00
C1015  C     0.97909   0.45832   0.75634   0.00000  Uiso   1.00
C1016  C     0.68788   0.54282   0.75578   0.00000  Uiso   1.00
C1017  C     0.95735   0.50056   0.75134   0.00000  Uiso   1.00
C1018  C     0.70935   0.50019   0.75085   0.00000  Uiso   1.00
C1019  C     0.81662   0.35752   0.71532   0.00000  Uiso   1.00
C1020  C     0.85028   0.64244   0.78456   0.00000  Uiso   1.00
C1021  C     0.84993   0.35860   0.78478   0.00000  Uiso   1.00
C1022  C     0.81628   0.64135   0.71546   0.00000  Uiso   1.00
H1023  H     0.80315   0.37548   0.68754   0.00000  Uiso   1.00
H1024  H     0.86416   0.62446   0.81210   0.00000  Uiso   1.00
H1025  H     0.86327   0.37748   0.81275   0.00000  Uiso   1.00
H1026  H     0.80228   0.62244   0.68787   0.00000  Uiso   1.00
N1027  N     0.83333   0.61736   0.75000   0.00000  Uiso   1.00
N1028  N     0.83333   0.38264   0.75000   0.00000  Uiso   1.00
C1029  C     0.90192   0.54707   0.88433   0.00000  Uiso   1.00
H1030  H     0.92138   0.56830   0.90713   0.00000  Uiso   1.00
H1031  H     0.92083   0.52413   0.86294   0.00000  Uiso   1.00
H1032  H     0.88677   0.57346   0.86340   0.00000  Uiso   1.00
C1033  C     0.76503   0.45262   0.61550   0.00000  Uiso   1.00
H1034  H     0.74556   0.43146   0.59264   0.00000  Uiso   1.00
H1035  H     0.78032   0.42614   0.63620   0.00000  Uiso   1.00
H1036  H     0.74611   0.47534   0.63708   0.00000  Uiso   1.00
I1037  I     0.71090   0.44909   0.93466   0.00000  Uiso   1.00
I1038  I     0.95578   0.55126   0.56530   0.00000  Uiso   1.00
C1039  C     0.71784   0.48946   0.53624   0.00000  Uiso   1.00
H1040  H     0.70138   0.51387   0.51394   0.00000  Uiso   1.00
H1041  H     0.70017   0.45634   0.53816   0.00000  Uiso   1.00
H1042  H     0.71878   0.50747   0.56906   0.00000  Uiso   1.00
C1043  C     0.94894   0.51055   0.96383   0.00000  Uiso   1.00
H1044  H     0.96536   0.48622   0.98624   0.00000  Uiso   1.00
H1045  H     0.94801   0.49238   0.93108   0.00000  Uiso   1.00
H1046  H     0.96663   0.54364   0.96180   0.00000  Uiso   1.00
I1047  I     0.71063   0.39376   0.71999   0.00000  Uiso   1.00
I1048  I     0.95400   0.60693   0.72189   0.00000  Uiso   1.00
I1049  I     0.95483   0.39666   0.78644   0.00000  Uiso   1.00
I1050  I     0.71412   0.60613   0.78340   0.00000  Uiso   1.00
O1051  O     0.10655   0.87291   0.75000   0.00000  Uiso   1.00
O1052  O     0.22679   0.79375   0.75001   0.00000  Uiso   1.00
O1053  O     0.22679   0.87291   0.75001   0.00000  Uiso   1.00
O1054  O     0.10655   0.79375   0.75000   0.00000  Uiso   1.00
C1055  C     0.08731   0.83331   0.75019   0.00000  Uiso   1.00
C1056  C     0.24603   0.83349   0.75050   0.00000  Uiso   1.00
O1057  O     0.16666   0.87293   0.68513   0.00000  Uiso   1.00
O1058  O     0.16668   0.79373   0.81487   0.00000  Uiso   1.00
O1059  O     0.16668   0.87293   0.81487   0.00000  Uiso   1.00
O1060  O     0.16666   0.79373   0.68513   0.00000  Uiso   1.00
C1061  C     0.16471   0.83312   0.66449   0.00000  Uiso   1.00
C1062  C     0.16868   0.83355   0.83550   0.00000  Uiso   1.00
Cu1063 Cu    0.16667   0.88022   0.75000   0.00000  Uiso   1.00
Cu1064 Cu    0.16667   0.78645   0.75000   0.00000  Uiso   1.00
C1065  C     0.20363   0.85162   0.90833   0.00000  Uiso   1.00
C1066  C     0.12986   0.81500   0.59160   0.00000  Uiso   1.00
C1067  C     0.17007   0.83359   0.88384   0.00000  Uiso   1.00
C1068  C     0.16337   0.83310   0.61613   0.00000  Uiso   1.00
C1069  C     0.13651   0.81513   0.90509   0.00000  Uiso   1.00
C1070  C     0.19688   0.85171   0.59489   0.00000  Uiso   1.00
C1071  C     0.13360   0.81748   0.95122   0.00000  Uiso   1.00
C1072  C     0.19981   0.84938   0.54875   0.00000  Uiso   1.00
C1073  C     0.16780   0.83287   0.97662   0.00000  Uiso   1.00
C1074  C     0.16562   0.83395   0.52335   0.00000  Uiso   1.00
C1075  C     0.20448   0.84598   0.95527   0.00000  Uiso   1.00
C1076  C     0.12897   0.82077   0.54469   0.00000  Uiso   1.00
C1077  C     0.09661   0.80691   0.97210   0.00000  Uiso   1.00
C1078  C     0.23679   0.85997   0.52788   0.00000  Uiso   1.00
C1079  C     0.09321   0.81376   0.51822   0.00000  Uiso   1.00
C1080  C     0.24022   0.85303   0.98177   0.00000  Uiso   1.00
H1081  H     0.11164   0.80203   0.88454   0.00000  Uiso   1.00
H1082  H     0.22173   0.86487   0.61546   0.00000  Uiso   1.00
C1083  C     0.02040   0.79120   0.74691   0.00000  Uiso   1.00
C1084  C     0.31272   0.87633   0.74716   0.00000  Uiso   1.00
C1085  C     0.31242   0.79165   0.75634   0.00000  Uiso   1.00
C1086  C     0.02121   0.87615   0.75578   0.00000  Uiso   1.00
C1087  C     0.29068   0.83390   0.75134   0.00000  Uiso   1.00
C1088  C     0.04268   0.83352   0.75085   0.00000  Uiso   1.00
C1089  C     0.14996   0.69085   0.71532   0.00000  Uiso   1.00
C1090  C     0.18361   0.97577   0.78456   0.00000  Uiso   1.00
C1091  C     0.18327   0.69194   0.78478   0.00000  Uiso   1.00
C1092  C     0.14961   0.97468   0.71546   0.00000  Uiso   1.00
H1093  H     0.13649   0.70881   0.68754   0.00000  Uiso   1.00
H1094  H     0.19750   0.95779   0.81210   0.00000  Uiso   1.00
H1095  H     0.19660   0.71081   0.81275   0.00000  Uiso   1.00
H1096  H     0.13561   0.95577   0.68787   0.00000  Uiso   1.00
N1097  N     0.16667   0.95069   0.75000   0.00000  Uiso   1.00
N1098  N     0.16667   0.71598   0.75000   0.00000  Uiso   1.00
C1099  C     0.23525   0.88040   0.88433   0.00000  Uiso   1.00
H1100  H     0.25471   0.90163   0.90713   0.00000  Uiso   1.00
H1101  H     0.25416   0.85747   0.86294   0.00000  Uiso   1.00
H1102  H     0.22011   0.90679   0.86340   0.00000  Uiso   1.00
C1103  C     0.09837   0.78595   0.61550   0.00000  Uiso   1.00
H1104  H     0.07889   0.76480   0.59264   0.00000  Uiso   1.00
H1105  H     0.11365   0.75947   0.63620   0.00000  Uiso   1.00
H1106  H     0.07945   0.80868   0.63708   0.00000  Uiso   1.00
I1107  I     0.04424   0.78243   0.93466   0.00000  Uiso   1.00
I1108  I     0.28912   0.88459   0.56530   0.00000  Uiso   1.00
C1109  C     0.05117   0.82279   0.53624   0.00000  Uiso   1.00
H1110  H     0.03472   0.84721   0.51394   0.00000  Uiso   1.00
H1111  H     0.03350   0.78968   0.53816   0.00000  Uiso   1.00
H1112  H     0.05211   0.84080   0.56906   0.00000  Uiso   1.00
C1113  C     0.28227   0.84388   0.96383   0.00000  Uiso   1.00
H1114  H     0.29870   0.81956   0.98624   0.00000  Uiso   1.00
H1115  H     0.28135   0.82571   0.93108   0.00000  Uiso   1.00
H1116  H     0.29996   0.87697   0.96180   0.00000  Uiso   1.00
I1117  I     0.04396   0.72709   0.71999   0.00000  Uiso   1.00
I1118  I     0.28734   0.94026   0.72189   0.00000  Uiso   1.00
I1119  I     0.28816   0.72999   0.78644   0.00000  Uiso   1.00
I1120  I     0.04745   0.93946   0.78340   0.00000  Uiso   1.00
O1121  O     0.43988   0.87291   0.75000   0.00000  Uiso   1.00
O1122  O     0.56012   0.79375   0.75001   0.00000  Uiso   1.00
O1123  O     0.56012   0.87291   0.75001   0.00000  Uiso   1.00
O1124  O     0.43988   0.79375   0.75000   0.00000  Uiso   1.00
C1125  C     0.42065   0.83331   0.75019   0.00000  Uiso   1.00
C1126  C     0.57936   0.83349   0.75050   0.00000  Uiso   1.00
O1127  O     0.49999   0.87293   0.68513   0.00000  Uiso   1.00
O1128  O     0.50001   0.79373   0.81487   0.00000  Uiso   1.00
O1129  O     0.50001   0.87293   0.81487   0.00000  Uiso   1.00
O1130  O     0.49999   0.79373   0.68513   0.00000  Uiso   1.00
C1131  C     0.49804   0.83312   0.66449   0.00000  Uiso   1.00
C1132  C     0.50202   0.83355   0.83550   0.00000  Uiso   1.00
Cu1133 Cu    0.50000   0.88022   0.75000   0.00000  Uiso   1.00
Cu1134 Cu    0.50000   0.78645   0.75000   0.00000  Uiso   1.00
C1135  C     0.53697   0.85162   0.90833   0.00000  Uiso   1.00
C1136  C     0.46319   0.81500   0.59160   0.00000  Uiso   1.00
C1137  C     0.50340   0.83359   0.88384   0.00000  Uiso   1.00
C1138  C     0.49670   0.83310   0.61613   0.00000  Uiso   1.00
C1139  C     0.46985   0.81513   0.90509   0.00000  Uiso   1.00
C1140  C     0.53022   0.85171   0.59489   0.00000  Uiso   1.00
C1141  C     0.46693   0.81748   0.95122   0.00000  Uiso   1.00
C1142  C     0.53314   0.84938   0.54875   0.00000  Uiso   1.00
C1143  C     0.50114   0.83287   0.97662   0.00000  Uiso   1.00
C1144  C     0.49896   0.83395   0.52335   0.00000  Uiso   1.00
C1145  C     0.53781   0.84598   0.95527   0.00000  Uiso   1.00
C1146  C     0.46230   0.82077   0.54469   0.00000  Uiso   1.00
C1147  C     0.42994   0.80691   0.97210   0.00000  Uiso   1.00
C1148  C     0.57012   0.85997   0.52788   0.00000  Uiso   1.00
C1149  C     0.42655   0.81376   0.51822   0.00000  Uiso   1.00
C1150  C     0.57355   0.85303   0.98177   0.00000  Uiso   1.00
H1151  H     0.44497   0.80203   0.88454   0.00000  Uiso   1.00
H1152  H     0.55506   0.86487   0.61546   0.00000  Uiso   1.00
C1153  C     0.35373   0.79120   0.74691   0.00000  Uiso   1.00
C1154  C     0.64605   0.87633   0.74716   0.00000  Uiso   1.00
C1155  C     0.64576   0.79165   0.75634   0.00000  Uiso   1.00
C1156  C     0.35455   0.87615   0.75578   0.00000  Uiso   1.00
C1157  C     0.62401   0.83390   0.75134   0.00000  Uiso   1.00
C1158  C     0.37602   0.83352   0.75085   0.00000  Uiso   1.00
C1159  C     0.48329   0.69085   0.71532   0.00000  Uiso   1.00
C1160  C     0.51694   0.97577   0.78456   0.00000  Uiso   1.00
C1161  C     0.51660   0.69194   0.78478   0.00000  Uiso   1.00
C1162  C     0.48295   0.97468   0.71546   0.00000  Uiso   1.00
H1163  H     0.46982   0.70881   0.68754   0.00000  Uiso   1.00
H1164  H     0.53083   0.95779   0.81210   0.00000  Uiso   1.00
H1165  H     0.52994   0.71081   0.81275   0.00000  Uiso   1.00
H1166  H     0.46894   0.95577   0.68787   0.00000  Uiso   1.00
N1167  N     0.50000   0.95069   0.75000   0.00000  Uiso   1.00
N1168  N     0.50000   0.71598   0.75000   0.00000  Uiso   1.00
C1169  C     0.56858   0.88040   0.88433   0.00000  Uiso   1.00
H1170  H     0.58805   0.90163   0.90713   0.00000  Uiso   1.00
H1171  H     0.58750   0.85747   0.86294   0.00000  Uiso   1.00
H1172  H     0.55344   0.90679   0.86340   0.00000  Uiso   1.00
C1173  C     0.43170   0.78595   0.61550   0.00000  Uiso   1.00
H1174  H     0.41223   0.76480   0.59264   0.00000  Uiso   1.00
H1175  H     0.44699   0.75947   0.63620   0.00000  Uiso   1.00
H1176  H     0.41278   0.80868   0.63708   0.00000  Uiso   1.00
I1177  I     0.37757   0.78243   0.93466   0.00000  Uiso   1.00
I1178  I     0.62245   0.88459   0.56530   0.00000  Uiso   1.00
C1179  C     0.38451   0.82279   0.53624   0.00000  Uiso   1.00
H1180  H     0.36805   0.84721   0.51394   0.00000  Uiso   1.00
H1181  H     0.36683   0.78968   0.53816   0.00000  Uiso   1.00
H1182  H     0.38544   0.84080   0.56906   0.00000  Uiso   1.00
C1183  C     0.61560   0.84388   0.96383   0.00000  Uiso   1.00
H1184  H     0.63203   0.81956   0.98624   0.00000  Uiso   1.00
H1185  H     0.61468   0.82571   0.93108   0.00000  Uiso   1.00
H1186  H     0.63330   0.87697   0.96180   0.00000  Uiso   1.00
I1187  I     0.37729   0.72709   0.71999   0.00000  Uiso   1.00
I1188  I     0.62067   0.94026   0.72189   0.00000  Uiso   1.00
I1189  I     0.62149   0.72999   0.78644   0.00000  Uiso   1.00
I1190  I     0.38079   0.93946   0.78340   0.00000  Uiso   1.00
O1191  O     0.77321   0.87291   0.75000   0.00000  Uiso   1.00
O1192  O     0.89345   0.79375   0.75001   0.00000  Uiso   1.00
O1193  O     0.89345   0.87291   0.75001   0.00000  Uiso   1.00
O1194  O     0.77321   0.79375   0.75000   0.00000  Uiso   1.00
C1195  C     0.75398   0.83331   0.75019   0.00000  Uiso   1.00
C1196  C     0.91269   0.83349   0.75050   0.00000  Uiso   1.00
O1197  O     0.83332   0.87293   0.68513   0.00000  Uiso   1.00
O1198  O     0.83334   0.79373   0.81487   0.00000  Uiso   1.00
O1199  O     0.83334   0.87293   0.81487   0.00000  Uiso   1.00
O1200  O     0.83332   0.79373   0.68513   0.00000  Uiso   1.00
C1201  C     0.83138   0.83312   0.66449   0.00000  Uiso   1.00
C1202  C     0.83535   0.83355   0.83550   0.00000  Uiso   1.00
Cu1203 Cu    0.83333   0.88022   0.75000   0.00000  Uiso   1.00
Cu1204 Cu    0.83333   0.78645   0.75000   0.00000  Uiso   1.00
C1205  C     0.87030   0.85162   0.90833   0.00000  Uiso   1.00
C1206  C     0.79652   0.81500   0.59160   0.00000  Uiso   1.00
C1207  C     0.83674   0.83359   0.88384   0.00000  Uiso   1.00
C1208  C     0.83003   0.83310   0.61613   0.00000  Uiso   1.00
C1209  C     0.80318   0.81513   0.90509   0.00000  Uiso   1.00
C1210  C     0.86355   0.85171   0.59489   0.00000  Uiso   1.00
C1211  C     0.80026   0.81748   0.95122   0.00000  Uiso   1.00
C1212  C     0.86648   0.84938   0.54875   0.00000  Uiso   1.00
C1213  C     0.83447   0.83287   0.97662   0.00000  Uiso   1.00
C1214  C     0.83229   0.83395   0.52335   0.00000  Uiso   1.00
C1215  C     0.87115   0.84598   0.95527   0.00000  Uiso   1.00
C1216  C     0.79564   0.82077   0.54469   0.00000  Uiso   1.00
C1217  C     0.76328   0.80691   0.97210   0.00000  Uiso   1.00
C1218  C     0.90346   0.85997   0.52788   0.00000  Uiso   1.00
C1219  C     0.75988   0.81376   0.51822   0.00000  Uiso   1.00
C1220  C     0.90689   0.85303   0.98177   0.00000  Uiso   1.00
H1221  H     0.77831   0.80203   0.88454   0.00000  Uiso   1.00
H1222  H     0.88839   0.86487   0.61546   0.00000  Uiso   1.00
C1223  C     0.68707   0.79120   0.74691   0.00000  Uiso   1.00
C1224  C     0.97939   0.87633   0.74716   0.00000  Uiso   1.00
C1225  C     0.97909   0.79165   0.75634   0.00000  Uiso   1.00
C1226  C     0.68788   0.87615   0.75578   0.00000  Uiso   1.00
C1227  C     0.95735   0.83390   0.75134   0.00000  Uiso   1.00
C1228  C     0.70935   0.83352   0.75085   0.00000  Uiso   1.00
C1229  C     0.81662   0.69085   0.71532   0.00000  Uiso   1.00
C1230  C     0.85028   0.97577   0.78456   0.00000  Uiso   1.00
C1231  C     0.84993   0.69194   0.78478   0.00000  Uiso   1.00
C1232  C     0.81628   0.97468   0.71546   0.00000  Uiso   1.00
H1233  H     0.80315   0.70881   0.68754   0.00000  Uiso   1.00
H1234  H     0.86416   0.95779   0.81210   0.00000  Uiso   1.00
H1235  H     0.86327   0.71081   0.81275   0.00000  Uiso   1.00
H1236  H     0.80228   0.95577   0.68787   0.00000  Uiso   1.00
N1237  N     0.83333   0.95069   0.75000   0.00000  Uiso   1.00
N1238  N     0.83333   0.71598   0.75000   0.00000  Uiso   1.00
C1239  C     0.90192   0.88040   0.88433   0.00000  Uiso   1.00
H1240  H     0.92138   0.90163   0.90713   0.00000  Uiso   1.00
H1241  H     0.92083   0.85747   0.86294   0.00000  Uiso   1.00
H1242  H     0.88677   0.90679   0.86340   0.00000  Uiso   1.00
C1243  C     0.76503   0.78595   0.61550   0.00000  Uiso   1.00
H1244  H     0.74556   0.76480   0.59264   0.00000  Uiso   1.00
H1245  H     0.78032   0.75947   0.63620   0.00000  Uiso   1.00
H1246  H     0.74611   0.80868   0.63708   0.00000  Uiso   1.00
I1247  I     0.71090   0.78243   0.93466   0.00000  Uiso   1.00
I1248  I     0.95578   0.88459   0.56530   0.00000  Uiso   1.00
C1249  C     0.71784   0.82279   0.53624   0.00000  Uiso   1.00
H1250  H     0.70138   0.84721   0.51394   0.00000  Uiso   1.00
H1251  H     0.70017   0.78968   0.53816   0.00000  Uiso   1.00
H1252  H     0.71878   0.84080   0.56906   0.00000  Uiso   1.00
C1253  C     0.94894   0.84388   0.96383   0.00000  Uiso   1.00
H1254  H     0.96536   0.81956   0.98624   0.00000  Uiso   1.00
H1255  H     0.94801   0.82571   0.93108   0.00000  Uiso   1.00
H1256  H     0.96663   0.87697   0.96180   0.00000  Uiso   1.00
I1257  I     0.71063   0.72709   0.71999   0.00000  Uiso   1.00
I1258  I     0.95400   0.94026   0.72189   0.00000  Uiso   1.00
I1259  I     0.95483   0.72999   0.78644   0.00000  Uiso   1.00
I1260  I     0.71412   0.93946   0.78340   0.00000  Uiso   1.00
loop_
_geom_bond_atom_site_label_1
_geom_bond_atom_site_label_2
_geom_bond_distance
_geom_bond_site_symmetry_2
_ccdc_geom_bond_type
O1     C5      1.293   .     A
O1     Cu13    1.985   .     S
O2     C6      1.297   .     A
O2     Cu14    1.985   .     S
O3     Cu13    1.987   .     S
O3     C6      1.294   .     A
O4     Cu14    1.987   .     S
O4     C5      1.297   .     A
C5     C38     1.466   .     S
C6     C37     1.467   .     S
O7     C11     1.290   .     A
O7     Cu13    1.960   .     S
O8     C12     1.290   .     A
O8     Cu14    1.960   .     S
O9     C12     1.292   .     A
O9     Cu13    1.964   .     S
O10    C11     1.293   .     A
O10    Cu14    1.964   .     S
C11    C18     1.454   .     S
C12    C17     1.454   .     S
Cu13   Cu14    2.679   .     S
Cu13   N47     2.013   .     S
Cu14   N48     2.013   .     S
C15    C49     1.518   .     S
C15    C25     1.423   .     A
C15    C17     1.409   .     A
C16    C18     1.409   .     A
C16    C53     1.517   .     S
C16    C26     1.422   .     A
C17    C19     1.387   .     A
C18    C20     1.387   .     A
C19    H31     1.080   .     S
C19    C21     1.393   .     A
C20    H32     1.081   .     S
C20    C22     1.393   .     A
C21    C27     1.409   .     A
C21    C23     1.415   .     A
C22    C28     1.409   .     A
C22    C24     1.415   .     A
C23    C25     1.424   .     A
C23    C654    1.408   .     S
C24    C26     1.424   .     A
C24    C653    1.408   1_554 S
C25    C30     1.422   .     A
C26    C29     1.422   .     A
C27    I57     2.152   .     S
C27    C659    1.405   .     S
C28    I58     2.152   .     S
C28    C660    1.405   1_554 S
C29    C59     1.513   .     S
C29    C657    1.405   1_554 S
C30    C63     1.513   .     S
C30    C658    1.405   .     S
C33    C38     1.413   .     A
C33    I67     2.146   .     S
C33    C175    1.390   1_455 S
C34    C37     1.417   .     A
C34    I68     2.153   .     S
C34    C106    1.395   .     S
C35    I69     2.145   .     S
C35    C37     1.413   .     A
C35    C103    1.390   .     S
C36    C38     1.417   .     A
C36    I70     2.153   .     S
C36    C174    1.395   1_455 S
C39    N48     1.367   .     A
C39    H43     1.076   .     S
C39    C462    1.414   1_545 S
C40    N47     1.366   .     A
C40    H44     1.077   .     S
C40    C251    1.414   .     S
C41    H45     1.081   .     S
C41    N48     1.366   .     A
C41    C460    1.414   1_545 S
C42    H46     1.081   .     S
C42    N47     1.366   .     A
C42    C249    1.414   .     S
C49    H52     1.103   .     S
C49    H51     1.111   .     S
C49    H50     1.105   .     S
C53    H54     1.105   .     S
C53    H55     1.103   .     S
C53    H56     1.111   .     S
C59    H60     1.110   .     S
C59    H61     1.110   .     S
C59    H62     1.108   .     S
C63    H65     1.108   .     S
C63    H64     1.110   .     S
C63    H66     1.110   .     S
O71    C75     1.293   .     A
O71    Cu83    1.985   .     S
O72    C76     1.297   .     A
O72    Cu84    1.985   .     S
O73    Cu83    1.987   .     S
O73    C76     1.294   .     A
O74    Cu84    1.987   .     S
O74    C75     1.297   .     A
C75    C108    1.466   .     S
C76    C107    1.467   .     S
O77    C81     1.290   .     A
O77    Cu83    1.960   .     S
O78    C82     1.290   .     A
O78    Cu84    1.960   .     S
O79    C82     1.292   .     A
O79    Cu83    1.964   .     S
O80    C81     1.293   .     A
O80    Cu84    1.964   .     S
C81    C88     1.454   .     S
C82    C87     1.454   .     S
Cu83   Cu84    2.679   .     S
Cu83   N117    2.013   .     S
Cu84   N118    2.013   .     S
C85    C119    1.518   .     S
C85    C95     1.423   .     A
C85    C87     1.409   .     A
C86    C88     1.409   .     A
C86    C123    1.517   .     S
C86    C96     1.422   .     A
C87    C89     1.387   .     A
C88    C90     1.387   .     A
C89    H101    1.080   .     S
C89    C91     1.393   .     A
C90    H102    1.081   .     S
C90    C92     1.393   .     A
C91    C97     1.409   .     A
C91    C93     1.415   .     A
C92    C98     1.409   .     A
C92    C94     1.415   .     A
C93    C95     1.424   .     A
C93    C724    1.408   .     S
C94    C96     1.424   .     A
C94    C723    1.408   1_554 S
C95    C100    1.422   .     A
C96    C99     1.422   .     A
C97    I127    2.152   .     S
C97    C729    1.405   .     S
C98    I128    2.152   .     S
C98    C730    1.405   1_554 S
C99    C129    1.513   .     S
C99    C727    1.405   1_554 S
C100   C133    1.513   .     S
C100   C728    1.405   .     S
C103   C108    1.413   .     A
C103   I137    2.146   .     S
C104   C107    1.417   .     A
C104   I138    2.153   .     S
C104   C176    1.395   .     S
C105   I139    2.145   .     S
C105   C107    1.413   .     A
C105   C173    1.390   .     S
C106   C108    1.417   .     A
C106   I140    2.153   .     S
C109   N118    1.367   .     A
C109   H113    1.076   .     S
C109   C532    1.414   1_545 S
C110   N117    1.366   .     A
C110   H114    1.077   .     S
C110   C321    1.414   .     S
C111   H115    1.081   .     S
C111   N118    1.366   .     A
C111   C530    1.414   1_545 S
C112   H116    1.081   .     S
C112   N117    1.366   .     A
C112   C319    1.414   .     S
C119   H122    1.103   .     S
C119   H121    1.111   .     S
C119   H120    1.105   .     S
C123   H124    1.105   .     S
C123   H125    1.103   .     S
C123   H126    1.111   .     S
C129   H130    1.110   .     S
C129   H131    1.110   .     S
C129   H132    1.108   .     S
C133   H135    1.108   .     S
C133   H134    1.110   .     S
C133   H136    1.110   .     S
O141   C145    1.293   .     A
O141   Cu153   1.985   .     S
O142   C146    1.297   .     A
O142   Cu154   1.985   .     S
O143   Cu153   1.987   .     S
O143   C146    1.294   .     A
O144   Cu154   1.987   .     S
O144   C145    1.297   .     A
C145   C178    1.466   .     S
C146   C177    1.467   .     S
O147   C151    1.290   .     A
O147   Cu153   1.960   .     S
O148   C152    1.290   .     A
O148   Cu154   1.960   .     S
O149   C152    1.292   .     A
O149   Cu153   1.964   .     S
O150   C151    1.293   .     A
O150   Cu154   1.964   .     S
C151   C158    1.454   .     S
C152   C157    1.454   .     S
Cu153  Cu154   2.679   .     S
Cu153  N187    2.013   .     S
Cu154  N188    2.013   .     S
C155   C189    1.518   .     S
C155   C165    1.423   .     A
C155   C157    1.409   .     A
C156   C158    1.409   .     A
C156   C193    1.517   .     S
C156   C166    1.422   .     A
C157   C159    1.387   .     A
C158   C160    1.387   .     A
C159   H171    1.080   .     S
C159   C161    1.393   .     A
C160   H172    1.081   .     S
C160   C162    1.393   .     A
C161   C167    1.409   .     A
C161   C163    1.415   .     A
C162   C168    1.409   .     A
C162   C164    1.415   .     A
C163   C165    1.424   .     A
C163   C794    1.408   .     S
C164   C166    1.424   .     A
C164   C793    1.408   1_554 S
C165   C170    1.422   .     A
C166   C169    1.422   .     A
C167   I197    2.152   .     S
C167   C799    1.405   .     S
C168   I198    2.152   .     S
C168   C800    1.405   1_554 S
C169   C199    1.513   .     S
C169   C797    1.405   1_554 S
C170   C203    1.513   .     S
C170   C798    1.405   .     S
C173   C178    1.413   .     A
C173   I207    2.146   .     S
C174   C177    1.417   .     A
C174   I208    2.153   .     S
C174   C36     1.395   1_655 S
C175   I209    2.145   .     S
C175   C177    1.413   .     A
C175   C33     1.390   1_655 S
C176   C178    1.417   .     A
C176   I210    2.153   .     S
C179   N188    1.367   .     A
C179   H183    1.076   .     S
C179   C602    1.414   1_545 S
C180   N187    1.366   .     A
C180   H184    1.077   .     S
C180   C391    1.414   .     S
C181   H185    1.081   .     S
C181   N188    1.366   .     A
C181   C600    1.414   1_545 S
C182   H186    1.081   .     S
C182   N187    1.366   .     A
C182   C389    1.414   .     S
C189   H192    1.103   .     S
C189   H191    1.111   .     S
C189   H190    1.105   .     S
C193   H194    1.105   .     S
C193   H195    1.103   .     S
C193   H196    1.111   .     S
C199   H200    1.110   .     S
C199   H201    1.110   .     S
C199   H202    1.108   .     S
C203   H205    1.108   .     S
C203   H204    1.110   .     S
C203   H206    1.110   .     S
O211   C215    1.293   .     A
O211   Cu223   1.985   .     S
O212   C216    1.297   .     A
O212   Cu224   1.985   .     S
O213   Cu223   1.987   .     S
O213   C216    1.294   .     A
O214   Cu224   1.987   .     S
O214   C215    1.297   .     A
C215   C248    1.466   .     S
C216   C247    1.467   .     S
O217   C221    1.290   .     A
O217   Cu223   1.960   .     S
O218   C222    1.290   .     A
O218   Cu224   1.960   .     S
O219   C222    1.292   .     A
O219   Cu223   1.964   .     S
O220   C221    1.293   .     A
O220   Cu224   1.964   .     S
C221   C228    1.454   .     S
C222   C227    1.454   .     S
Cu223  Cu224   2.679   .     S
Cu223  N257    2.013   .     S
Cu224  N258    2.013   .     S
C225   C259    1.518   .     S
C225   C235    1.423   .     A
C225   C227    1.409   .     A
C226   C228    1.409   .     A
C226   C263    1.517   .     S
C226   C236    1.422   .     A
C227   C229    1.387   .     A
C228   C230    1.387   .     A
C229   H241    1.080   .     S
C229   C231    1.393   .     A
C230   H242    1.081   .     S
C230   C232    1.393   .     A
C231   C237    1.409   .     A
C231   C233    1.415   .     A
C232   C238    1.409   .     A
C232   C234    1.415   .     A
C233   C235    1.424   .     A
C233   C864    1.408   .     S
C234   C236    1.424   .     A
C234   C863    1.408   1_554 S
C235   C240    1.422   .     A
C236   C239    1.422   .     A
C237   I267    2.152   .     S
C237   C869    1.405   .     S
C238   I268    2.152   .     S
C238   C870    1.405   1_554 S
C239   C269    1.513   .     S
C239   C867    1.405   1_554 S
C240   C273    1.513   .     S
C240   C868    1.405   .     S
C243   C248    1.413   .     A
C243   I277    2.146   .     S
C243   C385    1.390   1_455 S
C244   C247    1.417   .     A
C244   I278    2.153   .     S
C244   C316    1.395   .     S
C245   I279    2.145   .     S
C245   C247    1.413   .     A
C245   C313    1.390   .     S
C246   C248    1.417   .     A
C246   I280    2.153   .     S
C246   C384    1.395   1_455 S
C249   N258    1.367   .     A
C249   H253    1.076   .     S
C250   N257    1.366   .     A
C250   H254    1.077   .     S
C250   C461    1.414   .     S
C251   H255    1.081   .     S
C251   N258    1.366   .     A
C252   H256    1.081   .     S
C252   N257    1.366   .     A
C252   C459    1.414   .     S
C259   H262    1.103   .     S
C259   H261    1.111   .     S
C259   H260    1.105   .     S
C263   H264    1.105   .     S
C263   H265    1.103   .     S
C263   H266    1.111   .     S
C269   H270    1.110   .     S
C269   H271    1.110   .     S
C269   H272    1.108   .     S
C273   H275    1.108   .     S
C273   H274    1.110   .     S
C273   H276    1.110   .     S
O281   C285    1.293   .     A
O281   Cu293   1.985   .     S
O282   C286    1.297   .     A
O282   Cu294   1.985   .     S
O283   Cu293   1.987   .     S
O283   C286    1.294   .     A
O284   Cu294   1.987   .     S
O284   C285    1.297   .     A
C285   C318    1.466   .     S
C286   C317    1.467   .     S
O287   C291    1.290   .     A
O287   Cu293   1.960   .     S
O288   C292    1.290   .     A
O288   Cu294   1.960   .     S
O289   C292    1.292   .     A
O289   Cu293   1.964   .     S
O290   C291    1.293   .     A
O290   Cu294   1.964   .     S
C291   C298    1.454   .     S
C292   C297    1.454   .     S
Cu293  Cu294   2.679   .     S
Cu293  N327    2.013   .     S
Cu294  N328    2.013   .     S
C295   C329    1.518   .     S
C295   C305    1.423   .     A
C295   C297    1.409   .     A
C296   C298    1.409   .     A
C296   C333    1.517   .     S
C296   C306    1.422   .     A
C297   C299    1.387   .     A
C298   C300    1.387   .     A
C299   H311    1.080   .     S
C299   C301    1.393   .     A
C300   H312    1.081   .     S
C300   C302    1.393   .     A
C301   C307    1.409   .     A
C301   C303    1.415   .     A
C302   C308    1.409   .     A
C302   C304    1.415   .     A
C303   C305    1.424   .     A
C303   C934    1.408   .     S
C304   C306    1.424   .     A
C304   C933    1.408   1_554 S
C305   C310    1.422   .     A
C306   C309    1.422   .     A
C307   I337    2.152   .     S
C307   C939    1.405   .     S
C308   I338    2.152   .     S
C308   C940    1.405   1_554 S
C309   C339    1.513   .     S
C309   C937    1.405   1_554 S
C310   C343    1.513   .     S
C310   C938    1.405   .     S
C313   C318    1.413   .     A
C313   I347    2.146   .     S
C314   C317    1.417   .     A
C314   I348    2.153   .     S
C314   C386    1.395   .     S
C315   I349    2.145   .     S
C315   C317    1.413   .     A
C315   C383    1.390   .     S
C316   C318    1.417   .     A
C316   I350    2.153   .     S
C319   N328    1.367   .     A
C319   H323    1.076   .     S
C320   N327    1.366   .     A
C320   H324    1.077   .     S
C320   C531    1.414   .     S
C321   H325    1.081   .     S
C321   N328    1.366   .     A
C322   H326    1.081   .     S
C322   N327    1.366   .     A
C322   C529    1.414   .     S
C329   H332    1.103   .     S
C329   H331    1.111   .     S
C329   H330    1.105   .     S
C333   H334    1.105   .     S
C333   H335    1.103   .     S
C333   H336    1.111   .     S
C339   H340    1.110   .     S
C339   H341    1.110   .     S
C339   H342    1.108   .     S
C343   H345    1.108   .     S
C343   H344    1.110   .     S
C343   H346    1.110   .     S
O351   C355    1.293   .     A
O351   Cu363   1.985   .     S
O352   C356    1.297   .     A
O352   Cu364   1.985   .     S
O353   Cu363   1.987   .     S
O353   C356    1.294   .     A
O354   Cu364   1.987   .     S
O354   C355    1.297   .     A
C355   C388    1.466   .     S
C356   C387    1.467   .     S
O357   C361    1.290   .     A
O357   Cu363   1.960   .     S
O358   C362    1.290   .     A
O358   Cu364   1.960   .     S
O359   C362    1.292   .     A
O359   Cu363   1.964   .     S
O360   C361    1.293   .     A
O360   Cu364   1.964   .     S
C361   C368    1.454   .     S
C362   C367    1.454   .     S
Cu363  Cu364   2.679   .     S
Cu363  N397    2.013   .     S
Cu364  N398    2.013   .     S
C365   C399    1.518   .     S
C365   C375    1.423   .     A
C365   C367    1.409   .     A
C366   C368    1.409   .     A
C366   C403    1.517   .     S
C366   C376    1.422   .     A
C367   C369    1.387   .     A
C368   C370    1.387   .     A
C369   H381    1.080   .     S
C369   C371    1.393   .     A
C370   H382    1.081   .     S
C370   C372    1.393   .     A
C371   C377    1.409   .     A
C371   C373    1.415   .     A
C372   C378    1.409   .     A
C372   C374    1.415   .     A
C373   C375    1.424   .     A
C373   C1004   1.408   .     S
C374   C376    1.424   .     A
C374   C1003   1.408   1_554 S
C375   C380    1.422   .     A
C376   C379    1.422   .     A
C377   I407    2.152   .     S
C377   C1009   1.405   .     S
C378   I408    2.152   .     S
C378   C1010   1.405   1_554 S
C379   C409    1.513   .     S
C379   C1007   1.405   1_554 S
C380   C413    1.513   .     S
C380   C1008   1.405   .     S
C383   C388    1.413   .     A
C383   I417    2.146   .     S
C384   C387    1.417   .     A
C384   I418    2.153   .     S
C384   C246    1.395   1_655 S
C385   I419    2.145   .     S
C385   C387    1.413   .     A
C385   C243    1.390   1_655 S
C386   C388    1.417   .     A
C386   I420    2.153   .     S
C389   N398    1.367   .     A
C389   H393    1.076   .     S
C390   N397    1.366   .     A
C390   H394    1.077   .     S
C390   C601    1.414   .     S
C391   H395    1.081   .     S
C391   N398    1.366   .     A
C392   H396    1.081   .     S
C392   N397    1.366   .     A
C392   C599    1.414   .     S
C399   H402    1.103   .     S
C399   H401    1.111   .     S
C399   H400    1.105   .     S
C403   H404    1.105   .     S
C403   H405    1.103   .     S
C403   H406    1.111   .     S
C409   H410    1.110   .     S
C409   H411    1.110   .     S
C409   H412    1.108   .     S
C413   H415    1.108   .     S
C413   H414    1.110   .     S
C413   H416    1.110   .     S
O421   C425    1.293   .     A
O421   Cu433   1.985   .     S
O422   C426    1.297   .     A
O422   Cu434   1.985   .     S
O423   Cu433   1.987   .     S
O423   C426    1.294   .     A
O424   Cu434   1.987   .     S
O424   C425    1.297   .     A
C425   C458    1.466   .     S
C426   C457    1.467   .     S
O427   C431    1.290   .     A
O427   Cu433   1.960   .     S
O428   C432    1.290   .     A
O428   Cu434   1.960   .     S
O429   C432    1.292   .     A
O429   Cu433   1.964   .     S
O430   C431    1.293   .     A
O430   Cu434   1.964   .     S
C431   C438    1.454   .     S
C432   C437    1.454   .     S
Cu433  Cu434   2.679   .     S
Cu433  N467    2.013   .     S
Cu434  N468    2.013   .     S
C435   C469    1.518   .     S
C435   C445    1.423   .     A
C435   C437    1.409   .     A
C436   C438    1.409   .     A
C436   C473    1.517   .     S
C436   C446    1.422   .     A
C437   C439    1.387   .     A
C438   C440    1.387   .     A
C439   H451    1.080   .     S
C439   C441    1.393   .     A
C440   H452    1.081   .     S
C440   C442    1.393   .     A
C441   C447    1.409   .     A
C441   C443    1.415   .     A
C442   C448    1.409   .     A
C442   C444    1.415   .     A
C443   C445    1.424   .     A
C443   C1074   1.408   .     S
C444   C446    1.424   .     A
C444   C1073   1.408   1_554 S
C445   C450    1.422   .     A
C446   C449    1.422   .     A
C447   I477    2.152   .     S
C447   C1079   1.405   .     S
C448   I478    2.152   .     S
C448   C1080   1.405   1_554 S
C449   C479    1.513   .     S
C449   C1077   1.405   1_554 S
C450   C483    1.513   .     S
C450   C1078   1.405   .     S
C453   C458    1.413   .     A
C453   I487    2.146   .     S
C453   C595    1.390   1_455 S
C454   C457    1.417   .     A
C454   I488    2.153   .     S
C454   C526    1.395   .     S
C455   I489    2.145   .     S
C455   C457    1.413   .     A
C455   C523    1.390   .     S
C456   C458    1.417   .     A
C456   I490    2.153   .     S
C456   C594    1.395   1_455 S
C459   N468    1.367   .     A
C459   H463    1.076   .     S
C460   N467    1.366   .     A
C460   H464    1.077   .     S
C460   C41     1.414   1_565 S
C461   H465    1.081   .     S
C461   N468    1.366   .     A
C462   H466    1.081   .     S
C462   N467    1.366   .     A
C462   C39     1.414   1_565 S
C469   H472    1.103   .     S
C469   H471    1.111   .     S
C469   H470    1.105   .     S
C473   H474    1.105   .     S
C473   H475    1.103   .     S
C473   H476    1.111   .     S
C479   H480    1.110   .     S
C479   H481    1.110   .     S
C479   H482    1.108   .     S
C483   H485    1.108   .     S
C483   H484    1.110   .     S
C483   H486    1.110   .     S
O491   C495    1.293   .     A
O491   Cu503   1.985   .     S
O492   C496    1.297   .     A
O492   Cu504   1.985   .     S
O493   Cu503   1.987   .     S
O493   C496    1.294   .     A
O494   Cu504   1.987   .     S
O494   C495    1.297   .     A
C495   C528    1.466   .     S
C496   C527    1.467   .     S
O497   C501    1.290   .     A
O497   Cu503   1.960   .     S
O498   C502    1.290   .     A
O498   Cu504   1.960   .     S
O499   C502    1.292   .     A
O499   Cu503   1.964   .     S
O500   C501    1.293   .     A
O500   Cu504   1.964   .     S
C501   C508    1.454   .     S
C502   C507    1.454   .     S
Cu503  Cu504   2.679   .     S
Cu503  N537    2.013   .     S
Cu504  N538    2.013   .     S
C505   C539    1.518   .     S
C505   C515    1.423   .     A
C505   C507    1.409   .     A
C506   C508    1.409   .     A
C506   C543    1.517   .     S
C506   C516    1.422   .     A
C507   C509    1.387   .     A
C508   C510    1.387   .     A
C509   H521    1.080   .     S
C509   C511    1.393   .     A
C510   H522    1.081   .     S
C510   C512    1.393   .     A
C511   C517    1.409   .     A
C511   C513    1.415   .     A
C512   C518    1.409   .     A
C512   C514    1.415   .     A
C513   C515    1.424   .     A
C513   C1144   1.408   .     S
C514   C516    1.424   .     A
C514   C1143   1.408   1_554 S
C515   C520    1.422   .     A
C516   C519    1.422   .     A
C517   I547    2.152   .     S
C517   C1149   1.405   .     S
C518   I548    2.152   .     S
C518   C1150   1.405   1_554 S
C519   C549    1.513   .     S
C519   C1147   1.405   1_554 S
C520   C553    1.513   .     S
C520   C1148   1.405   .     S
C523   C528    1.413   .     A
C523   I557    2.146   .     S
C524   C527    1.417   .     A
C524   I558    2.153   .     S
C524   C596    1.395   .     S
C525   I559    2.145   .     S
C525   C527    1.413   .     A
C525   C593    1.390   .     S
C526   C528    1.417   .     A
C526   I560    2.153   .     S
C529   N538    1.367   .     A
C529   H533    1.076   .     S
C530   N537    1.366   .     A
C530   H534    1.077   .     S
C530   C111    1.414   1_565 S
C531   H535    1.081   .     S
C531   N538    1.366   .     A
C532   H536    1.081   .     S
C532   N537    1.366   .     A
C532   C109    1.414   1_565 S
C539   H542    1.103   .     S
C539   H541    1.111   .     S
C539   H540    1.105   .     S
C543   H544    1.105   .     S
C543   H545    1.103   .     S
C543   H546    1.111   .     S
C549   H550    1.110   .     S
C549   H551    1.110   .     S
C549   H552    1.108   .     S
C553   H555    1.108   .     S
C553   H554    1.110   .     S
C553   H556    1.110   .     S
O561   C565    1.293   .     A
O561   Cu573   1.985   .     S
O562   C566    1.297   .     A
O562   Cu574   1.985   .     S
O563   Cu573   1.987   .     S
O563   C566    1.294   .     A
O564   Cu574   1.987   .     S
O564   C565    1.297   .     A
C565   C598    1.466   .     S
C566   C597    1.467   .     S
O567   C571    1.290   .     A
O567   Cu573   1.960   .     S
O568   C572    1.290   .     A
O568   Cu574   1.960   .     S
O569   C572    1.292   .     A
O569   Cu573   1.964   .     S
O570   C571    1.293   .     A
O570   Cu574   1.964   .     S
C571   C578    1.454   .     S
C572   C577    1.454   .     S
Cu573  Cu574   2.679   .     S
Cu573  N607    2.013   .     S
Cu574  N608    2.013   .     S
C575   C609    1.518   .     S
C575   C585    1.423   .     A
C575   C577    1.409   .     A
C576   C578    1.409   .     A
C576   C613    1.517   .     S
C576   C586    1.422   .     A
C577   C579    1.387   .     A
C578   C580    1.387   .     A
C579   H591    1.080   .     S
C579   C581    1.393   .     A
C580   H592    1.081   .     S
C580   C582    1.393   .     A
C581   C587    1.409   .     A
C581   C583    1.415   .     A
C582   C588    1.409   .     A
C582   C584    1.415   .     A
C583   C585    1.424   .     A
C583   C1214   1.408   .     S
C584   C586    1.424   .     A
C584   C1213   1.408   1_554 S
C585   C590    1.422   .     A
C586   C589    1.422   .     A
C587   I617    2.152   .     S
C587   C1219   1.405   .     S
C588   I618    2.152   .     S
C588   C1220   1.405   1_554 S
C589   C619    1.513   .     S
C589   C1217   1.405   1_554 S
C590   C623    1.513   .     S
C590   C1218   1.405   .     S
C593   C598    1.413   .     A
C593   I627    2.146   .     S
C594   C597    1.417   .     A
C594   I628    2.153   .     S
C594   C456    1.395   1_655 S
C595   I629    2.145   .     S
C595   C597    1.413   .     A
C595   C453    1.390   1_655 S
C596   C598    1.417   .     A
C596   I630    2.153   .     S
C599   N608    1.367   .     A
C599   H603    1.076   .     S
C600   N607    1.366   .     A
C600   H604    1.077   .     S
C600   C181    1.414   1_565 S
C601   H605    1.081   .     S
C601   N608    1.366   .     A
C602   H606    1.081   .     S
C602   N607    1.366   .     A
C602   C179    1.414   1_565 S
C609   H612    1.103   .     S
C609   H611    1.111   .     S
C609   H610    1.105   .     S
C613   H614    1.105   .     S
C613   H615    1.103   .     S
C613   H616    1.111   .     S
C619   H620    1.110   .     S
C619   H621    1.110   .     S
C619   H622    1.108   .     S
C623   H625    1.108   .     S
C623   H624    1.110   .     S
C623   H626    1.110   .     S
O631   C635    1.293   .     A
O631   Cu643   1.985   .     S
O632   C636    1.297   .     A
O632   Cu644   1.985   .     S
O633   Cu643   1.987   .     S
O633   C636    1.294   .     A
O634   Cu644   1.987   .     S
O634   C635    1.297   .     A
C635   C668    1.466   .     S
C636   C667    1.467   .     S
O637   C641    1.290   .     A
O637   Cu643   1.960   .     S
O638   C642    1.290   .     A
O638   Cu644   1.960   .     S
O639   C642    1.292   .     A
O639   Cu643   1.964   .     S
O640   C641    1.293   .     A
O640   Cu644   1.964   .     S
C641   C648    1.454   .     S
C642   C647    1.454   .     S
Cu643  Cu644   2.679   .     S
Cu643  N677    2.013   .     S
Cu644  N678    2.013   .     S
C645   C679    1.518   .     S
C645   C655    1.423   .     A
C645   C647    1.409   .     A
C646   C648    1.409   .     A
C646   C683    1.517   .     S
C646   C656    1.422   .     A
C647   C649    1.387   .     A
C648   C650    1.387   .     A
C649   H661    1.080   .     S
C649   C651    1.393   .     A
C650   H662    1.081   .     S
C650   C652    1.393   .     A
C651   C657    1.409   .     A
C651   C653    1.415   .     A
C652   C658    1.409   .     A
C652   C654    1.415   .     A
C653   C655    1.424   .     A
C653   C24     1.408   1_556 S
C654   C656    1.424   .     A
C655   C660    1.422   .     A
C656   C659    1.422   .     A
C657   I687    2.152   .     S
C657   C29     1.405   1_556 S
C658   I688    2.152   .     S
C659   C689    1.513   .     S
C660   C693    1.513   .     S
C660   C28     1.405   1_556 S
C663   C668    1.413   .     A
C663   I697    2.146   .     S
C663   C805    1.390   1_455 S
C664   C667    1.417   .     A
C664   I698    2.153   .     S
C664   C736    1.395   .     S
C665   I699    2.145   .     S
C665   C667    1.413   .     A
C665   C733    1.390   .     S
C666   C668    1.417   .     A
C666   I700    2.153   .     S
C666   C804    1.395   1_455 S
C669   N678    1.367   .     A
C669   H673    1.076   .     S
C669   C1092   1.414   1_545 S
C670   N677    1.366   .     A
C670   H674    1.077   .     S
C670   C881    1.414   .     S
C671   H675    1.081   .     S
C671   N678    1.366   .     A
C671   C1090   1.414   1_545 S
C672   H676    1.081   .     S
C672   N677    1.366   .     A
C672   C879    1.414   .     S
C679   H682    1.103   .     S
C679   H681    1.111   .     S
C679   H680    1.105   .     S
C683   H684    1.105   .     S
C683   H685    1.103   .     S
C683   H686    1.111   .     S
C689   H690    1.110   .     S
C689   H691    1.110   .     S
C689   H692    1.108   .     S
C693   H695    1.108   .     S
C693   H694    1.110   .     S
C693   H696    1.110   .     S
O701   C705    1.293   .     A
O701   Cu713   1.985   .     S
O702   C706    1.297   .     A
O702   Cu714   1.985   .     S
O703   Cu713   1.987   .     S
O703   C706    1.294   .     A
O704   Cu714   1.987   .     S
O704   C705    1.297   .     A
C705   C738    1.466   .     S
C706   C737    1.467   .     S
O707   C711    1.290   .     A
O707   Cu713   1.960   .     S
O708   C712    1.290   .     A
O708   Cu714   1.960   .     S
O709   C712    1.292   .     A
O709   Cu713   1.964   .     S
O710   C711    1.293   .     A
O710   Cu714   1.964   .     S
C711   C718    1.454   .     S
C712   C717    1.454   .     S
Cu713  Cu714   2.679   .     S
Cu713  N747    2.013   .     S
Cu714  N748    2.013   .     S
C715   C749    1.518   .     S
C715   C725    1.423   .     A
C715   C717    1.409   .     A
C716   C718    1.409   .     A
C716   C753    1.517   .     S
C716   C726    1.422   .     A
C717   C719    1.387   .     A
C718   C720    1.387   .     A
C719   H731    1.080   .     S
C719   C721    1.393   .     A
C720   H732    1.081   .     S
C720   C722    1.393   .     A
C721   C727    1.409   .     A
C721   C723    1.415   .     A
C722   C728    1.409   .     A
C722   C724    1.415   .     A
C723   C725    1.424   .     A
C723   C94     1.408   1_556 S
C724   C726    1.424   .     A
C725   C730    1.422   .     A
C726   C729    1.422   .     A
C727   I757    2.152   .     S
C727   C99     1.405   1_556 S
C728   I758    2.152   .     S
C729   C759    1.513   .     S
C730   C763    1.513   .     S
C730   C98     1.405   1_556 S
C733   C738    1.413   .     A
C733   I767    2.146   .     S
C734   C737    1.417   .     A
C734   I768    2.153   .     S
C734   C806    1.395   .     S
C735   I769    2.145   .     S
C735   C737    1.413   .     A
C735   C803    1.390   .     S
C736   C738    1.417   .     A
C736   I770    2.153   .     S
C739   N748    1.367   .     A
C739   H743    1.076   .     S
C739   C1162   1.414   1_545 S
C740   N747    1.366   .     A
C740   H744    1.077   .     S
C740   C951    1.414   .     S
C741   H745    1.081   .     S
C741   N748    1.366   .     A
C741   C1160   1.414   1_545 S
C742   H746    1.081   .     S
C742   N747    1.366   .     A
C742   C949    1.414   .     S
C749   H752    1.103   .     S
C749   H751    1.111   .     S
C749   H750    1.105   .     S
C753   H754    1.105   .     S
C753   H755    1.103   .     S
C753   H756    1.111   .     S
C759   H760    1.110   .     S
C759   H761    1.110   .     S
C759   H762    1.108   .     S
C763   H765    1.108   .     S
C763   H764    1.110   .     S
C763   H766    1.110   .     S
O771   C775    1.293   .     A
O771   Cu783   1.985   .     S
O772   C776    1.297   .     A
O772   Cu784   1.985   .     S
O773   Cu783   1.987   .     S
O773   C776    1.294   .     A
O774   Cu784   1.987   .     S
O774   C775    1.297   .     A
C775   C808    1.466   .     S
C776   C807    1.467   .     S
O777   C781    1.290   .     A
O777   Cu783   1.960   .     S
O778   C782    1.290   .     A
O778   Cu784   1.960   .     S
O779   C782    1.292   .     A
O779   Cu783   1.964   .     S
O780   C781    1.293   .     A
O780   Cu784   1.964   .     S
C781   C788    1.454   .     S
C782   C787    1.454   .     S
Cu783  Cu784   2.679   .     S
Cu783  N817    2.013   .     S
Cu784  N818    2.013   .     S
C785   C819    1.518   .     S
C785   C795    1.423   .     A
C785   C787    1.409   .     A
C786   C788    1.409   .     A
C786   C823    1.517   .     S
C786   C796    1.422   .     A
C787   C789    1.387   .     A
C788   C790    1.387   .     A
C789   H801    1.080   .     S
C789   C791    1.393   .     A
C790   H802    1.081   .     S
C790   C792    1.393   .     A
C791   C797    1.409   .     A
C791   C793    1.415   .     A
C792   C798    1.409   .     A
C792   C794    1.415   .     A
C793   C795    1.424   .     A
C793   C164    1.408   1_556 S
C794   C796    1.424   .     A
C795   C800    1.422   .     A
C796   C799    1.422   .     A
C797   I827    2.152   .     S
C797   C169    1.405   1_556 S
C798   I828    2.152   .     S
C799   C829    1.513   .     S
C800   C833    1.513   .     S
C800   C168    1.405   1_556 S
C803   C808    1.413   .     A
C803   I837    2.146   .     S
C804   C807    1.417   .     A
C804   I838    2.153   .     S
C804   C666    1.395   1_655 S
C805   I839    2.145   .     S
C805   C807    1.413   .     A
C805   C663    1.390   1_655 S
C806   C808    1.417   .     A
C806   I840    2.153   .     S
C809   N818    1.367   .     A
C809   H813    1.076   .     S
C809   C1232   1.414   1_545 S
C810   N817    1.366   .     A
C810   H814    1.077   .     S
C810   C1021   1.414   .     S
C811   H815    1.081   .     S
C811   N818    1.366   .     A
C811   C1230   1.414   1_545 S
C812   H816    1.081   .     S
C812   N817    1.366   .     A
C812   C1019   1.414   .     S
C819   H822    1.103   .     S
C819   H821    1.111   .     S
C819   H820    1.105   .     S
C823   H824    1.105   .     S
C823   H825    1.103   .     S
C823   H826    1.111   .     S
C829   H830    1.110   .     S
C829   H831    1.110   .     S
C829   H832    1.108   .     S
C833   H835    1.108   .     S
C833   H834    1.110   .     S
C833   H836    1.110   .     S
O841   C845    1.293   .     A
O841   Cu853   1.985   .     S
O842   C846    1.297   .     A
O842   Cu854   1.985   .     S
O843   Cu853   1.987   .     S
O843   C846    1.294   .     A
O844   Cu854   1.987   .     S
O844   C845    1.297   .     A
C845   C878    1.466   .     S
C846   C877    1.467   .     S
O847   C851    1.290   .     A
O847   Cu853   1.960   .     S
O848   C852    1.290   .     A
O848   Cu854   1.960   .     S
O849   C852    1.292   .     A
O849   Cu853   1.964   .     S
O850   C851    1.293   .     A
O850   Cu854   1.964   .     S
C851   C858    1.454   .     S
C852   C857    1.454   .     S
Cu853  Cu854   2.679   .     S
Cu853  N887    2.013   .     S
Cu854  N888    2.013   .     S
C855   C889    1.518   .     S
C855   C865    1.423   .     A
C855   C857    1.409   .     A
C856   C858    1.409   .     A
C856   C893    1.517   .     S
C856   C866    1.422   .     A
C857   C859    1.387   .     A
C858   C860    1.387   .     A
C859   H871    1.080   .     S
C859   C861    1.393   .     A
C860   H872    1.081   .     S
C860   C862    1.393   .     A
C861   C867    1.409   .     A
C861   C863    1.415   .     A
C862   C868    1.409   .     A
C862   C864    1.415   .     A
C863   C865    1.424   .     A
C863   C234    1.408   1_556 S
C864   C866    1.424   .     A
C865   C870    1.422   .     A
C866   C869    1.422   .     A
C867   I897    2.152   .     S
C867   C239    1.405   1_556 S
C868   I898    2.152   .     S
C869   C899    1.513   .     S
C870   C903    1.513   .     S
C870   C238    1.405   1_556 S
C873   C878    1.413   .     A
C873   I907    2.146   .     S
C873   C1015   1.390   1_455 S
C874   C877    1.417   .     A
C874   I908    2.153   .     S
C874   C946    1.395   .     S
C875   I909    2.145   .     S
C875   C877    1.413   .     A
C875   C943    1.390   .     S
C876   C878    1.417   .     A
C876   I910    2.153   .     S
C876   C1014   1.395   1_455 S
C879   N888    1.367   .     A
C879   H883    1.076   .     S
C880   N887    1.366   .     A
C880   H884    1.077   .     S
C880   C1091   1.414   .     S
C881   H885    1.081   .     S
C881   N888    1.366   .     A
C882   H886    1.081   .     S
C882   N887    1.366   .     A
C882   C1089   1.414   .     S
C889   H892    1.103   .     S
C889   H891    1.111   .     S
C889   H890    1.105   .     S
C893   H894    1.105   .     S
C893   H895    1.103   .     S
C893   H896    1.111   .     S
C899   H900    1.110   .     S
C899   H901    1.110   .     S
C899   H902    1.108   .     S
C903   H905    1.108   .     S
C903   H904    1.110   .     S
C903   H906    1.110   .     S
O911   C915    1.293   .     A
O911   Cu923   1.985   .     S
O912   C916    1.297   .     A
O912   Cu924   1.985   .     S
O913   Cu923   1.987   .     S
O913   C916    1.294   .     A
O914   Cu924   1.987   .     S
O914   C915    1.297   .     A
C915   C948    1.466   .     S
C916   C947    1.467   .     S
O917   C921    1.290   .     A
O917   Cu923   1.960   .     S
O918   C922    1.290   .     A
O918   Cu924   1.960   .     S
O919   C922    1.292   .     A
O919   Cu923   1.964   .     S
O920   C921    1.293   .     A
O920   Cu924   1.964   .     S
C921   C928    1.454   .     S
C922   C927    1.454   .     S
Cu923  Cu924   2.679   .     S
Cu923  N957    2.013   .     S
Cu924  N958    2.013   .     S
C925   C959    1.518   .     S
C925   C935    1.423   .     A
C925   C927    1.409   .     A
C926   C928    1.409   .     A
C926   C963    1.517   .     S
C926   C936    1.422   .     A
C927   C929    1.387   .     A
C928   C930    1.387   .     A
C929   H941    1.080   .     S
C929   C931    1.393   .     A
C930   H942    1.081   .     S
C930   C932    1.393   .     A
C931   C937    1.409   .     A
C931   C933    1.415   .     A
C932   C938    1.409   .     A
C932   C934    1.415   .     A
C933   C935    1.424   .     A
C933   C304    1.408   1_556 S
C934   C936    1.424   .     A
C935   C940    1.422   .     A
C936   C939    1.422   .     A
C937   I967    2.152   .     S
C937   C309    1.405   1_556 S
C938   I968    2.152   .     S
C939   C969    1.513   .     S
C940   C973    1.513   .     S
C940   C308    1.405   1_556 S
C943   C948    1.413   .     A
C943   I977    2.146   .     S
C944   C947    1.417   .     A
C944   I978    2.153   .     S
C944   C1016   1.395   .     S
C945   I979    2.145   .     S
C945   C947    1.413   .     A
C945   C1013   1.390   .     S
C946   C948    1.417   .     A
C946   I980    2.153   .     S
C949   N958    1.367   .     A
C949   H953    1.076   .     S
C950   N957    1.366   .     A
C950   H954    1.077   .     S
C950   C1161   1.414   .     S
C951   H955    1.081   .     S
C951   N958    1.366   .     A
C952   H956    1.081   .     S
C952   N957    1.366   .     A
C952   C1159   1.414   .     S
C959   H962    1.103   .     S
C959   H961    1.111   .     S
C959   H960    1.105   .     S
C963   H964    1.105   .     S
C963   H965    1.103   .     S
C963   H966    1.111   .     S
C969   H970    1.110   .     S
C969   H971    1.110   .     S
C969   H972    1.108   .     S
C973   H975    1.108   .     S
C973   H974    1.110   .     S
C973   H976    1.110   .     S
O981   C985    1.293   .     A
O981   Cu993   1.985   .     S
O982   C986    1.297   .     A
O982   Cu994   1.985   .     S
O983   Cu993   1.987   .     S
O983   C986    1.294   .     A
O984   Cu994   1.987   .     S
O984   C985    1.297   .     A
C985   C1018   1.466   .     S
C986   C1017   1.467   .     S
O987   C991    1.290   .     A
O987   Cu993   1.960   .     S
O988   C992    1.290   .     A
O988   Cu994   1.960   .     S
O989   C992    1.292   .     A
O989   Cu993   1.964   .     S
O990   C991    1.293   .     A
O990   Cu994   1.964   .     S
C991   C998    1.454   .     S
C992   C997    1.454   .     S
Cu993  Cu994   2.679   .     S
Cu993  N1027   2.013   .     S
Cu994  N1028   2.013   .     S
C995   C1029   1.518   .     S
C995   C1005   1.423   .     A
C995   C997    1.409   .     A
C996   C998    1.409   .     A
C996   C1033   1.517   .     S
C996   C1006   1.422   .     A
C997   C999    1.387   .     A
C998   C1000   1.387   .     A
C999   H1011   1.080   .     S
C999   C1001   1.393   .     A
C1000  H1012   1.081   .     S
C1000  C1002   1.393   .     A
C1001  C1007   1.409   .     A
C1001  C1003   1.415   .     A
C1002  C1008   1.409   .     A
C1002  C1004   1.415   .     A
C1003  C1005   1.424   .     A
C1003  C374    1.408   1_556 S
C1004  C1006   1.424   .     A
C1005  C1010   1.422   .     A
C1006  C1009   1.422   .     A
C1007  I1037   2.152   .     S
C1007  C379    1.405   1_556 S
C1008  I1038   2.152   .     S
C1009  C1039   1.513   .     S
C1010  C1043   1.513   .     S
C1010  C378    1.405   1_556 S
C1013  C1018   1.413   .     A
C1013  I1047   2.146   .     S
C1014  C1017   1.417   .     A
C1014  I1048   2.153   .     S
C1014  C876    1.395   1_655 S
C1015  I1049   2.145   .     S
C1015  C1017   1.413   .     A
C1015  C873    1.390   1_655 S
C1016  C1018   1.417   .     A
C1016  I1050   2.153   .     S
C1019  N1028   1.367   .     A
C1019  H1023   1.076   .     S
C1020  N1027   1.366   .     A
C1020  H1024   1.077   .     S
C1020  C1231   1.414   .     S
C1021  H1025   1.081   .     S
C1021  N1028   1.366   .     A
C1022  H1026   1.081   .     S
C1022  N1027   1.366   .     A
C1022  C1229   1.414   .     S
C1029  H1032   1.103   .     S
C1029  H1031   1.111   .     S
C1029  H1030   1.105   .     S
C1033  H1034   1.105   .     S
C1033  H1035   1.103   .     S
C1033  H1036   1.111   .     S
C1039  H1040   1.110   .     S
C1039  H1041   1.110   .     S
C1039  H1042   1.108   .     S
C1043  H1045   1.108   .     S
C1043  H1044   1.110   .     S
C1043  H1046   1.110   .     S
O1051  C1055   1.293   .     A
O1051  Cu1063  1.985   .     S
O1052  C1056   1.297   .     A
O1052  Cu1064  1.985   .     S
O1053  Cu1063  1.987   .     S
O1053  C1056   1.294   .     A
O1054  Cu1064  1.987   .     S
O1054  C1055   1.297   .     A
C1055  C1088   1.466   .     S
C1056  C1087   1.467   .     S
O1057  C1061   1.290   .     A
O1057  Cu1063  1.960   .     S
O1058  C1062   1.290   .     A
O1058  Cu1064  1.960   .     S
O1059  C1062   1.292   .     A
O1059  Cu1063  1.964   .     S
O1060  C1061   1.293   .     A
O1060  Cu1064  1.964   .     S
C1061  C1068   1.454   .     S
C1062  C1067   1.454   .     S
Cu1063 Cu1064  2.679   .     S
Cu1063 N1097   2.013   .     S
Cu1064 N1098   2.013   .     S
C1065  C1099   1.518   .     S
C1065  C1075   1.423   .     A
C1065  C1067   1.409   .     A
C1066  C1068   1.409   .     A
C1066  C1103   1.517   .     S
C1066  C1076   1.422   .     A
C1067  C1069   1.387   .     A
C1068  C1070   1.387   .     A
C1069  H1081   1.080   .     S
C1069  C1071   1.393   .     A
C1070  H1082   1.081   .     S
C1070  C1072   1.393   .     A
C1071  C1077   1.409   .     A
C1071  C1073   1.415   .     A
C1072  C1078   1.409   .     A
C1072  C1074   1.415   .     A
C1073  C1075   1.424   .     A
C1073  C444    1.408   1_556 S
C1074  C1076   1.424   .     A
C1075  C1080   1.422   .     A
C1076  C1079   1.422   .     A
C1077  I1107   2.152   .     S
C1077  C449    1.405   1_556 S
C1078  I1108   2.152   .     S
C1079  C1109   1.513   .     S
C1080  C1113   1.513   .     S
C1080  C448    1.405   1_556 S
C1083  C1088   1.413   .     A
C1083  I1117   2.146   .     S
C1083  C1225   1.390   1_455 S
C1084  C1087   1.417   .     A
C1084  I1118   2.153   .     S
C1084  C1156   1.395   .     S
C1085  I1119   2.145   .     S
C1085  C1087   1.413   .     A
C1085  C1153   1.390   .     S
C1086  C1088   1.417   .     A
C1086  I1120   2.153   .     S
C1086  C1224   1.395   1_455 S
C1089  N1098   1.367   .     A
C1089  H1093   1.076   .     S
C1090  N1097   1.366   .     A
C1090  H1094   1.077   .     S
C1090  C671    1.414   1_565 S
C1091  H1095   1.081   .     S
C1091  N1098   1.366   .     A
C1092  H1096   1.081   .     S
C1092  N1097   1.366   .     A
C1092  C669    1.414   1_565 S
C1099  H1102   1.103   .     S
C1099  H1101   1.111   .     S
C1099  H1100   1.105   .     S
C1103  H1104   1.105   .     S
C1103  H1105   1.103   .     S
C1103  H1106   1.111   .     S
C1109  H1110   1.110   .     S
C1109  H1111   1.110   .     S
C1109  H1112   1.108   .     S
C1113  H1115   1.108   .     S
C1113  H1114   1.110   .     S
C1113  H1116   1.110   .     S
O1121  C1125   1.293   .     A
O1121  Cu1133  1.985   .     S
O1122  C1126   1.297   .     A
O1122  Cu1134  1.985   .     S
O1123  Cu1133  1.987   .     S
O1123  C1126   1.294   .     A
O1124  Cu1134  1.987   .     S
O1124  C1125   1.297   .     A
C1125  C1158   1.466   .     S
C1126  C1157   1.467   .     S
O1127  C1131   1.290   .     A
O1127  Cu1133  1.960   .     S
O1128  C1132   1.290   .     A
O1128  Cu1134  1.960   .     S
O1129  C1132   1.292   .     A
O1129  Cu1133  1.964   .     S
O1130  C1131   1.293   .     A
O1130  Cu1134  1.964   .     S
C1131  C1138   1.454   .     S
C1132  C1137   1.454   .     S
Cu1133 Cu1134  2.679   .     S
Cu1133 N1167   2.013   .     S
Cu1134 N1168   2.013   .     S
C1135  C1169   1.518   .     S
C1135  C1145   1.423   .     A
C1135  C1137   1.409   .     A
C1136  C1138   1.409   .     A
C1136  C1173   1.517   .     S
C1136  C1146   1.422   .     A
C1137  C1139   1.387   .     A
C1138  C1140   1.387   .     A
C1139  H1151   1.080   .     S
C1139  C1141   1.393   .     A
C1140  H1152   1.081   .     S
C1140  C1142   1.393   .     A
C1141  C1147   1.409   .     A
C1141  C1143   1.415   .     A
C1142  C1148   1.409   .     A
C1142  C1144   1.415   .     A
C1143  C1145   1.424   .     A
C1143  C514    1.408   1_556 S
C1144  C1146   1.424   .     A
C1145  C1150   1.422   .     A
C1146  C1149   1.422   .     A
C1147  I1177   2.152   .     S
C1147  C519    1.405   1_556 S
C1148  I1178   2.152   .     S
C1149  C1179   1.513   .     S
C1150  C1183   1.513   .     S
C1150  C518    1.405   1_556 S
C1153  C1158   1.413   .     A
C1153  I1187   2.146   .     S
C1154  C1157   1.417   .     A
C1154  I1188   2.153   .     S
C1154  C1226   1.395   .     S
C1155  I1189   2.145   .     S
C1155  C1157   1.413   .     A
C1155  C1223   1.390   .     S
C1156  C1158   1.417   .     A
C1156  I1190   2.153   .     S
C1159  N1168   1.367   .     A
C1159  H1163   1.076   .     S
C1160  N1167   1.366   .     A
C1160  H1164   1.077   .     S
C1160  C741    1.414   1_565 S
C1161  H1165   1.081   .     S
C1161  N1168   1.366   .     A
C1162  H1166   1.081   .     S
C1162  N1167   1.366   .     A
C1162  C739    1.414   1_565 S
C1169  H1172   1.103   .     S
C1169  H1171   1.111   .     S
C1169  H1170   1.105   .     S
C1173  H1174   1.105   .     S
C1173  H1175   1.103   .     S
C1173  H1176   1.111   .     S
C1179  H1180   1.110   .     S
C1179  H1181   1.110   .     S
C1179  H1182   1.108   .     S
C1183  H1185   1.108   .     S
C1183  H1184   1.110   .     S
C1183  H1186   1.110   .     S
O1191  C1195   1.293   .     A
O1191  Cu1203  1.985   .     S
O1192  C1196   1.297   .     A
O1192  Cu1204  1.985   .     S
O1193  Cu1203  1.987   .     S
O1193  C1196   1.294   .     A
O1194  Cu1204  1.987   .     S
O1194  C1195   1.297   .     A
C1195  C1228   1.466   .     S
C1196  C1227   1.467   .     S
O1197  C1201   1.290   .     A
O1197  Cu1203  1.960   .     S
O1198  C1202   1.290   .     A
O1198  Cu1204  1.960   .     S
O1199  C1202   1.292   .     A
O1199  Cu1203  1.964   .     S
O1200  C1201   1.293   .     A
O1200  Cu1204  1.964   .     S
C1201  C1208   1.454   .     S
C1202  C1207   1.454   .     S
Cu1203 Cu1204  2.679   .     S
Cu1203 N1237   2.013   .     S
Cu1204 N1238   2.013   .     S
C1205  C1239   1.518   .     S
C1205  C1215   1.423   .     A
C1205  C1207   1.409   .     A
C1206  C1208   1.409   .     A
C1206  C1243   1.517   .     S
C1206  C1216   1.422   .     A
C1207  C1209   1.387   .     A
C1208  C1210   1.387   .     A
C1209  H1221   1.080   .     S
C1209  C1211   1.393   .     A
C1210  H1222   1.081   .     S
C1210  C1212   1.393   .     A
C1211  C1217   1.409   .     A
C1211  C1213   1.415   .     A
C1212  C1218   1.409   .     A
C1212  C1214   1.415   .     A
C1213  C1215   1.424   .     A
C1213  C584    1.408   1_556 S
C1214  C1216   1.424   .     A
C1215  C1220   1.422   .     A
C1216  C1219   1.422   .     A
C1217  I1247   2.152   .     S
C1217  C589    1.405   1_556 S
C1218  I1248   2.152   .     S
C1219  C1249   1.513   .     S
C1220  C1253   1.513   .     S
C1220  C588    1.405   1_556 S
C1223  C1228   1.413   .     A
C1223  I1257   2.146   .     S
C1224  C1227   1.417   .     A
C1224  I1258   2.153   .     S
C1224  C1086   1.395   1_655 S
C1225  I1259   2.145   .     S
C1225  C1227   1.413   .     A
C1225  C1083   1.390   1_655 S
C1226  C1228   1.417   .     A
C1226  I1260   2.153   .     S
C1229  N1238   1.367   .     A
C1229  H1233   1.076   .     S
C1230  N1237   1.366   .     A
C1230  H1234   1.077   .     S
C1230  C811    1.414   1_565 S
C1231  H1235   1.081   .     S
C1231  N1238   1.366   .     A
C1232  H1236   1.081   .     S
C1232  N1237   1.366   .     A
C1232  C809    1.414   1_565 S
C1239  H1242   1.103   .     S
C1239  H1241   1.111   .     S
C1239  H1240   1.105   .     S
C1243  H1244   1.105   .     S
C1243  H1245   1.103   .     S
C1243  H1246   1.111   .     S
C1249  H1250   1.110   .     S
C1249  H1251   1.110   .     S
C1249  H1252   1.108   .     S
C1253  H1255   1.108   .     S
C1253  H1254   1.110   .     S
C1253  H1256   1.110   .     S
