data_str_m2_o2_o10_pcu_sym.2
_audit_creation_date              2020-01-03
_audit_creation_method            'Materials Studio'
_symmetry_space_group_name_H-M    'P1'
_symmetry_Int_Tables_number       1
_symmetry_cell_setting            triclinic
loop_
_symmetry_equiv_pos_as_xyz
  x,y,z
_cell_length_a                    26.1321
_cell_length_b                    30.2180
_cell_length_c                    27.7820
_cell_angle_alpha                 89.9763
_cell_angle_beta                  98.2388
_cell_angle_gamma                 90.5133
loop_
_atom_site_label
_atom_site_type_symbol
_atom_site_fract_x
_atom_site_fract_y
_atom_site_fract_z
_atom_site_U_iso_or_equiv
_atom_site_adp_type
_atom_site_occupancy
C1     C     0.16628   0.16497   0.24991   0.00000  Uiso   1.00
C2     C     0.19577   0.28084   0.45012   0.00000  Uiso   1.00
C3     C     0.16755   0.24915   0.02737   0.00000  Uiso   1.00
C4     C     0.16731   0.24920   0.47267   0.00000  Uiso   1.00
C5     C     0.06788   0.24983   0.23749   0.00000  Uiso   1.00
C6     C     0.26545   0.24991   0.26250   0.00000  Uiso   1.00
C7     C     0.01251   0.24963   0.23062   0.00000  Uiso   1.00
C8     C     0.32082   0.24971   0.26933   0.00000  Uiso   1.00
C9     C     0.13636   0.04802   0.28302   0.00000  Uiso   1.00
C10    C     0.14223   0.45130   0.20496   0.00000  Uiso   1.00
C11    C     0.14104   0.09401   0.28469   0.00000  Uiso   1.00
C12    C     0.16647   0.33507   0.24994   0.00000  Uiso   1.00
C13    C     0.14612   0.40530   0.20594   0.00000  Uiso   1.00
C14    C     0.16398   0.11676   0.24930   0.00000  Uiso   1.00
C15    C     0.16453   0.38333   0.24930   0.00000  Uiso   1.00
C16    C     0.18358   0.09329   0.21265   0.00000  Uiso   1.00
C17    C     0.18050   0.40768   0.29173   0.00000  Uiso   1.00
C18    C     0.18135   0.04737   0.21201   0.00000  Uiso   1.00
C19    C     0.17856   0.45362   0.29066   0.00000  Uiso   1.00
C20    C     0.15823   0.02434   0.24721   0.00000  Uiso   1.00
C21    C     0.15938   0.47577   0.24750   0.00000  Uiso   1.00
C22    C     0.06284   0.01269   0.29987   0.00000  Uiso   1.00
C23    C     0.20841   0.26824   0.05971   0.00000  Uiso   1.00
C24    C     0.02406   0.05039   0.30086   0.00000  Uiso   1.00
C25    C     0.30198   0.03415   0.28560   0.00000  Uiso   1.00
C26    C     0.06940   0.47242   0.15560   0.00000  Uiso   1.00
C27    C     0.04892   0.48084   0.10212   0.00000  Uiso   1.00
C28    C     0.32334   0.48366   0.09378   0.00000  Uiso   1.00
C29    C     0.08430   0.16551   0.11292   0.00000  Uiso   1.00
C30    C     0.04827   0.14629   0.14659   0.00000  Uiso   1.00
C31    C     0.04385   0.09609   0.14219   0.00000  Uiso   1.00
C32    C     0.27884   0.30826   0.39594   0.00000  Uiso   1.00
C33    C     0.29820   0.35305   0.41717   0.00000  Uiso   1.00
C34    C     0.13857   0.21782   0.44198   0.00000  Uiso   1.00
C35    C     0.02287   0.35226   0.43516   0.00000  Uiso   1.00
C36    C     0.20684   0.26888   0.11014   0.00000  Uiso   1.00
C37    C     0.13818   0.21922   0.39131   0.00000  Uiso   1.00
C38    C     0.12732   0.22961   0.09916   0.00000  Uiso   1.00
C39    C     0.19686   0.27977   0.39934   0.00000  Uiso   1.00
C40    C     0.12650   0.23029   0.04822   0.00000  Uiso   1.00
Cu41   Cu    0.16667   0.25000   0.29822   0.00000  Uiso   1.00
Cu42   Cu    0.16667   0.25001   0.20179   0.00000  Uiso   1.00
H43    H     0.32565   0.24952   0.19357   0.00000  Uiso   1.00
H44    H     0.11669   0.19183   0.45667   0.00000  Uiso   1.00
H45    H     0.23825   0.28443   0.13392   0.00000  Uiso   1.00
H46    H     0.11535   0.19518   0.36848   0.00000  Uiso   1.00
H47    H     0.09298   0.21683   0.02545   0.00000  Uiso   1.00
H48    H     0.21696   0.30677   0.47132   0.00000  Uiso   1.00
H49    H     0.05209   0.48548   0.32349   0.00000  Uiso   1.00
H50    H     0.06006   0.49852   0.26262   0.00000  Uiso   1.00
H51    H     0.02765   0.06434   0.33821   0.00000  Uiso   1.00
H52    H     0.03253   0.07711   0.27560   0.00000  Uiso   1.00
H53    H     0.29718   0.02120   0.24778   0.00000  Uiso   1.00
H54    H     0.00774   0.24968   0.30635   0.00000  Uiso   1.00
H55    H     0.27496   0.06208   0.28722   0.00000  Uiso   1.00
H56    H     0.29199   0.00765   0.31045   0.00000  Uiso   1.00
H57    H     0.05642   0.49953   0.17789   0.00000  Uiso   1.00
H58    H     0.05258   0.44039   0.16627   0.00000  Uiso   1.00
H59    H     0.06562   0.01225   0.09022   0.00000  Uiso   1.00
H60    H     0.06110   0.45348   0.07967   0.00000  Uiso   1.00
H61    H     0.30592   0.45195   0.10393   0.00000  Uiso   1.00
H62    H     0.30975   0.49031   0.05475   0.00000  Uiso   1.00
H63    H     0.31018   0.01088   0.11577   0.00000  Uiso   1.00
H64    H     0.12338   0.15071   0.12283   0.00000  Uiso   1.00
H65    H     0.12542   0.11196   0.31297   0.00000  Uiso   1.00
H66    H     0.06891   0.15657   0.07470   0.00000  Uiso   1.00
H67    H     0.06321   0.15508   0.18489   0.00000  Uiso   1.00
H68    H     0.00917   0.16084   0.13733   0.00000  Uiso   1.00
H69    H     0.02685   0.08666   0.10462   0.00000  Uiso   1.00
H70    H     0.01841   0.08326   0.16789   0.00000  Uiso   1.00
H71    H     0.08249   0.08076   0.15116   0.00000  Uiso   1.00
H72    H     0.29986   0.30067   0.36497   0.00000  Uiso   1.00
H73    H     0.28912   0.28168   0.42353   0.00000  Uiso   1.00
H74    H     0.29017   0.37901   0.38879   0.00000  Uiso   1.00
H75    H     0.27737   0.36167   0.44799   0.00000  Uiso   1.00
H76    H     0.13363   0.38686   0.17283   0.00000  Uiso   1.00
H77    H     0.03171   0.32708   0.46426   0.00000  Uiso   1.00
H78    H     0.03576   0.38520   0.45020   0.00000  Uiso   1.00
H79    H     0.04463   0.34447   0.40471   0.00000  Uiso   1.00
H80    H     0.20170   0.11041   0.18517   0.00000  Uiso   1.00
H81    H     0.19531   0.39127   0.32547   0.00000  Uiso   1.00
H82    H     0.19884   0.02977   0.18467   0.00000  Uiso   1.00
H83    H     0.19256   0.47197   0.32347   0.00000  Uiso   1.00
H84    H     0.24191   0.28246   0.04658   0.00000  Uiso   1.00
N85    N     0.16667   0.25001   0.12935   0.00000  Uiso   1.00
N86    N     0.16667   0.24999   0.37065   0.00000  Uiso   1.00
O87    O     0.16667   0.18573   0.29071   0.00000  Uiso   1.00
O88    O     0.12401   0.47207   0.16161   0.00000  Uiso   1.00
O89    O     0.08577   0.21196   0.11840   0.00000  Uiso   1.00
O90    O     0.22540   0.31087   0.37767   0.00000  Uiso   1.00
O91    O     0.16666   0.31427   0.20929   0.00000  Uiso   1.00
O92    O     0.16667   0.18573   0.20928   0.00000  Uiso   1.00
O93    O     0.16666   0.31427   0.29072   0.00000  Uiso   1.00
O94    O     0.09161   0.24999   0.28132   0.00000  Uiso   1.00
O95    O     0.24172   0.25001   0.21868   0.00000  Uiso   1.00
O96    O     0.09161   0.25000   0.19989   0.00000  Uiso   1.00
O97    O     0.24172   0.25000   0.30012   0.00000  Uiso   1.00
O98    O     0.11358   0.02675   0.31881   0.00000  Uiso   1.00
C99    C     0.49962   0.16497   0.24991   0.00000  Uiso   1.00
C100   C     0.52910   0.28084   0.45012   0.00000  Uiso   1.00
C101   C     0.50089   0.24915   0.02737   0.00000  Uiso   1.00
C102   C     0.50064   0.24920   0.47267   0.00000  Uiso   1.00
C103   C     0.40121   0.24983   0.23749   0.00000  Uiso   1.00
C104   C     0.59879   0.24991   0.26250   0.00000  Uiso   1.00
C105   C     0.34585   0.24963   0.23062   0.00000  Uiso   1.00
C106   C     0.65416   0.24971   0.26933   0.00000  Uiso   1.00
C107   C     0.46969   0.04802   0.28302   0.00000  Uiso   1.00
C108   C     0.47557   0.45130   0.20496   0.00000  Uiso   1.00
C109   C     0.47437   0.09401   0.28469   0.00000  Uiso   1.00
C110   C     0.49980   0.33507   0.24994   0.00000  Uiso   1.00
C111   C     0.47946   0.40530   0.20594   0.00000  Uiso   1.00
C112   C     0.49732   0.11676   0.24930   0.00000  Uiso   1.00
C113   C     0.49787   0.38333   0.24930   0.00000  Uiso   1.00
C114   C     0.51691   0.09329   0.21265   0.00000  Uiso   1.00
C115   C     0.51383   0.40768   0.29173   0.00000  Uiso   1.00
C116   C     0.51469   0.04737   0.21201   0.00000  Uiso   1.00
C117   C     0.51190   0.45362   0.29066   0.00000  Uiso   1.00
C118   C     0.49157   0.02434   0.24721   0.00000  Uiso   1.00
C119   C     0.49272   0.47577   0.24750   0.00000  Uiso   1.00
C120   C     0.39618   0.01269   0.29987   0.00000  Uiso   1.00
C121   C     0.54175   0.26824   0.05971   0.00000  Uiso   1.00
C122   C     0.35739   0.05039   0.30086   0.00000  Uiso   1.00
C123   C     0.63531   0.03415   0.28560   0.00000  Uiso   1.00
C124   C     0.40274   0.47242   0.15560   0.00000  Uiso   1.00
C125   C     0.38225   0.48084   0.10212   0.00000  Uiso   1.00
C126   C     0.65668   0.48366   0.09378   0.00000  Uiso   1.00
C127   C     0.41763   0.16551   0.11292   0.00000  Uiso   1.00
C128   C     0.38160   0.14629   0.14659   0.00000  Uiso   1.00
C129   C     0.37719   0.09609   0.14219   0.00000  Uiso   1.00
C130   C     0.61217   0.30826   0.39594   0.00000  Uiso   1.00
C131   C     0.63154   0.35305   0.41717   0.00000  Uiso   1.00
C132   C     0.47190   0.21782   0.44198   0.00000  Uiso   1.00
C133   C     0.35621   0.35226   0.43516   0.00000  Uiso   1.00
C134   C     0.54017   0.26888   0.11014   0.00000  Uiso   1.00
C135   C     0.47151   0.21922   0.39131   0.00000  Uiso   1.00
C136   C     0.46065   0.22961   0.09916   0.00000  Uiso   1.00
C137   C     0.53019   0.27977   0.39934   0.00000  Uiso   1.00
C138   C     0.45983   0.23029   0.04822   0.00000  Uiso   1.00
Cu139  Cu    0.50000   0.25000   0.29822   0.00000  Uiso   1.00
Cu140  Cu    0.50000   0.25001   0.20179   0.00000  Uiso   1.00
H141   H     0.65898   0.24952   0.19357   0.00000  Uiso   1.00
H142   H     0.45003   0.19183   0.45667   0.00000  Uiso   1.00
H143   H     0.57158   0.28443   0.13392   0.00000  Uiso   1.00
H144   H     0.44868   0.19518   0.36848   0.00000  Uiso   1.00
H145   H     0.42631   0.21683   0.02545   0.00000  Uiso   1.00
H146   H     0.55029   0.30677   0.47132   0.00000  Uiso   1.00
H147   H     0.38542   0.48548   0.32349   0.00000  Uiso   1.00
H148   H     0.39339   0.49852   0.26262   0.00000  Uiso   1.00
H149   H     0.36098   0.06434   0.33821   0.00000  Uiso   1.00
H150   H     0.36587   0.07711   0.27560   0.00000  Uiso   1.00
H151   H     0.63051   0.02120   0.24778   0.00000  Uiso   1.00
H152   H     0.34107   0.24968   0.30635   0.00000  Uiso   1.00
H153   H     0.60830   0.06208   0.28722   0.00000  Uiso   1.00
H154   H     0.62532   0.00765   0.31045   0.00000  Uiso   1.00
H155   H     0.38976   0.49953   0.17789   0.00000  Uiso   1.00
H156   H     0.38591   0.44039   0.16627   0.00000  Uiso   1.00
H157   H     0.39895   0.01225   0.09022   0.00000  Uiso   1.00
H158   H     0.39443   0.45348   0.07967   0.00000  Uiso   1.00
H159   H     0.63925   0.45195   0.10393   0.00000  Uiso   1.00
H160   H     0.64309   0.49031   0.05475   0.00000  Uiso   1.00
H161   H     0.64351   0.01088   0.11577   0.00000  Uiso   1.00
H162   H     0.45671   0.15071   0.12283   0.00000  Uiso   1.00
H163   H     0.45875   0.11196   0.31297   0.00000  Uiso   1.00
H164   H     0.40224   0.15657   0.07470   0.00000  Uiso   1.00
H165   H     0.39654   0.15508   0.18489   0.00000  Uiso   1.00
H166   H     0.34251   0.16084   0.13733   0.00000  Uiso   1.00
H167   H     0.36018   0.08666   0.10462   0.00000  Uiso   1.00
H168   H     0.35174   0.08326   0.16789   0.00000  Uiso   1.00
H169   H     0.41582   0.08076   0.15116   0.00000  Uiso   1.00
H170   H     0.63319   0.30067   0.36497   0.00000  Uiso   1.00
H171   H     0.62246   0.28168   0.42353   0.00000  Uiso   1.00
H172   H     0.62350   0.37901   0.38879   0.00000  Uiso   1.00
H173   H     0.61070   0.36167   0.44799   0.00000  Uiso   1.00
H174   H     0.46697   0.38686   0.17283   0.00000  Uiso   1.00
H175   H     0.36504   0.32708   0.46426   0.00000  Uiso   1.00
H176   H     0.36909   0.38520   0.45020   0.00000  Uiso   1.00
H177   H     0.37796   0.34447   0.40471   0.00000  Uiso   1.00
H178   H     0.53503   0.11041   0.18517   0.00000  Uiso   1.00
H179   H     0.52865   0.39127   0.32547   0.00000  Uiso   1.00
H180   H     0.53218   0.02977   0.18467   0.00000  Uiso   1.00
H181   H     0.52590   0.47197   0.32347   0.00000  Uiso   1.00
H182   H     0.57524   0.28246   0.04658   0.00000  Uiso   1.00
N183   N     0.50000   0.25001   0.12935   0.00000  Uiso   1.00
N184   N     0.50000   0.24999   0.37065   0.00000  Uiso   1.00
O185   O     0.50000   0.18573   0.29071   0.00000  Uiso   1.00
O186   O     0.45734   0.47207   0.16161   0.00000  Uiso   1.00
O187   O     0.41910   0.21196   0.11840   0.00000  Uiso   1.00
O188   O     0.55874   0.31087   0.37767   0.00000  Uiso   1.00
O189   O     0.50000   0.31427   0.20929   0.00000  Uiso   1.00
O190   O     0.50000   0.18573   0.20928   0.00000  Uiso   1.00
O191   O     0.50000   0.31427   0.29072   0.00000  Uiso   1.00
O192   O     0.42495   0.24999   0.28132   0.00000  Uiso   1.00
O193   O     0.57505   0.25001   0.21868   0.00000  Uiso   1.00
O194   O     0.42495   0.25000   0.19989   0.00000  Uiso   1.00
O195   O     0.57505   0.25000   0.30012   0.00000  Uiso   1.00
O196   O     0.44691   0.02675   0.31881   0.00000  Uiso   1.00
C197   C     0.83295   0.16497   0.24991   0.00000  Uiso   1.00
C198   C     0.86244   0.28084   0.45012   0.00000  Uiso   1.00
C199   C     0.83422   0.24915   0.02737   0.00000  Uiso   1.00
C200   C     0.83398   0.24920   0.47267   0.00000  Uiso   1.00
C201   C     0.73455   0.24983   0.23749   0.00000  Uiso   1.00
C202   C     0.93212   0.24991   0.26250   0.00000  Uiso   1.00
C203   C     0.67918   0.24963   0.23062   0.00000  Uiso   1.00
C204   C     0.98749   0.24971   0.26933   0.00000  Uiso   1.00
C205   C     0.80302   0.04802   0.28302   0.00000  Uiso   1.00
C206   C     0.80890   0.45130   0.20496   0.00000  Uiso   1.00
C207   C     0.80770   0.09401   0.28469   0.00000  Uiso   1.00
C208   C     0.83313   0.33507   0.24994   0.00000  Uiso   1.00
C209   C     0.81279   0.40530   0.20594   0.00000  Uiso   1.00
C210   C     0.83065   0.11676   0.24930   0.00000  Uiso   1.00
C211   C     0.83120   0.38333   0.24930   0.00000  Uiso   1.00
C212   C     0.85024   0.09329   0.21265   0.00000  Uiso   1.00
C213   C     0.84717   0.40768   0.29173   0.00000  Uiso   1.00
C214   C     0.84802   0.04737   0.21201   0.00000  Uiso   1.00
C215   C     0.84523   0.45362   0.29066   0.00000  Uiso   1.00
C216   C     0.82490   0.02434   0.24721   0.00000  Uiso   1.00
C217   C     0.82605   0.47577   0.24750   0.00000  Uiso   1.00
C218   C     0.72951   0.01269   0.29987   0.00000  Uiso   1.00
C219   C     0.87508   0.26824   0.05971   0.00000  Uiso   1.00
C220   C     0.69073   0.05039   0.30086   0.00000  Uiso   1.00
C221   C     0.96865   0.03415   0.28560   0.00000  Uiso   1.00
C222   C     0.73607   0.47242   0.15560   0.00000  Uiso   1.00
C223   C     0.71558   0.48084   0.10212   0.00000  Uiso   1.00
C224   C     0.99001   0.48366   0.09378   0.00000  Uiso   1.00
C225   C     0.75097   0.16551   0.11292   0.00000  Uiso   1.00
C226   C     0.71494   0.14629   0.14659   0.00000  Uiso   1.00
C227   C     0.71052   0.09609   0.14219   0.00000  Uiso   1.00
C228   C     0.94551   0.30826   0.39594   0.00000  Uiso   1.00
C229   C     0.96487   0.35305   0.41717   0.00000  Uiso   1.00
C230   C     0.80523   0.21782   0.44198   0.00000  Uiso   1.00
C231   C     0.68954   0.35226   0.43516   0.00000  Uiso   1.00
C232   C     0.87351   0.26888   0.11014   0.00000  Uiso   1.00
C233   C     0.80484   0.21922   0.39131   0.00000  Uiso   1.00
C234   C     0.79399   0.22961   0.09916   0.00000  Uiso   1.00
C235   C     0.86352   0.27977   0.39934   0.00000  Uiso   1.00
C236   C     0.79317   0.23029   0.04822   0.00000  Uiso   1.00
Cu237  Cu    0.83333   0.25000   0.29822   0.00000  Uiso   1.00
Cu238  Cu    0.83333   0.25001   0.20179   0.00000  Uiso   1.00
H239   H     0.99231   0.24952   0.19357   0.00000  Uiso   1.00
H240   H     0.78336   0.19183   0.45667   0.00000  Uiso   1.00
H241   H     0.90491   0.28443   0.13392   0.00000  Uiso   1.00
H242   H     0.78201   0.19518   0.36848   0.00000  Uiso   1.00
H243   H     0.75964   0.21683   0.02545   0.00000  Uiso   1.00
H244   H     0.88362   0.30677   0.47132   0.00000  Uiso   1.00
H245   H     0.71875   0.48548   0.32349   0.00000  Uiso   1.00
H246   H     0.72672   0.49852   0.26262   0.00000  Uiso   1.00
H247   H     0.69431   0.06434   0.33821   0.00000  Uiso   1.00
H248   H     0.69920   0.07711   0.27560   0.00000  Uiso   1.00
H249   H     0.96384   0.02120   0.24778   0.00000  Uiso   1.00
H250   H     0.67440   0.24968   0.30635   0.00000  Uiso   1.00
H251   H     0.94163   0.06208   0.28722   0.00000  Uiso   1.00
H252   H     0.95865   0.00765   0.31045   0.00000  Uiso   1.00
H253   H     0.72309   0.49953   0.17789   0.00000  Uiso   1.00
H254   H     0.71924   0.44039   0.16627   0.00000  Uiso   1.00
H255   H     0.73229   0.01225   0.09022   0.00000  Uiso   1.00
H256   H     0.72777   0.45348   0.07967   0.00000  Uiso   1.00
H257   H     0.97258   0.45195   0.10393   0.00000  Uiso   1.00
H258   H     0.97642   0.49031   0.05475   0.00000  Uiso   1.00
H259   H     0.97685   0.01088   0.11577   0.00000  Uiso   1.00
H260   H     0.79004   0.15071   0.12283   0.00000  Uiso   1.00
H261   H     0.79208   0.11196   0.31297   0.00000  Uiso   1.00
H262   H     0.73557   0.15657   0.07470   0.00000  Uiso   1.00
H263   H     0.72988   0.15508   0.18489   0.00000  Uiso   1.00
H264   H     0.67584   0.16084   0.13733   0.00000  Uiso   1.00
H265   H     0.69352   0.08666   0.10462   0.00000  Uiso   1.00
H266   H     0.68507   0.08326   0.16789   0.00000  Uiso   1.00
H267   H     0.74915   0.08076   0.15116   0.00000  Uiso   1.00
H268   H     0.96653   0.30067   0.36497   0.00000  Uiso   1.00
H269   H     0.95579   0.28168   0.42353   0.00000  Uiso   1.00
H270   H     0.95684   0.37901   0.38879   0.00000  Uiso   1.00
H271   H     0.94404   0.36167   0.44799   0.00000  Uiso   1.00
H272   H     0.80030   0.38686   0.17283   0.00000  Uiso   1.00
H273   H     0.69838   0.32708   0.46426   0.00000  Uiso   1.00
H274   H     0.70242   0.38520   0.45020   0.00000  Uiso   1.00
H275   H     0.71129   0.34447   0.40471   0.00000  Uiso   1.00
H276   H     0.86836   0.11041   0.18517   0.00000  Uiso   1.00
H277   H     0.86198   0.39127   0.32547   0.00000  Uiso   1.00
H278   H     0.86551   0.02977   0.18467   0.00000  Uiso   1.00
H279   H     0.85923   0.47197   0.32347   0.00000  Uiso   1.00
H280   H     0.90857   0.28246   0.04658   0.00000  Uiso   1.00
N281   N     0.83333   0.25001   0.12935   0.00000  Uiso   1.00
N282   N     0.83333   0.24999   0.37065   0.00000  Uiso   1.00
O283   O     0.83334   0.18573   0.29071   0.00000  Uiso   1.00
O284   O     0.79067   0.47207   0.16161   0.00000  Uiso   1.00
O285   O     0.75243   0.21196   0.11840   0.00000  Uiso   1.00
O286   O     0.89207   0.31087   0.37767   0.00000  Uiso   1.00
O287   O     0.83333   0.31427   0.20929   0.00000  Uiso   1.00
O288   O     0.83334   0.18573   0.20928   0.00000  Uiso   1.00
O289   O     0.83333   0.31427   0.29072   0.00000  Uiso   1.00
O290   O     0.75828   0.24999   0.28132   0.00000  Uiso   1.00
O291   O     0.90839   0.25001   0.21868   0.00000  Uiso   1.00
O292   O     0.75828   0.25000   0.19989   0.00000  Uiso   1.00
O293   O     0.90839   0.25000   0.30012   0.00000  Uiso   1.00
O294   O     0.78024   0.02675   0.31881   0.00000  Uiso   1.00
C295   C     0.16628   0.66497   0.24991   0.00000  Uiso   1.00
C296   C     0.19577   0.78084   0.45012   0.00000  Uiso   1.00
C297   C     0.16755   0.74915   0.02737   0.00000  Uiso   1.00
C298   C     0.16731   0.74920   0.47267   0.00000  Uiso   1.00
C299   C     0.06788   0.74983   0.23749   0.00000  Uiso   1.00
C300   C     0.26545   0.74991   0.26250   0.00000  Uiso   1.00
C301   C     0.01251   0.74963   0.23062   0.00000  Uiso   1.00
C302   C     0.32082   0.74971   0.26933   0.00000  Uiso   1.00
C303   C     0.13636   0.54802   0.28302   0.00000  Uiso   1.00
C304   C     0.14223   0.95130   0.20496   0.00000  Uiso   1.00
C305   C     0.14104   0.59401   0.28469   0.00000  Uiso   1.00
C306   C     0.16647   0.83507   0.24994   0.00000  Uiso   1.00
C307   C     0.14612   0.90530   0.20594   0.00000  Uiso   1.00
C308   C     0.16398   0.61676   0.24930   0.00000  Uiso   1.00
C309   C     0.16453   0.88333   0.24930   0.00000  Uiso   1.00
C310   C     0.18358   0.59329   0.21265   0.00000  Uiso   1.00
C311   C     0.18050   0.90768   0.29173   0.00000  Uiso   1.00
C312   C     0.18135   0.54737   0.21201   0.00000  Uiso   1.00
C313   C     0.17856   0.95362   0.29066   0.00000  Uiso   1.00
C314   C     0.15823   0.52434   0.24721   0.00000  Uiso   1.00
C315   C     0.15938   0.97577   0.24750   0.00000  Uiso   1.00
C316   C     0.06284   0.51269   0.29987   0.00000  Uiso   1.00
C317   C     0.20841   0.76824   0.05971   0.00000  Uiso   1.00
C318   C     0.02406   0.55039   0.30086   0.00000  Uiso   1.00
C319   C     0.30198   0.53415   0.28560   0.00000  Uiso   1.00
C320   C     0.06940   0.97242   0.15560   0.00000  Uiso   1.00
C321   C     0.04892   0.98084   0.10212   0.00000  Uiso   1.00
C322   C     0.32334   0.98366   0.09378   0.00000  Uiso   1.00
C323   C     0.08430   0.66551   0.11292   0.00000  Uiso   1.00
C324   C     0.04827   0.64629   0.14659   0.00000  Uiso   1.00
C325   C     0.04385   0.59609   0.14219   0.00000  Uiso   1.00
C326   C     0.27884   0.80826   0.39594   0.00000  Uiso   1.00
C327   C     0.29820   0.85305   0.41717   0.00000  Uiso   1.00
C328   C     0.13857   0.71782   0.44198   0.00000  Uiso   1.00
C329   C     0.02287   0.85226   0.43516   0.00000  Uiso   1.00
C330   C     0.20684   0.76888   0.11014   0.00000  Uiso   1.00
C331   C     0.13818   0.71922   0.39131   0.00000  Uiso   1.00
C332   C     0.12732   0.72961   0.09916   0.00000  Uiso   1.00
C333   C     0.19686   0.77977   0.39934   0.00000  Uiso   1.00
C334   C     0.12650   0.73029   0.04822   0.00000  Uiso   1.00
Cu335  Cu    0.16667   0.75000   0.29822   0.00000  Uiso   1.00
Cu336  Cu    0.16667   0.75001   0.20179   0.00000  Uiso   1.00
H337   H     0.32565   0.74952   0.19357   0.00000  Uiso   1.00
H338   H     0.11669   0.69183   0.45667   0.00000  Uiso   1.00
H339   H     0.23825   0.78443   0.13392   0.00000  Uiso   1.00
H340   H     0.11535   0.69518   0.36848   0.00000  Uiso   1.00
H341   H     0.09298   0.71683   0.02545   0.00000  Uiso   1.00
H342   H     0.21696   0.80677   0.47132   0.00000  Uiso   1.00
H343   H     0.05209   0.98548   0.32349   0.00000  Uiso   1.00
H344   H     0.06006   0.99852   0.26262   0.00000  Uiso   1.00
H345   H     0.02765   0.56434   0.33821   0.00000  Uiso   1.00
H346   H     0.03253   0.57711   0.27560   0.00000  Uiso   1.00
H347   H     0.29718   0.52120   0.24778   0.00000  Uiso   1.00
H348   H     0.00774   0.74968   0.30635   0.00000  Uiso   1.00
H349   H     0.27496   0.56208   0.28722   0.00000  Uiso   1.00
H350   H     0.29199   0.50765   0.31045   0.00000  Uiso   1.00
H351   H     0.05642   0.99953   0.17789   0.00000  Uiso   1.00
H352   H     0.05258   0.94039   0.16627   0.00000  Uiso   1.00
H353   H     0.06562   0.51225   0.09022   0.00000  Uiso   1.00
H354   H     0.06110   0.95348   0.07967   0.00000  Uiso   1.00
H355   H     0.30592   0.95195   0.10393   0.00000  Uiso   1.00
H356   H     0.30975   0.99031   0.05475   0.00000  Uiso   1.00
H357   H     0.31018   0.51088   0.11577   0.00000  Uiso   1.00
H358   H     0.12338   0.65071   0.12283   0.00000  Uiso   1.00
H359   H     0.12542   0.61196   0.31297   0.00000  Uiso   1.00
H360   H     0.06891   0.65657   0.07470   0.00000  Uiso   1.00
H361   H     0.06321   0.65508   0.18489   0.00000  Uiso   1.00
H362   H     0.00917   0.66084   0.13733   0.00000  Uiso   1.00
H363   H     0.02685   0.58666   0.10462   0.00000  Uiso   1.00
H364   H     0.01841   0.58326   0.16789   0.00000  Uiso   1.00
H365   H     0.08249   0.58076   0.15116   0.00000  Uiso   1.00
H366   H     0.29986   0.80067   0.36497   0.00000  Uiso   1.00
H367   H     0.28912   0.78168   0.42353   0.00000  Uiso   1.00
H368   H     0.29017   0.87901   0.38879   0.00000  Uiso   1.00
H369   H     0.27737   0.86167   0.44799   0.00000  Uiso   1.00
H370   H     0.13363   0.88686   0.17283   0.00000  Uiso   1.00
H371   H     0.03171   0.82708   0.46426   0.00000  Uiso   1.00
H372   H     0.03576   0.88520   0.45020   0.00000  Uiso   1.00
H373   H     0.04463   0.84447   0.40471   0.00000  Uiso   1.00
H374   H     0.20170   0.61041   0.18517   0.00000  Uiso   1.00
H375   H     0.19531   0.89127   0.32547   0.00000  Uiso   1.00
H376   H     0.19884   0.52977   0.18467   0.00000  Uiso   1.00
H377   H     0.19256   0.97197   0.32347   0.00000  Uiso   1.00
H378   H     0.24191   0.78246   0.04658   0.00000  Uiso   1.00
N379   N     0.16667   0.75001   0.12935   0.00000  Uiso   1.00
N380   N     0.16667   0.74999   0.37065   0.00000  Uiso   1.00
O381   O     0.16667   0.68573   0.29071   0.00000  Uiso   1.00
O382   O     0.12401   0.97207   0.16161   0.00000  Uiso   1.00
O383   O     0.08577   0.71196   0.11840   0.00000  Uiso   1.00
O384   O     0.22540   0.81087   0.37767   0.00000  Uiso   1.00
O385   O     0.16666   0.81427   0.20929   0.00000  Uiso   1.00
O386   O     0.16667   0.68573   0.20928   0.00000  Uiso   1.00
O387   O     0.16666   0.81427   0.29072   0.00000  Uiso   1.00
O388   O     0.09161   0.74999   0.28132   0.00000  Uiso   1.00
O389   O     0.24172   0.75001   0.21868   0.00000  Uiso   1.00
O390   O     0.09161   0.75000   0.19989   0.00000  Uiso   1.00
O391   O     0.24172   0.75000   0.30012   0.00000  Uiso   1.00
O392   O     0.11358   0.52675   0.31881   0.00000  Uiso   1.00
C393   C     0.49962   0.66497   0.24991   0.00000  Uiso   1.00
C394   C     0.52910   0.78084   0.45012   0.00000  Uiso   1.00
C395   C     0.50089   0.74915   0.02737   0.00000  Uiso   1.00
C396   C     0.50064   0.74920   0.47267   0.00000  Uiso   1.00
C397   C     0.40121   0.74983   0.23749   0.00000  Uiso   1.00
C398   C     0.59879   0.74991   0.26250   0.00000  Uiso   1.00
C399   C     0.34585   0.74963   0.23062   0.00000  Uiso   1.00
C400   C     0.65416   0.74971   0.26933   0.00000  Uiso   1.00
C401   C     0.46969   0.54802   0.28302   0.00000  Uiso   1.00
C402   C     0.47557   0.95130   0.20496   0.00000  Uiso   1.00
C403   C     0.47437   0.59401   0.28469   0.00000  Uiso   1.00
C404   C     0.49980   0.83507   0.24994   0.00000  Uiso   1.00
C405   C     0.47946   0.90530   0.20594   0.00000  Uiso   1.00
C406   C     0.49732   0.61676   0.24930   0.00000  Uiso   1.00
C407   C     0.49787   0.88333   0.24930   0.00000  Uiso   1.00
C408   C     0.51691   0.59329   0.21265   0.00000  Uiso   1.00
C409   C     0.51383   0.90768   0.29173   0.00000  Uiso   1.00
C410   C     0.51469   0.54737   0.21201   0.00000  Uiso   1.00
C411   C     0.51190   0.95362   0.29066   0.00000  Uiso   1.00
C412   C     0.49157   0.52434   0.24721   0.00000  Uiso   1.00
C413   C     0.49272   0.97577   0.24750   0.00000  Uiso   1.00
C414   C     0.39618   0.51269   0.29987   0.00000  Uiso   1.00
C415   C     0.54175   0.76824   0.05971   0.00000  Uiso   1.00
C416   C     0.35739   0.55039   0.30086   0.00000  Uiso   1.00
C417   C     0.63531   0.53415   0.28560   0.00000  Uiso   1.00
C418   C     0.40274   0.97242   0.15560   0.00000  Uiso   1.00
C419   C     0.38225   0.98084   0.10212   0.00000  Uiso   1.00
C420   C     0.65668   0.98366   0.09378   0.00000  Uiso   1.00
C421   C     0.41763   0.66551   0.11292   0.00000  Uiso   1.00
C422   C     0.38160   0.64629   0.14659   0.00000  Uiso   1.00
C423   C     0.37719   0.59609   0.14219   0.00000  Uiso   1.00
C424   C     0.61217   0.80826   0.39594   0.00000  Uiso   1.00
C425   C     0.63154   0.85305   0.41717   0.00000  Uiso   1.00
C426   C     0.47190   0.71782   0.44198   0.00000  Uiso   1.00
C427   C     0.35621   0.85226   0.43516   0.00000  Uiso   1.00
C428   C     0.54017   0.76888   0.11014   0.00000  Uiso   1.00
C429   C     0.47151   0.71922   0.39131   0.00000  Uiso   1.00
C430   C     0.46065   0.72961   0.09916   0.00000  Uiso   1.00
C431   C     0.53019   0.77977   0.39934   0.00000  Uiso   1.00
C432   C     0.45983   0.73029   0.04822   0.00000  Uiso   1.00
Cu433  Cu    0.50000   0.75000   0.29822   0.00000  Uiso   1.00
Cu434  Cu    0.50000   0.75001   0.20179   0.00000  Uiso   1.00
H435   H     0.65898   0.74952   0.19357   0.00000  Uiso   1.00
H436   H     0.45003   0.69183   0.45667   0.00000  Uiso   1.00
H437   H     0.57158   0.78443   0.13392   0.00000  Uiso   1.00
H438   H     0.44868   0.69518   0.36848   0.00000  Uiso   1.00
H439   H     0.42631   0.71683   0.02545   0.00000  Uiso   1.00
H440   H     0.55029   0.80677   0.47132   0.00000  Uiso   1.00
H441   H     0.38542   0.98548   0.32349   0.00000  Uiso   1.00
H442   H     0.39339   0.99852   0.26262   0.00000  Uiso   1.00
H443   H     0.36098   0.56434   0.33821   0.00000  Uiso   1.00
H444   H     0.36587   0.57711   0.27560   0.00000  Uiso   1.00
H445   H     0.63051   0.52120   0.24778   0.00000  Uiso   1.00
H446   H     0.34107   0.74968   0.30635   0.00000  Uiso   1.00
H447   H     0.60830   0.56208   0.28722   0.00000  Uiso   1.00
H448   H     0.62532   0.50765   0.31045   0.00000  Uiso   1.00
H449   H     0.38976   0.99953   0.17789   0.00000  Uiso   1.00
H450   H     0.38591   0.94039   0.16627   0.00000  Uiso   1.00
H451   H     0.39895   0.51225   0.09022   0.00000  Uiso   1.00
H452   H     0.39443   0.95348   0.07967   0.00000  Uiso   1.00
H453   H     0.63925   0.95195   0.10393   0.00000  Uiso   1.00
H454   H     0.64309   0.99031   0.05475   0.00000  Uiso   1.00
H455   H     0.64351   0.51088   0.11577   0.00000  Uiso   1.00
H456   H     0.45671   0.65071   0.12283   0.00000  Uiso   1.00
H457   H     0.45875   0.61196   0.31297   0.00000  Uiso   1.00
H458   H     0.40224   0.65657   0.07470   0.00000  Uiso   1.00
H459   H     0.39654   0.65508   0.18489   0.00000  Uiso   1.00
H460   H     0.34251   0.66084   0.13733   0.00000  Uiso   1.00
H461   H     0.36018   0.58666   0.10462   0.00000  Uiso   1.00
H462   H     0.35174   0.58326   0.16789   0.00000  Uiso   1.00
H463   H     0.41582   0.58076   0.15116   0.00000  Uiso   1.00
H464   H     0.63319   0.80067   0.36497   0.00000  Uiso   1.00
H465   H     0.62246   0.78168   0.42353   0.00000  Uiso   1.00
H466   H     0.62350   0.87901   0.38879   0.00000  Uiso   1.00
H467   H     0.61070   0.86167   0.44799   0.00000  Uiso   1.00
H468   H     0.46697   0.88686   0.17283   0.00000  Uiso   1.00
H469   H     0.36504   0.82708   0.46426   0.00000  Uiso   1.00
H470   H     0.36909   0.88520   0.45020   0.00000  Uiso   1.00
H471   H     0.37796   0.84447   0.40471   0.00000  Uiso   1.00
H472   H     0.53503   0.61041   0.18517   0.00000  Uiso   1.00
H473   H     0.52865   0.89127   0.32547   0.00000  Uiso   1.00
H474   H     0.53218   0.52977   0.18467   0.00000  Uiso   1.00
H475   H     0.52590   0.97197   0.32347   0.00000  Uiso   1.00
H476   H     0.57524   0.78246   0.04658   0.00000  Uiso   1.00
N477   N     0.50000   0.75001   0.12935   0.00000  Uiso   1.00
N478   N     0.50000   0.74999   0.37065   0.00000  Uiso   1.00
O479   O     0.50000   0.68573   0.29071   0.00000  Uiso   1.00
O480   O     0.45734   0.97207   0.16161   0.00000  Uiso   1.00
O481   O     0.41910   0.71196   0.11840   0.00000  Uiso   1.00
O482   O     0.55874   0.81087   0.37767   0.00000  Uiso   1.00
O483   O     0.50000   0.81427   0.20929   0.00000  Uiso   1.00
O484   O     0.50000   0.68573   0.20928   0.00000  Uiso   1.00
O485   O     0.50000   0.81427   0.29072   0.00000  Uiso   1.00
O486   O     0.42495   0.74999   0.28132   0.00000  Uiso   1.00
O487   O     0.57505   0.75001   0.21868   0.00000  Uiso   1.00
O488   O     0.42495   0.75000   0.19989   0.00000  Uiso   1.00
O489   O     0.57505   0.75000   0.30012   0.00000  Uiso   1.00
O490   O     0.44691   0.52675   0.31881   0.00000  Uiso   1.00
C491   C     0.83295   0.66497   0.24991   0.00000  Uiso   1.00
C492   C     0.86244   0.78084   0.45012   0.00000  Uiso   1.00
C493   C     0.83422   0.74915   0.02737   0.00000  Uiso   1.00
C494   C     0.83398   0.74920   0.47267   0.00000  Uiso   1.00
C495   C     0.73455   0.74983   0.23749   0.00000  Uiso   1.00
C496   C     0.93212   0.74991   0.26250   0.00000  Uiso   1.00
C497   C     0.67918   0.74963   0.23062   0.00000  Uiso   1.00
C498   C     0.98749   0.74971   0.26933   0.00000  Uiso   1.00
C499   C     0.80302   0.54802   0.28302   0.00000  Uiso   1.00
C500   C     0.80890   0.95130   0.20496   0.00000  Uiso   1.00
C501   C     0.80770   0.59401   0.28469   0.00000  Uiso   1.00
C502   C     0.83313   0.83507   0.24994   0.00000  Uiso   1.00
C503   C     0.81279   0.90530   0.20594   0.00000  Uiso   1.00
C504   C     0.83065   0.61676   0.24930   0.00000  Uiso   1.00
C505   C     0.83120   0.88333   0.24930   0.00000  Uiso   1.00
C506   C     0.85024   0.59329   0.21265   0.00000  Uiso   1.00
C507   C     0.84717   0.90768   0.29173   0.00000  Uiso   1.00
C508   C     0.84802   0.54737   0.21201   0.00000  Uiso   1.00
C509   C     0.84523   0.95362   0.29066   0.00000  Uiso   1.00
C510   C     0.82490   0.52434   0.24721   0.00000  Uiso   1.00
C511   C     0.82605   0.97577   0.24750   0.00000  Uiso   1.00
C512   C     0.72951   0.51269   0.29987   0.00000  Uiso   1.00
C513   C     0.87508   0.76824   0.05971   0.00000  Uiso   1.00
C514   C     0.69073   0.55039   0.30086   0.00000  Uiso   1.00
C515   C     0.96865   0.53415   0.28560   0.00000  Uiso   1.00
C516   C     0.73607   0.97242   0.15560   0.00000  Uiso   1.00
C517   C     0.71558   0.98084   0.10212   0.00000  Uiso   1.00
C518   C     0.99001   0.98366   0.09378   0.00000  Uiso   1.00
C519   C     0.75097   0.66551   0.11292   0.00000  Uiso   1.00
C520   C     0.71494   0.64629   0.14659   0.00000  Uiso   1.00
C521   C     0.71052   0.59609   0.14219   0.00000  Uiso   1.00
C522   C     0.94551   0.80826   0.39594   0.00000  Uiso   1.00
C523   C     0.96487   0.85305   0.41717   0.00000  Uiso   1.00
C524   C     0.80523   0.71782   0.44198   0.00000  Uiso   1.00
C525   C     0.68954   0.85226   0.43516   0.00000  Uiso   1.00
C526   C     0.87351   0.76888   0.11014   0.00000  Uiso   1.00
C527   C     0.80484   0.71922   0.39131   0.00000  Uiso   1.00
C528   C     0.79399   0.72961   0.09916   0.00000  Uiso   1.00
C529   C     0.86352   0.77977   0.39934   0.00000  Uiso   1.00
C530   C     0.79317   0.73029   0.04822   0.00000  Uiso   1.00
Cu531  Cu    0.83333   0.75000   0.29822   0.00000  Uiso   1.00
Cu532  Cu    0.83333   0.75001   0.20179   0.00000  Uiso   1.00
H533   H     0.99231   0.74952   0.19357   0.00000  Uiso   1.00
H534   H     0.78336   0.69183   0.45667   0.00000  Uiso   1.00
H535   H     0.90491   0.78443   0.13392   0.00000  Uiso   1.00
H536   H     0.78201   0.69518   0.36848   0.00000  Uiso   1.00
H537   H     0.75964   0.71683   0.02545   0.00000  Uiso   1.00
H538   H     0.88362   0.80677   0.47132   0.00000  Uiso   1.00
H539   H     0.71875   0.98548   0.32349   0.00000  Uiso   1.00
H540   H     0.72672   0.99852   0.26262   0.00000  Uiso   1.00
H541   H     0.69431   0.56434   0.33821   0.00000  Uiso   1.00
H542   H     0.69920   0.57711   0.27560   0.00000  Uiso   1.00
H543   H     0.96384   0.52120   0.24778   0.00000  Uiso   1.00
H544   H     0.67440   0.74968   0.30635   0.00000  Uiso   1.00
H545   H     0.94163   0.56208   0.28722   0.00000  Uiso   1.00
H546   H     0.95865   0.50765   0.31045   0.00000  Uiso   1.00
H547   H     0.72309   0.99953   0.17789   0.00000  Uiso   1.00
H548   H     0.71924   0.94039   0.16627   0.00000  Uiso   1.00
H549   H     0.73229   0.51225   0.09022   0.00000  Uiso   1.00
H550   H     0.72777   0.95348   0.07967   0.00000  Uiso   1.00
H551   H     0.97258   0.95195   0.10393   0.00000  Uiso   1.00
H552   H     0.97642   0.99031   0.05475   0.00000  Uiso   1.00
H553   H     0.97685   0.51088   0.11577   0.00000  Uiso   1.00
H554   H     0.79004   0.65071   0.12283   0.00000  Uiso   1.00
H555   H     0.79208   0.61196   0.31297   0.00000  Uiso   1.00
H556   H     0.73557   0.65657   0.07470   0.00000  Uiso   1.00
H557   H     0.72988   0.65508   0.18489   0.00000  Uiso   1.00
H558   H     0.67584   0.66084   0.13733   0.00000  Uiso   1.00
H559   H     0.69352   0.58666   0.10462   0.00000  Uiso   1.00
H560   H     0.68507   0.58326   0.16789   0.00000  Uiso   1.00
H561   H     0.74915   0.58076   0.15116   0.00000  Uiso   1.00
H562   H     0.96653   0.80067   0.36497   0.00000  Uiso   1.00
H563   H     0.95579   0.78168   0.42353   0.00000  Uiso   1.00
H564   H     0.95684   0.87901   0.38879   0.00000  Uiso   1.00
H565   H     0.94404   0.86167   0.44799   0.00000  Uiso   1.00
H566   H     0.80030   0.88686   0.17283   0.00000  Uiso   1.00
H567   H     0.69838   0.82708   0.46426   0.00000  Uiso   1.00
H568   H     0.70242   0.88520   0.45020   0.00000  Uiso   1.00
H569   H     0.71129   0.84447   0.40471   0.00000  Uiso   1.00
H570   H     0.86836   0.61041   0.18517   0.00000  Uiso   1.00
H571   H     0.86198   0.89127   0.32547   0.00000  Uiso   1.00
H572   H     0.86551   0.52977   0.18467   0.00000  Uiso   1.00
H573   H     0.85923   0.97197   0.32347   0.00000  Uiso   1.00
H574   H     0.90857   0.78246   0.04658   0.00000  Uiso   1.00
N575   N     0.83333   0.75001   0.12935   0.00000  Uiso   1.00
N576   N     0.83333   0.74999   0.37065   0.00000  Uiso   1.00
O577   O     0.83334   0.68573   0.29071   0.00000  Uiso   1.00
O578   O     0.79067   0.97207   0.16161   0.00000  Uiso   1.00
O579   O     0.75243   0.71196   0.11840   0.00000  Uiso   1.00
O580   O     0.89207   0.81087   0.37767   0.00000  Uiso   1.00
O581   O     0.83333   0.81427   0.20929   0.00000  Uiso   1.00
O582   O     0.83334   0.68573   0.20928   0.00000  Uiso   1.00
O583   O     0.83333   0.81427   0.29072   0.00000  Uiso   1.00
O584   O     0.75828   0.74999   0.28132   0.00000  Uiso   1.00
O585   O     0.90839   0.75001   0.21868   0.00000  Uiso   1.00
O586   O     0.75828   0.75000   0.19989   0.00000  Uiso   1.00
O587   O     0.90839   0.75000   0.30012   0.00000  Uiso   1.00
O588   O     0.78024   0.52675   0.31881   0.00000  Uiso   1.00
C589   C     0.16628   0.16497   0.74991   0.00000  Uiso   1.00
C590   C     0.19577   0.28084   0.95012   0.00000  Uiso   1.00
C591   C     0.16755   0.24915   0.52737   0.00000  Uiso   1.00
C592   C     0.16731   0.24920   0.97267   0.00000  Uiso   1.00
C593   C     0.06788   0.24983   0.73749   0.00000  Uiso   1.00
C594   C     0.26545   0.24991   0.76250   0.00000  Uiso   1.00
C595   C     0.01251   0.24963   0.73062   0.00000  Uiso   1.00
C596   C     0.32082   0.24971   0.76933   0.00000  Uiso   1.00
C597   C     0.13636   0.04802   0.78302   0.00000  Uiso   1.00
C598   C     0.14223   0.45130   0.70496   0.00000  Uiso   1.00
C599   C     0.14104   0.09401   0.78469   0.00000  Uiso   1.00
C600   C     0.16647   0.33507   0.74994   0.00000  Uiso   1.00
C601   C     0.14612   0.40530   0.70594   0.00000  Uiso   1.00
C602   C     0.16398   0.11676   0.74930   0.00000  Uiso   1.00
C603   C     0.16453   0.38333   0.74930   0.00000  Uiso   1.00
C604   C     0.18358   0.09329   0.71265   0.00000  Uiso   1.00
C605   C     0.18050   0.40768   0.79173   0.00000  Uiso   1.00
C606   C     0.18135   0.04737   0.71201   0.00000  Uiso   1.00
C607   C     0.17856   0.45362   0.79066   0.00000  Uiso   1.00
C608   C     0.15823   0.02434   0.74721   0.00000  Uiso   1.00
C609   C     0.15938   0.47577   0.74750   0.00000  Uiso   1.00
C610   C     0.06284   0.01269   0.79987   0.00000  Uiso   1.00
C611   C     0.20841   0.26824   0.55971   0.00000  Uiso   1.00
C612   C     0.02406   0.05039   0.80086   0.00000  Uiso   1.00
C613   C     0.30198   0.03415   0.78560   0.00000  Uiso   1.00
C614   C     0.06940   0.47242   0.65560   0.00000  Uiso   1.00
C615   C     0.04892   0.48084   0.60212   0.00000  Uiso   1.00
C616   C     0.32334   0.48366   0.59378   0.00000  Uiso   1.00
C617   C     0.08430   0.16551   0.61292   0.00000  Uiso   1.00
C618   C     0.04827   0.14629   0.64659   0.00000  Uiso   1.00
C619   C     0.04385   0.09609   0.64219   0.00000  Uiso   1.00
C620   C     0.27884   0.30826   0.89594   0.00000  Uiso   1.00
C621   C     0.29820   0.35305   0.91717   0.00000  Uiso   1.00
C622   C     0.13857   0.21782   0.94198   0.00000  Uiso   1.00
C623   C     0.02287   0.35226   0.93516   0.00000  Uiso   1.00
C624   C     0.20684   0.26888   0.61014   0.00000  Uiso   1.00
C625   C     0.13818   0.21922   0.89131   0.00000  Uiso   1.00
C626   C     0.12732   0.22961   0.59916   0.00000  Uiso   1.00
C627   C     0.19686   0.27977   0.89934   0.00000  Uiso   1.00
C628   C     0.12650   0.23029   0.54822   0.00000  Uiso   1.00
Cu629  Cu    0.16667   0.25000   0.79822   0.00000  Uiso   1.00
Cu630  Cu    0.16667   0.25001   0.70179   0.00000  Uiso   1.00
H631   H     0.32565   0.24952   0.69357   0.00000  Uiso   1.00
H632   H     0.11669   0.19183   0.95667   0.00000  Uiso   1.00
H633   H     0.23825   0.28443   0.63392   0.00000  Uiso   1.00
H634   H     0.11535   0.19518   0.86848   0.00000  Uiso   1.00
H635   H     0.09298   0.21683   0.52545   0.00000  Uiso   1.00
H636   H     0.21696   0.30677   0.97132   0.00000  Uiso   1.00
H637   H     0.05209   0.48548   0.82349   0.00000  Uiso   1.00
H638   H     0.06006   0.49852   0.76262   0.00000  Uiso   1.00
H639   H     0.02765   0.06434   0.83821   0.00000  Uiso   1.00
H640   H     0.03253   0.07711   0.77560   0.00000  Uiso   1.00
H641   H     0.29718   0.02120   0.74778   0.00000  Uiso   1.00
H642   H     0.00774   0.24968   0.80635   0.00000  Uiso   1.00
H643   H     0.27496   0.06208   0.78722   0.00000  Uiso   1.00
H644   H     0.29199   0.00765   0.81045   0.00000  Uiso   1.00
H645   H     0.05642   0.49953   0.67789   0.00000  Uiso   1.00
H646   H     0.05258   0.44039   0.66627   0.00000  Uiso   1.00
H647   H     0.06562   0.01225   0.59022   0.00000  Uiso   1.00
H648   H     0.06110   0.45348   0.57967   0.00000  Uiso   1.00
H649   H     0.30592   0.45195   0.60393   0.00000  Uiso   1.00
H650   H     0.30975   0.49031   0.55475   0.00000  Uiso   1.00
H651   H     0.31018   0.01088   0.61577   0.00000  Uiso   1.00
H652   H     0.12338   0.15071   0.62283   0.00000  Uiso   1.00
H653   H     0.12542   0.11196   0.81297   0.00000  Uiso   1.00
H654   H     0.06891   0.15657   0.57470   0.00000  Uiso   1.00
H655   H     0.06321   0.15508   0.68489   0.00000  Uiso   1.00
H656   H     0.00917   0.16084   0.63733   0.00000  Uiso   1.00
H657   H     0.02685   0.08666   0.60462   0.00000  Uiso   1.00
H658   H     0.01841   0.08326   0.66789   0.00000  Uiso   1.00
H659   H     0.08249   0.08076   0.65116   0.00000  Uiso   1.00
H660   H     0.29986   0.30067   0.86497   0.00000  Uiso   1.00
H661   H     0.28912   0.28168   0.92353   0.00000  Uiso   1.00
H662   H     0.29017   0.37901   0.88879   0.00000  Uiso   1.00
H663   H     0.27737   0.36167   0.94799   0.00000  Uiso   1.00
H664   H     0.13363   0.38686   0.67283   0.00000  Uiso   1.00
H665   H     0.03171   0.32708   0.96426   0.00000  Uiso   1.00
H666   H     0.03576   0.38520   0.95020   0.00000  Uiso   1.00
H667   H     0.04463   0.34447   0.90471   0.00000  Uiso   1.00
H668   H     0.20170   0.11041   0.68517   0.00000  Uiso   1.00
H669   H     0.19531   0.39127   0.82547   0.00000  Uiso   1.00
H670   H     0.19884   0.02977   0.68467   0.00000  Uiso   1.00
H671   H     0.19256   0.47197   0.82347   0.00000  Uiso   1.00
H672   H     0.24191   0.28246   0.54658   0.00000  Uiso   1.00
N673   N     0.16667   0.25001   0.62935   0.00000  Uiso   1.00
N674   N     0.16667   0.24999   0.87065   0.00000  Uiso   1.00
O675   O     0.16667   0.18573   0.79071   0.00000  Uiso   1.00
O676   O     0.12401   0.47207   0.66161   0.00000  Uiso   1.00
O677   O     0.08577   0.21196   0.61840   0.00000  Uiso   1.00
O678   O     0.22540   0.31087   0.87767   0.00000  Uiso   1.00
O679   O     0.16666   0.31427   0.70929   0.00000  Uiso   1.00
O680   O     0.16667   0.18573   0.70928   0.00000  Uiso   1.00
O681   O     0.16666   0.31427   0.79072   0.00000  Uiso   1.00
O682   O     0.09161   0.24999   0.78132   0.00000  Uiso   1.00
O683   O     0.24172   0.25001   0.71868   0.00000  Uiso   1.00
O684   O     0.09161   0.25000   0.69989   0.00000  Uiso   1.00
O685   O     0.24172   0.25000   0.80012   0.00000  Uiso   1.00
O686   O     0.11358   0.02675   0.81881   0.00000  Uiso   1.00
C687   C     0.49962   0.16497   0.74991   0.00000  Uiso   1.00
C688   C     0.52910   0.28084   0.95012   0.00000  Uiso   1.00
C689   C     0.50089   0.24915   0.52737   0.00000  Uiso   1.00
C690   C     0.50064   0.24920   0.97267   0.00000  Uiso   1.00
C691   C     0.40121   0.24983   0.73749   0.00000  Uiso   1.00
C692   C     0.59879   0.24991   0.76250   0.00000  Uiso   1.00
C693   C     0.34585   0.24963   0.73062   0.00000  Uiso   1.00
C694   C     0.65416   0.24971   0.76933   0.00000  Uiso   1.00
C695   C     0.46969   0.04802   0.78302   0.00000  Uiso   1.00
C696   C     0.47557   0.45130   0.70496   0.00000  Uiso   1.00
C697   C     0.47437   0.09401   0.78469   0.00000  Uiso   1.00
C698   C     0.49980   0.33507   0.74994   0.00000  Uiso   1.00
C699   C     0.47946   0.40530   0.70594   0.00000  Uiso   1.00
C700   C     0.49732   0.11676   0.74930   0.00000  Uiso   1.00
C701   C     0.49787   0.38333   0.74930   0.00000  Uiso   1.00
C702   C     0.51691   0.09329   0.71265   0.00000  Uiso   1.00
C703   C     0.51383   0.40768   0.79173   0.00000  Uiso   1.00
C704   C     0.51469   0.04737   0.71201   0.00000  Uiso   1.00
C705   C     0.51190   0.45362   0.79066   0.00000  Uiso   1.00
C706   C     0.49157   0.02434   0.74721   0.00000  Uiso   1.00
C707   C     0.49272   0.47577   0.74750   0.00000  Uiso   1.00
C708   C     0.39618   0.01269   0.79987   0.00000  Uiso   1.00
C709   C     0.54175   0.26824   0.55971   0.00000  Uiso   1.00
C710   C     0.35739   0.05039   0.80086   0.00000  Uiso   1.00
C711   C     0.63531   0.03415   0.78560   0.00000  Uiso   1.00
C712   C     0.40274   0.47242   0.65560   0.00000  Uiso   1.00
C713   C     0.38225   0.48084   0.60212   0.00000  Uiso   1.00
C714   C     0.65668   0.48366   0.59378   0.00000  Uiso   1.00
C715   C     0.41763   0.16551   0.61292   0.00000  Uiso   1.00
C716   C     0.38160   0.14629   0.64659   0.00000  Uiso   1.00
C717   C     0.37719   0.09609   0.64219   0.00000  Uiso   1.00
C718   C     0.61217   0.30826   0.89594   0.00000  Uiso   1.00
C719   C     0.63154   0.35305   0.91717   0.00000  Uiso   1.00
C720   C     0.47190   0.21782   0.94198   0.00000  Uiso   1.00
C721   C     0.35621   0.35226   0.93516   0.00000  Uiso   1.00
C722   C     0.54017   0.26888   0.61014   0.00000  Uiso   1.00
C723   C     0.47151   0.21922   0.89131   0.00000  Uiso   1.00
C724   C     0.46065   0.22961   0.59916   0.00000  Uiso   1.00
C725   C     0.53019   0.27977   0.89934   0.00000  Uiso   1.00
C726   C     0.45983   0.23029   0.54822   0.00000  Uiso   1.00
Cu727  Cu    0.50000   0.25000   0.79822   0.00000  Uiso   1.00
Cu728  Cu    0.50000   0.25001   0.70179   0.00000  Uiso   1.00
H729   H     0.65898   0.24952   0.69357   0.00000  Uiso   1.00
H730   H     0.45003   0.19183   0.95667   0.00000  Uiso   1.00
H731   H     0.57158   0.28443   0.63392   0.00000  Uiso   1.00
H732   H     0.44868   0.19518   0.86848   0.00000  Uiso   1.00
H733   H     0.42631   0.21683   0.52545   0.00000  Uiso   1.00
H734   H     0.55029   0.30677   0.97132   0.00000  Uiso   1.00
H735   H     0.38542   0.48548   0.82349   0.00000  Uiso   1.00
H736   H     0.39339   0.49852   0.76262   0.00000  Uiso   1.00
H737   H     0.36098   0.06434   0.83821   0.00000  Uiso   1.00
H738   H     0.36587   0.07711   0.77560   0.00000  Uiso   1.00
H739   H     0.63051   0.02120   0.74778   0.00000  Uiso   1.00
H740   H     0.34107   0.24968   0.80635   0.00000  Uiso   1.00
H741   H     0.60830   0.06208   0.78722   0.00000  Uiso   1.00
H742   H     0.62532   0.00765   0.81045   0.00000  Uiso   1.00
H743   H     0.38976   0.49953   0.67789   0.00000  Uiso   1.00
H744   H     0.38591   0.44039   0.66627   0.00000  Uiso   1.00
H745   H     0.39895   0.01225   0.59022   0.00000  Uiso   1.00
H746   H     0.39443   0.45348   0.57967   0.00000  Uiso   1.00
H747   H     0.63925   0.45195   0.60393   0.00000  Uiso   1.00
H748   H     0.64309   0.49031   0.55475   0.00000  Uiso   1.00
H749   H     0.64351   0.01088   0.61577   0.00000  Uiso   1.00
H750   H     0.45671   0.15071   0.62283   0.00000  Uiso   1.00
H751   H     0.45875   0.11196   0.81297   0.00000  Uiso   1.00
H752   H     0.40224   0.15657   0.57470   0.00000  Uiso   1.00
H753   H     0.39654   0.15508   0.68489   0.00000  Uiso   1.00
H754   H     0.34251   0.16084   0.63733   0.00000  Uiso   1.00
H755   H     0.36018   0.08666   0.60462   0.00000  Uiso   1.00
H756   H     0.35174   0.08326   0.66789   0.00000  Uiso   1.00
H757   H     0.41582   0.08076   0.65116   0.00000  Uiso   1.00
H758   H     0.63319   0.30067   0.86497   0.00000  Uiso   1.00
H759   H     0.62246   0.28168   0.92353   0.00000  Uiso   1.00
H760   H     0.62350   0.37901   0.88879   0.00000  Uiso   1.00
H761   H     0.61070   0.36167   0.94799   0.00000  Uiso   1.00
H762   H     0.46697   0.38686   0.67283   0.00000  Uiso   1.00
H763   H     0.36504   0.32708   0.96426   0.00000  Uiso   1.00
H764   H     0.36909   0.38520   0.95020   0.00000  Uiso   1.00
H765   H     0.37796   0.34447   0.90471   0.00000  Uiso   1.00
H766   H     0.53503   0.11041   0.68517   0.00000  Uiso   1.00
H767   H     0.52865   0.39127   0.82547   0.00000  Uiso   1.00
H768   H     0.53218   0.02977   0.68467   0.00000  Uiso   1.00
H769   H     0.52590   0.47197   0.82347   0.00000  Uiso   1.00
H770   H     0.57524   0.28246   0.54658   0.00000  Uiso   1.00
N771   N     0.50000   0.25001   0.62935   0.00000  Uiso   1.00
N772   N     0.50000   0.24999   0.87065   0.00000  Uiso   1.00
O773   O     0.50000   0.18573   0.79071   0.00000  Uiso   1.00
O774   O     0.45734   0.47207   0.66161   0.00000  Uiso   1.00
O775   O     0.41910   0.21196   0.61840   0.00000  Uiso   1.00
O776   O     0.55874   0.31087   0.87767   0.00000  Uiso   1.00
O777   O     0.50000   0.31427   0.70929   0.00000  Uiso   1.00
O778   O     0.50000   0.18573   0.70928   0.00000  Uiso   1.00
O779   O     0.50000   0.31427   0.79072   0.00000  Uiso   1.00
O780   O     0.42495   0.24999   0.78132   0.00000  Uiso   1.00
O781   O     0.57505   0.25001   0.71868   0.00000  Uiso   1.00
O782   O     0.42495   0.25000   0.69989   0.00000  Uiso   1.00
O783   O     0.57505   0.25000   0.80012   0.00000  Uiso   1.00
O784   O     0.44691   0.02675   0.81881   0.00000  Uiso   1.00
C785   C     0.83295   0.16497   0.74991   0.00000  Uiso   1.00
C786   C     0.86244   0.28084   0.95012   0.00000  Uiso   1.00
C787   C     0.83422   0.24915   0.52737   0.00000  Uiso   1.00
C788   C     0.83398   0.24920   0.97267   0.00000  Uiso   1.00
C789   C     0.73455   0.24983   0.73749   0.00000  Uiso   1.00
C790   C     0.93212   0.24991   0.76250   0.00000  Uiso   1.00
C791   C     0.67918   0.24963   0.73062   0.00000  Uiso   1.00
C792   C     0.98749   0.24971   0.76933   0.00000  Uiso   1.00
C793   C     0.80302   0.04802   0.78302   0.00000  Uiso   1.00
C794   C     0.80890   0.45130   0.70496   0.00000  Uiso   1.00
C795   C     0.80770   0.09401   0.78469   0.00000  Uiso   1.00
C796   C     0.83313   0.33507   0.74994   0.00000  Uiso   1.00
C797   C     0.81279   0.40530   0.70594   0.00000  Uiso   1.00
C798   C     0.83065   0.11676   0.74930   0.00000  Uiso   1.00
C799   C     0.83120   0.38333   0.74930   0.00000  Uiso   1.00
C800   C     0.85024   0.09329   0.71265   0.00000  Uiso   1.00
C801   C     0.84717   0.40768   0.79173   0.00000  Uiso   1.00
C802   C     0.84802   0.04737   0.71201   0.00000  Uiso   1.00
C803   C     0.84523   0.45362   0.79066   0.00000  Uiso   1.00
C804   C     0.82490   0.02434   0.74721   0.00000  Uiso   1.00
C805   C     0.82605   0.47577   0.74750   0.00000  Uiso   1.00
C806   C     0.72951   0.01269   0.79987   0.00000  Uiso   1.00
C807   C     0.87508   0.26824   0.55971   0.00000  Uiso   1.00
C808   C     0.69073   0.05039   0.80086   0.00000  Uiso   1.00
C809   C     0.96865   0.03415   0.78560   0.00000  Uiso   1.00
C810   C     0.73607   0.47242   0.65560   0.00000  Uiso   1.00
C811   C     0.71558   0.48084   0.60212   0.00000  Uiso   1.00
C812   C     0.99001   0.48366   0.59378   0.00000  Uiso   1.00
C813   C     0.75097   0.16551   0.61292   0.00000  Uiso   1.00
C814   C     0.71494   0.14629   0.64659   0.00000  Uiso   1.00
C815   C     0.71052   0.09609   0.64219   0.00000  Uiso   1.00
C816   C     0.94551   0.30826   0.89594   0.00000  Uiso   1.00
C817   C     0.96487   0.35305   0.91717   0.00000  Uiso   1.00
C818   C     0.80523   0.21782   0.94198   0.00000  Uiso   1.00
C819   C     0.68954   0.35226   0.93516   0.00000  Uiso   1.00
C820   C     0.87351   0.26888   0.61014   0.00000  Uiso   1.00
C821   C     0.80484   0.21922   0.89131   0.00000  Uiso   1.00
C822   C     0.79399   0.22961   0.59916   0.00000  Uiso   1.00
C823   C     0.86352   0.27977   0.89934   0.00000  Uiso   1.00
C824   C     0.79317   0.23029   0.54822   0.00000  Uiso   1.00
Cu825  Cu    0.83333   0.25000   0.79822   0.00000  Uiso   1.00
Cu826  Cu    0.83333   0.25001   0.70179   0.00000  Uiso   1.00
H827   H     0.99231   0.24952   0.69357   0.00000  Uiso   1.00
H828   H     0.78336   0.19183   0.95667   0.00000  Uiso   1.00
H829   H     0.90491   0.28443   0.63392   0.00000  Uiso   1.00
H830   H     0.78201   0.19518   0.86848   0.00000  Uiso   1.00
H831   H     0.75964   0.21683   0.52545   0.00000  Uiso   1.00
H832   H     0.88362   0.30677   0.97132   0.00000  Uiso   1.00
H833   H     0.71875   0.48548   0.82349   0.00000  Uiso   1.00
H834   H     0.72672   0.49852   0.76262   0.00000  Uiso   1.00
H835   H     0.69431   0.06434   0.83821   0.00000  Uiso   1.00
H836   H     0.69920   0.07711   0.77560   0.00000  Uiso   1.00
H837   H     0.96384   0.02120   0.74778   0.00000  Uiso   1.00
H838   H     0.67440   0.24968   0.80635   0.00000  Uiso   1.00
H839   H     0.94163   0.06208   0.78722   0.00000  Uiso   1.00
H840   H     0.95865   0.00765   0.81045   0.00000  Uiso   1.00
H841   H     0.72309   0.49953   0.67789   0.00000  Uiso   1.00
H842   H     0.71924   0.44039   0.66627   0.00000  Uiso   1.00
H843   H     0.73229   0.01225   0.59022   0.00000  Uiso   1.00
H844   H     0.72777   0.45348   0.57967   0.00000  Uiso   1.00
H845   H     0.97258   0.45195   0.60393   0.00000  Uiso   1.00
H846   H     0.97642   0.49031   0.55475   0.00000  Uiso   1.00
H847   H     0.97685   0.01088   0.61577   0.00000  Uiso   1.00
H848   H     0.79004   0.15071   0.62283   0.00000  Uiso   1.00
H849   H     0.79208   0.11196   0.81297   0.00000  Uiso   1.00
H850   H     0.73557   0.15657   0.57470   0.00000  Uiso   1.00
H851   H     0.72988   0.15508   0.68489   0.00000  Uiso   1.00
H852   H     0.67584   0.16084   0.63733   0.00000  Uiso   1.00
H853   H     0.69352   0.08666   0.60462   0.00000  Uiso   1.00
H854   H     0.68507   0.08326   0.66789   0.00000  Uiso   1.00
H855   H     0.74915   0.08076   0.65116   0.00000  Uiso   1.00
H856   H     0.96653   0.30067   0.86497   0.00000  Uiso   1.00
H857   H     0.95579   0.28168   0.92353   0.00000  Uiso   1.00
H858   H     0.95684   0.37901   0.88879   0.00000  Uiso   1.00
H859   H     0.94404   0.36167   0.94799   0.00000  Uiso   1.00
H860   H     0.80030   0.38686   0.67283   0.00000  Uiso   1.00
H861   H     0.69838   0.32708   0.96426   0.00000  Uiso   1.00
H862   H     0.70242   0.38520   0.95020   0.00000  Uiso   1.00
H863   H     0.71129   0.34447   0.90471   0.00000  Uiso   1.00
H864   H     0.86836   0.11041   0.68517   0.00000  Uiso   1.00
H865   H     0.86198   0.39127   0.82547   0.00000  Uiso   1.00
H866   H     0.86551   0.02977   0.68467   0.00000  Uiso   1.00
H867   H     0.85923   0.47197   0.82347   0.00000  Uiso   1.00
H868   H     0.90857   0.28246   0.54658   0.00000  Uiso   1.00
N869   N     0.83333   0.25001   0.62935   0.00000  Uiso   1.00
N870   N     0.83333   0.24999   0.87065   0.00000  Uiso   1.00
O871   O     0.83334   0.18573   0.79071   0.00000  Uiso   1.00
O872   O     0.79067   0.47207   0.66161   0.00000  Uiso   1.00
O873   O     0.75243   0.21196   0.61840   0.00000  Uiso   1.00
O874   O     0.89207   0.31087   0.87767   0.00000  Uiso   1.00
O875   O     0.83333   0.31427   0.70929   0.00000  Uiso   1.00
O876   O     0.83334   0.18573   0.70928   0.00000  Uiso   1.00
O877   O     0.83333   0.31427   0.79072   0.00000  Uiso   1.00
O878   O     0.75828   0.24999   0.78132   0.00000  Uiso   1.00
O879   O     0.90839   0.25001   0.71868   0.00000  Uiso   1.00
O880   O     0.75828   0.25000   0.69989   0.00000  Uiso   1.00
O881   O     0.90839   0.25000   0.80012   0.00000  Uiso   1.00
O882   O     0.78024   0.02675   0.81881   0.00000  Uiso   1.00
C883   C     0.16628   0.66497   0.74991   0.00000  Uiso   1.00
C884   C     0.19577   0.78084   0.95012   0.00000  Uiso   1.00
C885   C     0.16755   0.74915   0.52737   0.00000  Uiso   1.00
C886   C     0.16731   0.74920   0.97267   0.00000  Uiso   1.00
C887   C     0.06788   0.74983   0.73749   0.00000  Uiso   1.00
C888   C     0.26545   0.74991   0.76250   0.00000  Uiso   1.00
C889   C     0.01251   0.74963   0.73062   0.00000  Uiso   1.00
C890   C     0.32082   0.74971   0.76933   0.00000  Uiso   1.00
C891   C     0.13636   0.54802   0.78302   0.00000  Uiso   1.00
C892   C     0.14223   0.95130   0.70496   0.00000  Uiso   1.00
C893   C     0.14104   0.59401   0.78469   0.00000  Uiso   1.00
C894   C     0.16647   0.83507   0.74994   0.00000  Uiso   1.00
C895   C     0.14612   0.90530   0.70594   0.00000  Uiso   1.00
C896   C     0.16398   0.61676   0.74930   0.00000  Uiso   1.00
C897   C     0.16453   0.88333   0.74930   0.00000  Uiso   1.00
C898   C     0.18358   0.59329   0.71265   0.00000  Uiso   1.00
C899   C     0.18050   0.90768   0.79173   0.00000  Uiso   1.00
C900   C     0.18135   0.54737   0.71201   0.00000  Uiso   1.00
C901   C     0.17856   0.95362   0.79066   0.00000  Uiso   1.00
C902   C     0.15823   0.52434   0.74721   0.00000  Uiso   1.00
C903   C     0.15938   0.97577   0.74750   0.00000  Uiso   1.00
C904   C     0.06284   0.51269   0.79987   0.00000  Uiso   1.00
C905   C     0.20841   0.76824   0.55971   0.00000  Uiso   1.00
C906   C     0.02406   0.55039   0.80086   0.00000  Uiso   1.00
C907   C     0.30198   0.53415   0.78560   0.00000  Uiso   1.00
C908   C     0.06940   0.97242   0.65560   0.00000  Uiso   1.00
C909   C     0.04892   0.98084   0.60212   0.00000  Uiso   1.00
C910   C     0.32334   0.98366   0.59378   0.00000  Uiso   1.00
C911   C     0.08430   0.66551   0.61292   0.00000  Uiso   1.00
C912   C     0.04827   0.64629   0.64659   0.00000  Uiso   1.00
C913   C     0.04385   0.59609   0.64219   0.00000  Uiso   1.00
C914   C     0.27884   0.80826   0.89594   0.00000  Uiso   1.00
C915   C     0.29820   0.85305   0.91717   0.00000  Uiso   1.00
C916   C     0.13857   0.71782   0.94198   0.00000  Uiso   1.00
C917   C     0.02287   0.85226   0.93516   0.00000  Uiso   1.00
C918   C     0.20684   0.76888   0.61014   0.00000  Uiso   1.00
C919   C     0.13818   0.71922   0.89131   0.00000  Uiso   1.00
C920   C     0.12732   0.72961   0.59916   0.00000  Uiso   1.00
C921   C     0.19686   0.77977   0.89934   0.00000  Uiso   1.00
C922   C     0.12650   0.73029   0.54822   0.00000  Uiso   1.00
Cu923  Cu    0.16667   0.75000   0.79822   0.00000  Uiso   1.00
Cu924  Cu    0.16667   0.75001   0.70179   0.00000  Uiso   1.00
H925   H     0.32565   0.74952   0.69357   0.00000  Uiso   1.00
H926   H     0.11669   0.69183   0.95667   0.00000  Uiso   1.00
H927   H     0.23825   0.78443   0.63392   0.00000  Uiso   1.00
H928   H     0.11535   0.69518   0.86848   0.00000  Uiso   1.00
H929   H     0.09298   0.71683   0.52545   0.00000  Uiso   1.00
H930   H     0.21696   0.80677   0.97132   0.00000  Uiso   1.00
H931   H     0.05209   0.98548   0.82349   0.00000  Uiso   1.00
H932   H     0.06006   0.99852   0.76262   0.00000  Uiso   1.00
H933   H     0.02765   0.56434   0.83821   0.00000  Uiso   1.00
H934   H     0.03253   0.57711   0.77560   0.00000  Uiso   1.00
H935   H     0.29718   0.52120   0.74778   0.00000  Uiso   1.00
H936   H     0.00774   0.74968   0.80635   0.00000  Uiso   1.00
H937   H     0.27496   0.56208   0.78722   0.00000  Uiso   1.00
H938   H     0.29199   0.50765   0.81045   0.00000  Uiso   1.00
H939   H     0.05642   0.99953   0.67789   0.00000  Uiso   1.00
H940   H     0.05258   0.94039   0.66627   0.00000  Uiso   1.00
H941   H     0.06562   0.51225   0.59022   0.00000  Uiso   1.00
H942   H     0.06110   0.95348   0.57967   0.00000  Uiso   1.00
H943   H     0.30592   0.95195   0.60393   0.00000  Uiso   1.00
H944   H     0.30975   0.99031   0.55475   0.00000  Uiso   1.00
H945   H     0.31018   0.51088   0.61577   0.00000  Uiso   1.00
H946   H     0.12338   0.65071   0.62283   0.00000  Uiso   1.00
H947   H     0.12542   0.61196   0.81297   0.00000  Uiso   1.00
H948   H     0.06891   0.65657   0.57470   0.00000  Uiso   1.00
H949   H     0.06321   0.65508   0.68489   0.00000  Uiso   1.00
H950   H     0.00917   0.66084   0.63733   0.00000  Uiso   1.00
H951   H     0.02685   0.58666   0.60462   0.00000  Uiso   1.00
H952   H     0.01841   0.58326   0.66789   0.00000  Uiso   1.00
H953   H     0.08249   0.58076   0.65116   0.00000  Uiso   1.00
H954   H     0.29986   0.80067   0.86497   0.00000  Uiso   1.00
H955   H     0.28912   0.78168   0.92353   0.00000  Uiso   1.00
H956   H     0.29017   0.87901   0.88879   0.00000  Uiso   1.00
H957   H     0.27737   0.86167   0.94799   0.00000  Uiso   1.00
H958   H     0.13363   0.88686   0.67283   0.00000  Uiso   1.00
H959   H     0.03171   0.82708   0.96426   0.00000  Uiso   1.00
H960   H     0.03576   0.88520   0.95020   0.00000  Uiso   1.00
H961   H     0.04463   0.84447   0.90471   0.00000  Uiso   1.00
H962   H     0.20170   0.61041   0.68517   0.00000  Uiso   1.00
H963   H     0.19531   0.89127   0.82547   0.00000  Uiso   1.00
H964   H     0.19884   0.52977   0.68467   0.00000  Uiso   1.00
H965   H     0.19256   0.97197   0.82347   0.00000  Uiso   1.00
H966   H     0.24191   0.78246   0.54658   0.00000  Uiso   1.00
N967   N     0.16667   0.75001   0.62935   0.00000  Uiso   1.00
N968   N     0.16667   0.74999   0.87065   0.00000  Uiso   1.00
O969   O     0.16667   0.68573   0.79071   0.00000  Uiso   1.00
O970   O     0.12401   0.97207   0.66161   0.00000  Uiso   1.00
O971   O     0.08577   0.71196   0.61840   0.00000  Uiso   1.00
O972   O     0.22540   0.81087   0.87767   0.00000  Uiso   1.00
O973   O     0.16666   0.81427   0.70929   0.00000  Uiso   1.00
O974   O     0.16667   0.68573   0.70928   0.00000  Uiso   1.00
O975   O     0.16666   0.81427   0.79072   0.00000  Uiso   1.00
O976   O     0.09161   0.74999   0.78132   0.00000  Uiso   1.00
O977   O     0.24172   0.75001   0.71868   0.00000  Uiso   1.00
O978   O     0.09161   0.75000   0.69989   0.00000  Uiso   1.00
O979   O     0.24172   0.75000   0.80012   0.00000  Uiso   1.00
O980   O     0.11358   0.52675   0.81881   0.00000  Uiso   1.00
C981   C     0.49962   0.66497   0.74991   0.00000  Uiso   1.00
C982   C     0.52910   0.78084   0.95012   0.00000  Uiso   1.00
C983   C     0.50089   0.74915   0.52737   0.00000  Uiso   1.00
C984   C     0.50064   0.74920   0.97267   0.00000  Uiso   1.00
C985   C     0.40121   0.74983   0.73749   0.00000  Uiso   1.00
C986   C     0.59879   0.74991   0.76250   0.00000  Uiso   1.00
C987   C     0.34585   0.74963   0.73062   0.00000  Uiso   1.00
C988   C     0.65416   0.74971   0.76933   0.00000  Uiso   1.00
C989   C     0.46969   0.54802   0.78302   0.00000  Uiso   1.00
C990   C     0.47557   0.95130   0.70496   0.00000  Uiso   1.00
C991   C     0.47437   0.59401   0.78469   0.00000  Uiso   1.00
C992   C     0.49980   0.83507   0.74994   0.00000  Uiso   1.00
C993   C     0.47946   0.90530   0.70594   0.00000  Uiso   1.00
C994   C     0.49732   0.61676   0.74930   0.00000  Uiso   1.00
C995   C     0.49787   0.88333   0.74930   0.00000  Uiso   1.00
C996   C     0.51691   0.59329   0.71265   0.00000  Uiso   1.00
C997   C     0.51383   0.90768   0.79173   0.00000  Uiso   1.00
C998   C     0.51469   0.54737   0.71201   0.00000  Uiso   1.00
C999   C     0.51190   0.95362   0.79066   0.00000  Uiso   1.00
C1000  C     0.49157   0.52434   0.74721   0.00000  Uiso   1.00
C1001  C     0.49272   0.97577   0.74750   0.00000  Uiso   1.00
C1002  C     0.39618   0.51269   0.79987   0.00000  Uiso   1.00
C1003  C     0.54175   0.76824   0.55971   0.00000  Uiso   1.00
C1004  C     0.35739   0.55039   0.80086   0.00000  Uiso   1.00
C1005  C     0.63531   0.53415   0.78560   0.00000  Uiso   1.00
C1006  C     0.40274   0.97242   0.65560   0.00000  Uiso   1.00
C1007  C     0.38225   0.98084   0.60212   0.00000  Uiso   1.00
C1008  C     0.65668   0.98366   0.59378   0.00000  Uiso   1.00
C1009  C     0.41763   0.66551   0.61292   0.00000  Uiso   1.00
C1010  C     0.38160   0.64629   0.64659   0.00000  Uiso   1.00
C1011  C     0.37719   0.59609   0.64219   0.00000  Uiso   1.00
C1012  C     0.61217   0.80826   0.89594   0.00000  Uiso   1.00
C1013  C     0.63154   0.85305   0.91717   0.00000  Uiso   1.00
C1014  C     0.47190   0.71782   0.94198   0.00000  Uiso   1.00
C1015  C     0.35621   0.85226   0.93516   0.00000  Uiso   1.00
C1016  C     0.54017   0.76888   0.61014   0.00000  Uiso   1.00
C1017  C     0.47151   0.71922   0.89131   0.00000  Uiso   1.00
C1018  C     0.46065   0.72961   0.59916   0.00000  Uiso   1.00
C1019  C     0.53019   0.77977   0.89934   0.00000  Uiso   1.00
C1020  C     0.45983   0.73029   0.54822   0.00000  Uiso   1.00
Cu1021 Cu    0.50000   0.75000   0.79822   0.00000  Uiso   1.00
Cu1022 Cu    0.50000   0.75001   0.70179   0.00000  Uiso   1.00
H1023  H     0.65898   0.74952   0.69357   0.00000  Uiso   1.00
H1024  H     0.45003   0.69183   0.95667   0.00000  Uiso   1.00
H1025  H     0.57158   0.78443   0.63392   0.00000  Uiso   1.00
H1026  H     0.44868   0.69518   0.86848   0.00000  Uiso   1.00
H1027  H     0.42631   0.71683   0.52545   0.00000  Uiso   1.00
H1028  H     0.55029   0.80677   0.97132   0.00000  Uiso   1.00
H1029  H     0.38542   0.98548   0.82349   0.00000  Uiso   1.00
H1030  H     0.39339   0.99852   0.76262   0.00000  Uiso   1.00
H1031  H     0.36098   0.56434   0.83821   0.00000  Uiso   1.00
H1032  H     0.36587   0.57711   0.77560   0.00000  Uiso   1.00
H1033  H     0.63051   0.52120   0.74778   0.00000  Uiso   1.00
H1034  H     0.34107   0.74968   0.80635   0.00000  Uiso   1.00
H1035  H     0.60830   0.56208   0.78722   0.00000  Uiso   1.00
H1036  H     0.62532   0.50765   0.81045   0.00000  Uiso   1.00
H1037  H     0.38976   0.99953   0.67789   0.00000  Uiso   1.00
H1038  H     0.38591   0.94039   0.66627   0.00000  Uiso   1.00
H1039  H     0.39895   0.51225   0.59022   0.00000  Uiso   1.00
H1040  H     0.39443   0.95348   0.57967   0.00000  Uiso   1.00
H1041  H     0.63925   0.95195   0.60393   0.00000  Uiso   1.00
H1042  H     0.64309   0.99031   0.55475   0.00000  Uiso   1.00
H1043  H     0.64351   0.51088   0.61577   0.00000  Uiso   1.00
H1044  H     0.45671   0.65071   0.62283   0.00000  Uiso   1.00
H1045  H     0.45875   0.61196   0.81297   0.00000  Uiso   1.00
H1046  H     0.40224   0.65657   0.57470   0.00000  Uiso   1.00
H1047  H     0.39654   0.65508   0.68489   0.00000  Uiso   1.00
H1048  H     0.34251   0.66084   0.63733   0.00000  Uiso   1.00
H1049  H     0.36018   0.58666   0.60462   0.00000  Uiso   1.00
H1050  H     0.35174   0.58326   0.66789   0.00000  Uiso   1.00
H1051  H     0.41582   0.58076   0.65116   0.00000  Uiso   1.00
H1052  H     0.63319   0.80067   0.86497   0.00000  Uiso   1.00
H1053  H     0.62246   0.78168   0.92353   0.00000  Uiso   1.00
H1054  H     0.62350   0.87901   0.88879   0.00000  Uiso   1.00
H1055  H     0.61070   0.86167   0.94799   0.00000  Uiso   1.00
H1056  H     0.46697   0.88686   0.67283   0.00000  Uiso   1.00
H1057  H     0.36504   0.82708   0.96426   0.00000  Uiso   1.00
H1058  H     0.36909   0.88520   0.95020   0.00000  Uiso   1.00
H1059  H     0.37796   0.84447   0.90471   0.00000  Uiso   1.00
H1060  H     0.53503   0.61041   0.68517   0.00000  Uiso   1.00
H1061  H     0.52865   0.89127   0.82547   0.00000  Uiso   1.00
H1062  H     0.53218   0.52977   0.68467   0.00000  Uiso   1.00
H1063  H     0.52590   0.97197   0.82347   0.00000  Uiso   1.00
H1064  H     0.57524   0.78246   0.54658   0.00000  Uiso   1.00
N1065  N     0.50000   0.75001   0.62935   0.00000  Uiso   1.00
N1066  N     0.50000   0.74999   0.87065   0.00000  Uiso   1.00
O1067  O     0.50000   0.68573   0.79071   0.00000  Uiso   1.00
O1068  O     0.45734   0.97207   0.66161   0.00000  Uiso   1.00
O1069  O     0.41910   0.71196   0.61840   0.00000  Uiso   1.00
O1070  O     0.55874   0.81087   0.87767   0.00000  Uiso   1.00
O1071  O     0.50000   0.81427   0.70929   0.00000  Uiso   1.00
O1072  O     0.50000   0.68573   0.70928   0.00000  Uiso   1.00
O1073  O     0.50000   0.81427   0.79072   0.00000  Uiso   1.00
O1074  O     0.42495   0.74999   0.78132   0.00000  Uiso   1.00
O1075  O     0.57505   0.75001   0.71868   0.00000  Uiso   1.00
O1076  O     0.42495   0.75000   0.69989   0.00000  Uiso   1.00
O1077  O     0.57505   0.75000   0.80012   0.00000  Uiso   1.00
O1078  O     0.44691   0.52675   0.81881   0.00000  Uiso   1.00
C1079  C     0.83295   0.66497   0.74991   0.00000  Uiso   1.00
C1080  C     0.86244   0.78084   0.95012   0.00000  Uiso   1.00
C1081  C     0.83422   0.74915   0.52737   0.00000  Uiso   1.00
C1082  C     0.83398   0.74920   0.97267   0.00000  Uiso   1.00
C1083  C     0.73455   0.74983   0.73749   0.00000  Uiso   1.00
C1084  C     0.93212   0.74991   0.76250   0.00000  Uiso   1.00
C1085  C     0.67918   0.74963   0.73062   0.00000  Uiso   1.00
C1086  C     0.98749   0.74971   0.76933   0.00000  Uiso   1.00
C1087  C     0.80302   0.54802   0.78302   0.00000  Uiso   1.00
C1088  C     0.80890   0.95130   0.70496   0.00000  Uiso   1.00
C1089  C     0.80770   0.59401   0.78469   0.00000  Uiso   1.00
C1090  C     0.83313   0.83507   0.74994   0.00000  Uiso   1.00
C1091  C     0.81279   0.90530   0.70594   0.00000  Uiso   1.00
C1092  C     0.83065   0.61676   0.74930   0.00000  Uiso   1.00
C1093  C     0.83120   0.88333   0.74930   0.00000  Uiso   1.00
C1094  C     0.85024   0.59329   0.71265   0.00000  Uiso   1.00
C1095  C     0.84717   0.90768   0.79173   0.00000  Uiso   1.00
C1096  C     0.84802   0.54737   0.71201   0.00000  Uiso   1.00
C1097  C     0.84523   0.95362   0.79066   0.00000  Uiso   1.00
C1098  C     0.82490   0.52434   0.74721   0.00000  Uiso   1.00
C1099  C     0.82605   0.97577   0.74750   0.00000  Uiso   1.00
C1100  C     0.72951   0.51269   0.79987   0.00000  Uiso   1.00
C1101  C     0.87508   0.76824   0.55971   0.00000  Uiso   1.00
C1102  C     0.69073   0.55039   0.80086   0.00000  Uiso   1.00
C1103  C     0.96865   0.53415   0.78560   0.00000  Uiso   1.00
C1104  C     0.73607   0.97242   0.65560   0.00000  Uiso   1.00
C1105  C     0.71558   0.98084   0.60212   0.00000  Uiso   1.00
C1106  C     0.99001   0.98366   0.59378   0.00000  Uiso   1.00
C1107  C     0.75097   0.66551   0.61292   0.00000  Uiso   1.00
C1108  C     0.71494   0.64629   0.64659   0.00000  Uiso   1.00
C1109  C     0.71052   0.59609   0.64219   0.00000  Uiso   1.00
C1110  C     0.94551   0.80826   0.89594   0.00000  Uiso   1.00
C1111  C     0.96487   0.85305   0.91717   0.00000  Uiso   1.00
C1112  C     0.80523   0.71782   0.94198   0.00000  Uiso   1.00
C1113  C     0.68954   0.85226   0.93516   0.00000  Uiso   1.00
C1114  C     0.87351   0.76888   0.61014   0.00000  Uiso   1.00
C1115  C     0.80484   0.71922   0.89131   0.00000  Uiso   1.00
C1116  C     0.79399   0.72961   0.59916   0.00000  Uiso   1.00
C1117  C     0.86352   0.77977   0.89934   0.00000  Uiso   1.00
C1118  C     0.79317   0.73029   0.54822   0.00000  Uiso   1.00
Cu1119 Cu    0.83333   0.75000   0.79822   0.00000  Uiso   1.00
Cu1120 Cu    0.83333   0.75001   0.70179   0.00000  Uiso   1.00
H1121  H     0.99231   0.74952   0.69357   0.00000  Uiso   1.00
H1122  H     0.78336   0.69183   0.95667   0.00000  Uiso   1.00
H1123  H     0.90491   0.78443   0.63392   0.00000  Uiso   1.00
H1124  H     0.78201   0.69518   0.86848   0.00000  Uiso   1.00
H1125  H     0.75964   0.71683   0.52545   0.00000  Uiso   1.00
H1126  H     0.88362   0.80677   0.97132   0.00000  Uiso   1.00
H1127  H     0.71875   0.98548   0.82349   0.00000  Uiso   1.00
H1128  H     0.72672   0.99852   0.76262   0.00000  Uiso   1.00
H1129  H     0.69431   0.56434   0.83821   0.00000  Uiso   1.00
H1130  H     0.69920   0.57711   0.77560   0.00000  Uiso   1.00
H1131  H     0.96384   0.52120   0.74778   0.00000  Uiso   1.00
H1132  H     0.67440   0.74968   0.80635   0.00000  Uiso   1.00
H1133  H     0.94163   0.56208   0.78722   0.00000  Uiso   1.00
H1134  H     0.95865   0.50765   0.81045   0.00000  Uiso   1.00
H1135  H     0.72309   0.99953   0.67789   0.00000  Uiso   1.00
H1136  H     0.71924   0.94039   0.66627   0.00000  Uiso   1.00
H1137  H     0.73229   0.51225   0.59022   0.00000  Uiso   1.00
H1138  H     0.72777   0.95348   0.57967   0.00000  Uiso   1.00
H1139  H     0.97258   0.95195   0.60393   0.00000  Uiso   1.00
H1140  H     0.97642   0.99031   0.55475   0.00000  Uiso   1.00
H1141  H     0.97685   0.51088   0.61577   0.00000  Uiso   1.00
H1142  H     0.79004   0.65071   0.62283   0.00000  Uiso   1.00
H1143  H     0.79208   0.61196   0.81297   0.00000  Uiso   1.00
H1144  H     0.73557   0.65657   0.57470   0.00000  Uiso   1.00
H1145  H     0.72988   0.65508   0.68489   0.00000  Uiso   1.00
H1146  H     0.67584   0.66084   0.63733   0.00000  Uiso   1.00
H1147  H     0.69352   0.58666   0.60462   0.00000  Uiso   1.00
H1148  H     0.68507   0.58326   0.66789   0.00000  Uiso   1.00
H1149  H     0.74915   0.58076   0.65116   0.00000  Uiso   1.00
H1150  H     0.96653   0.80067   0.86497   0.00000  Uiso   1.00
H1151  H     0.95579   0.78168   0.92353   0.00000  Uiso   1.00
H1152  H     0.95684   0.87901   0.88879   0.00000  Uiso   1.00
H1153  H     0.94404   0.86167   0.94799   0.00000  Uiso   1.00
H1154  H     0.80030   0.88686   0.67283   0.00000  Uiso   1.00
H1155  H     0.69838   0.82708   0.96426   0.00000  Uiso   1.00
H1156  H     0.70242   0.88520   0.95020   0.00000  Uiso   1.00
H1157  H     0.71129   0.84447   0.90471   0.00000  Uiso   1.00
H1158  H     0.86836   0.61041   0.68517   0.00000  Uiso   1.00
H1159  H     0.86198   0.89127   0.82547   0.00000  Uiso   1.00
H1160  H     0.86551   0.52977   0.68467   0.00000  Uiso   1.00
H1161  H     0.85923   0.97197   0.82347   0.00000  Uiso   1.00
H1162  H     0.90857   0.78246   0.54658   0.00000  Uiso   1.00
N1163  N     0.83333   0.75001   0.62935   0.00000  Uiso   1.00
N1164  N     0.83333   0.74999   0.87065   0.00000  Uiso   1.00
O1165  O     0.83334   0.68573   0.79071   0.00000  Uiso   1.00
O1166  O     0.79067   0.97207   0.66161   0.00000  Uiso   1.00
O1167  O     0.75243   0.71196   0.61840   0.00000  Uiso   1.00
O1168  O     0.89207   0.81087   0.87767   0.00000  Uiso   1.00
O1169  O     0.83333   0.81427   0.70929   0.00000  Uiso   1.00
O1170  O     0.83334   0.68573   0.70928   0.00000  Uiso   1.00
O1171  O     0.83333   0.81427   0.79072   0.00000  Uiso   1.00
O1172  O     0.75828   0.74999   0.78132   0.00000  Uiso   1.00
O1173  O     0.90839   0.75001   0.71868   0.00000  Uiso   1.00
O1174  O     0.75828   0.75000   0.69989   0.00000  Uiso   1.00
O1175  O     0.90839   0.75000   0.80012   0.00000  Uiso   1.00
O1176  O     0.78024   0.52675   0.81881   0.00000  Uiso   1.00
loop_
_geom_bond_atom_site_label_1
_geom_bond_atom_site_label_2
_geom_bond_distance
_geom_bond_site_symmetry_2
_ccdc_geom_bond_type
C1     O87     1.295   .     A
C1     O92     1.292   .     A
C1     C14     1.458   .     S
C2     C39     1.415   .     A
C2     H48     1.080   .     S
C2     C4      1.407   .     A
C3     C23     1.412   .     A
C3     C40     1.407   .     A
C3     C592    1.519   1_554 S
C4     C34     1.412   .     A
C4     C591    1.519   .     S
C5     O94     1.285   .     A
C5     C7      1.432   .     S
C5     O96     1.289   .     A
C6     O97     1.289   .     A
C6     C8      1.432   .     S
C6     O95     1.285   .     A
C7     C204    1.336   1_455 S
C7     H239    1.087   1_455 S
C8     C105    1.336   .     S
C8     H152    1.087   .     S
C9     O98     1.385   .     S
C9     C20     1.414   .     A
C9     C11     1.394   .     A
C10    O88     1.383   .     S
C10    C21     1.410   .     A
C10    C13     1.394   .     A
C11    C14     1.400   .     A
C11    H65     1.084   .     S
C12    O91     1.293   .     A
C12    C15     1.460   .     S
C12    O93     1.295   .     A
C13    H76     1.084   .     S
C13    C15     1.401   .     A
C14    C16     1.399   .     A
C15    C17     1.400   .     A
C16    H80     1.083   .     S
C16    C18     1.388   .     A
C17    H81     1.083   .     S
C17    C19     1.390   .     A
C18    H82     1.083   .     S
C18    C20     1.402   .     A
C19    C21     1.403   .     A
C19    H83     1.083   .     S
C20    C315    1.468   1_545 S
C21    C314    1.468   .     S
C22    O98     1.416   .     S
C22    C24     1.534   .     S
C22    H343    1.111   1_545 S
C22    H344    1.112   1_545 S
C23    H84     1.081   .     S
C23    C36     1.408   .     A
C24    H52     1.111   .     S
C24    H51     1.111   .     S
C24    C221    1.526   1_455 S
C25    H56     1.111   .     S
C25    H53     1.111   .     S
C25    H55     1.110   .     S
C25    C122    1.526   .     S
C26    C27     1.527   .     S
C26    H58     1.117   .     S
C26    O88     1.413   .     S
C26    H57     1.111   .     S
C27    H60     1.112   .     S
C27    C224    1.527   1_455 S
C27    H353    1.111   .     S
C28    H61     1.111   .     S
C28    H62     1.110   .     S
C28    C125    1.527   .     S
C28    H357    1.111   .     S
C29    O89     1.412   .     S
C29    H64     1.116   .     S
C29    C30     1.530   .     S
C29    H66     1.113   .     S
C30    C31     1.524   .     S
C30    H67     1.111   .     S
C30    H68     1.112   .     S
C31    H70     1.111   .     S
C31    H71     1.110   .     S
C31    H69     1.110   .     S
C32    H72     1.110   .     S
C32    O90     1.419   .     S
C32    H73     1.117   .     S
C32    C33     1.529   .     S
C33    H75     1.111   .     S
C33    H74     1.112   .     S
C33    C133    1.527   .     S
C34    C37     1.407   .     A
C34    H44     1.081   .     S
C35    H77     1.111   .     S
C35    H78     1.110   .     S
C35    H79     1.111   .     S
C35    C229    1.527   1_455 S
C36    H45     1.081   .     S
C36    N85     1.364   .     A
C37    N86     1.363   .     A
C37    H46     1.082   .     S
C38    O89     1.380   .     S
C38    N85     1.372   .     A
C38    C40     1.412   .     A
C39    O90     1.385   .     S
C39    N86     1.369   .     A
C40    H47     1.081   .     S
Cu41   Cu42    2.679   .     S
Cu41   N86     2.013   .     S
Cu41   O87     1.953   .     S
Cu41   O94     1.950   .     S
Cu41   O93     1.953   .     S
Cu41   O97     1.954   .     S
Cu42   O96     1.954   .     S
Cu42   O91     1.953   .     S
Cu42   O95     1.950   .     S
Cu42   N85     2.013   .     S
Cu42   O92     1.953   .     S
H43    C105    1.087   .     S
H49    C316    1.111   .     S
H50    C316    1.112   .     S
H54    C204    1.087   1_455 S
H59    C321    1.111   1_545 S
H63    C322    1.111   1_545 S
C99    O185    1.295   .     A
C99    O190    1.292   .     A
C99    C112    1.458   .     S
C100   C137    1.415   .     A
C100   H146    1.080   .     S
C100   C102    1.407   .     A
C101   C121    1.412   .     A
C101   C138    1.407   .     A
C101   C690    1.519   1_554 S
C102   C132    1.412   .     A
C102   C689    1.519   .     S
C103   O192    1.285   .     A
C103   C105    1.432   .     S
C103   O194    1.289   .     A
C104   O195    1.289   .     A
C104   C106    1.432   .     S
C104   O193    1.285   .     A
C106   C203    1.336   .     S
C106   H250    1.087   .     S
C107   O196    1.385   .     S
C107   C118    1.414   .     A
C107   C109    1.394   .     A
C108   O186    1.383   .     S
C108   C119    1.410   .     A
C108   C111    1.394   .     A
C109   C112    1.400   .     A
C109   H163    1.084   .     S
C110   O189    1.293   .     A
C110   C113    1.460   .     S
C110   O191    1.295   .     A
C111   H174    1.084   .     S
C111   C113    1.401   .     A
C112   C114    1.399   .     A
C113   C115    1.400   .     A
C114   H178    1.083   .     S
C114   C116    1.388   .     A
C115   H179    1.083   .     S
C115   C117    1.390   .     A
C116   H180    1.083   .     S
C116   C118    1.402   .     A
C117   C119    1.403   .     A
C117   H181    1.083   .     S
C118   C413    1.468   1_545 S
C119   C412    1.468   .     S
C120   O196    1.416   .     S
C120   C122    1.534   .     S
C120   H441    1.111   1_545 S
C120   H442    1.112   1_545 S
C121   H182    1.081   .     S
C121   C134    1.408   .     A
C122   H150    1.111   .     S
C122   H149    1.111   .     S
C123   H154    1.111   .     S
C123   H151    1.111   .     S
C123   H153    1.110   .     S
C123   C220    1.526   .     S
C124   C125    1.527   .     S
C124   H156    1.117   .     S
C124   O186    1.413   .     S
C124   H155    1.111   .     S
C125   H158    1.112   .     S
C125   H451    1.111   .     S
C126   H159    1.111   .     S
C126   H160    1.110   .     S
C126   C223    1.527   .     S
C126   H455    1.111   .     S
C127   O187    1.412   .     S
C127   H162    1.116   .     S
C127   C128    1.530   .     S
C127   H164    1.113   .     S
C128   C129    1.524   .     S
C128   H165    1.111   .     S
C128   H166    1.112   .     S
C129   H168    1.111   .     S
C129   H169    1.110   .     S
C129   H167    1.110   .     S
C130   H170    1.110   .     S
C130   O188    1.419   .     S
C130   H171    1.117   .     S
C130   C131    1.529   .     S
C131   H173    1.111   .     S
C131   H172    1.112   .     S
C131   C231    1.527   .     S
C132   C135    1.407   .     A
C132   H142    1.081   .     S
C133   H175    1.111   .     S
C133   H176    1.110   .     S
C133   H177    1.111   .     S
C134   H143    1.081   .     S
C134   N183    1.364   .     A
C135   N184    1.363   .     A
C135   H144    1.082   .     S
C136   O187    1.380   .     S
C136   N183    1.372   .     A
C136   C138    1.412   .     A
C137   O188    1.385   .     S
C137   N184    1.369   .     A
C138   H145    1.081   .     S
Cu139  Cu140   2.679   .     S
Cu139  N184    2.013   .     S
Cu139  O185    1.953   .     S
Cu139  O192    1.950   .     S
Cu139  O191    1.953   .     S
Cu139  O195    1.954   .     S
Cu140  O194    1.954   .     S
Cu140  O189    1.953   .     S
Cu140  O193    1.950   .     S
Cu140  N183    2.013   .     S
Cu140  O190    1.953   .     S
H141   C203    1.087   .     S
H147   C414    1.111   .     S
H148   C414    1.112   .     S
H157   C419    1.111   1_545 S
H161   C420    1.111   1_545 S
C197   O283    1.295   .     A
C197   O288    1.292   .     A
C197   C210    1.458   .     S
C198   C235    1.415   .     A
C198   H244    1.080   .     S
C198   C200    1.407   .     A
C199   C219    1.412   .     A
C199   C236    1.407   .     A
C199   C788    1.519   1_554 S
C200   C230    1.412   .     A
C200   C787    1.519   .     S
C201   O290    1.285   .     A
C201   C203    1.432   .     S
C201   O292    1.289   .     A
C202   O293    1.289   .     A
C202   C204    1.432   .     S
C202   O291    1.285   .     A
C204   C7      1.336   1_655 S
C204   H54     1.087   1_655 S
C205   O294    1.385   .     S
C205   C216    1.414   .     A
C205   C207    1.394   .     A
C206   O284    1.383   .     S
C206   C217    1.410   .     A
C206   C209    1.394   .     A
C207   C210    1.400   .     A
C207   H261    1.084   .     S
C208   O287    1.293   .     A
C208   C211    1.460   .     S
C208   O289    1.295   .     A
C209   H272    1.084   .     S
C209   C211    1.401   .     A
C210   C212    1.399   .     A
C211   C213    1.400   .     A
C212   H276    1.083   .     S
C212   C214    1.388   .     A
C213   H277    1.083   .     S
C213   C215    1.390   .     A
C214   H278    1.083   .     S
C214   C216    1.402   .     A
C215   C217    1.403   .     A
C215   H279    1.083   .     S
C216   C511    1.468   1_545 S
C217   C510    1.468   .     S
C218   O294    1.416   .     S
C218   C220    1.534   .     S
C218   H539    1.111   1_545 S
C218   H540    1.112   1_545 S
C219   H280    1.081   .     S
C219   C232    1.408   .     A
C220   H248    1.111   .     S
C220   H247    1.111   .     S
C221   H252    1.111   .     S
C221   H249    1.111   .     S
C221   H251    1.110   .     S
C221   C24     1.526   1_655 S
C222   C223    1.527   .     S
C222   H254    1.117   .     S
C222   O284    1.413   .     S
C222   H253    1.111   .     S
C223   H256    1.112   .     S
C223   H549    1.111   .     S
C224   H257    1.111   .     S
C224   H258    1.110   .     S
C224   C27     1.527   1_655 S
C224   H553    1.111   .     S
C225   O285    1.412   .     S
C225   H260    1.116   .     S
C225   C226    1.530   .     S
C225   H262    1.113   .     S
C226   C227    1.524   .     S
C226   H263    1.111   .     S
C226   H264    1.112   .     S
C227   H266    1.111   .     S
C227   H267    1.110   .     S
C227   H265    1.110   .     S
C228   H268    1.110   .     S
C228   O286    1.419   .     S
C228   H269    1.117   .     S
C228   C229    1.529   .     S
C229   H271    1.111   .     S
C229   H270    1.112   .     S
C229   C35     1.527   1_655 S
C230   C233    1.407   .     A
C230   H240    1.081   .     S
C231   H273    1.111   .     S
C231   H274    1.110   .     S
C231   H275    1.111   .     S
C232   H241    1.081   .     S
C232   N281    1.364   .     A
C233   N282    1.363   .     A
C233   H242    1.082   .     S
C234   O285    1.380   .     S
C234   N281    1.372   .     A
C234   C236    1.412   .     A
C235   O286    1.385   .     S
C235   N282    1.369   .     A
C236   H243    1.081   .     S
Cu237  Cu238   2.679   .     S
Cu237  N282    2.013   .     S
Cu237  O283    1.953   .     S
Cu237  O290    1.950   .     S
Cu237  O289    1.953   .     S
Cu237  O293    1.954   .     S
Cu238  O292    1.954   .     S
Cu238  O287    1.953   .     S
Cu238  O291    1.950   .     S
Cu238  N281    2.013   .     S
Cu238  O288    1.953   .     S
H239   C7      1.087   1_655 S
H245   C512    1.111   .     S
H246   C512    1.112   .     S
H255   C517    1.111   1_545 S
H259   C518    1.111   1_545 S
C295   O381    1.295   .     A
C295   O386    1.292   .     A
C295   C308    1.458   .     S
C296   C333    1.415   .     A
C296   H342    1.080   .     S
C296   C298    1.407   .     A
C297   C317    1.412   .     A
C297   C334    1.407   .     A
C297   C886    1.519   1_554 S
C298   C328    1.412   .     A
C298   C885    1.519   .     S
C299   O388    1.285   .     A
C299   C301    1.432   .     S
C299   O390    1.289   .     A
C300   O391    1.289   .     A
C300   C302    1.432   .     S
C300   O389    1.285   .     A
C301   C498    1.336   1_455 S
C301   H533    1.087   1_455 S
C302   C399    1.336   .     S
C302   H446    1.087   .     S
C303   O392    1.385   .     S
C303   C314    1.414   .     A
C303   C305    1.394   .     A
C304   O382    1.383   .     S
C304   C315    1.410   .     A
C304   C307    1.394   .     A
C305   C308    1.400   .     A
C305   H359    1.084   .     S
C306   O385    1.293   .     A
C306   C309    1.460   .     S
C306   O387    1.295   .     A
C307   H370    1.084   .     S
C307   C309    1.401   .     A
C308   C310    1.399   .     A
C309   C311    1.400   .     A
C310   H374    1.083   .     S
C310   C312    1.388   .     A
C311   H375    1.083   .     S
C311   C313    1.390   .     A
C312   H376    1.083   .     S
C312   C314    1.402   .     A
C313   C315    1.403   .     A
C313   H377    1.083   .     S
C315   C20     1.468   1_565 S
C316   O392    1.416   .     S
C316   C318    1.534   .     S
C317   H378    1.081   .     S
C317   C330    1.408   .     A
C318   H346    1.111   .     S
C318   H345    1.111   .     S
C318   C515    1.526   1_455 S
C319   H350    1.111   .     S
C319   H347    1.111   .     S
C319   H349    1.110   .     S
C319   C416    1.526   .     S
C320   C321    1.527   .     S
C320   H352    1.117   .     S
C320   O382    1.413   .     S
C320   H351    1.111   .     S
C321   H354    1.112   .     S
C321   C518    1.527   1_455 S
C321   H59     1.111   1_565 S
C322   H355    1.111   .     S
C322   H356    1.110   .     S
C322   C419    1.527   .     S
C322   H63     1.111   1_565 S
C323   O383    1.412   .     S
C323   H358    1.116   .     S
C323   C324    1.530   .     S
C323   H360    1.113   .     S
C324   C325    1.524   .     S
C324   H361    1.111   .     S
C324   H362    1.112   .     S
C325   H364    1.111   .     S
C325   H365    1.110   .     S
C325   H363    1.110   .     S
C326   H366    1.110   .     S
C326   O384    1.419   .     S
C326   H367    1.117   .     S
C326   C327    1.529   .     S
C327   H369    1.111   .     S
C327   H368    1.112   .     S
C327   C427    1.527   .     S
C328   C331    1.407   .     A
C328   H338    1.081   .     S
C329   H371    1.111   .     S
C329   H372    1.110   .     S
C329   H373    1.111   .     S
C329   C523    1.527   1_455 S
C330   H339    1.081   .     S
C330   N379    1.364   .     A
C331   N380    1.363   .     A
C331   H340    1.082   .     S
C332   O383    1.380   .     S
C332   N379    1.372   .     A
C332   C334    1.412   .     A
C333   O384    1.385   .     S
C333   N380    1.369   .     A
C334   H341    1.081   .     S
Cu335  Cu336   2.679   .     S
Cu335  N380    2.013   .     S
Cu335  O381    1.953   .     S
Cu335  O388    1.950   .     S
Cu335  O387    1.953   .     S
Cu335  O391    1.954   .     S
Cu336  O390    1.954   .     S
Cu336  O385    1.953   .     S
Cu336  O389    1.950   .     S
Cu336  N379    2.013   .     S
Cu336  O386    1.953   .     S
H337   C399    1.087   .     S
H343   C22     1.111   1_565 S
H344   C22     1.112   1_565 S
H348   C498    1.087   1_455 S
C393   O479    1.295   .     A
C393   O484    1.292   .     A
C393   C406    1.458   .     S
C394   C431    1.415   .     A
C394   H440    1.080   .     S
C394   C396    1.407   .     A
C395   C415    1.412   .     A
C395   C432    1.407   .     A
C395   C984    1.519   1_554 S
C396   C426    1.412   .     A
C396   C983    1.519   .     S
C397   O486    1.285   .     A
C397   C399    1.432   .     S
C397   O488    1.289   .     A
C398   O489    1.289   .     A
C398   C400    1.432   .     S
C398   O487    1.285   .     A
C400   C497    1.336   .     S
C400   H544    1.087   .     S
C401   O490    1.385   .     S
C401   C412    1.414   .     A
C401   C403    1.394   .     A
C402   O480    1.383   .     S
C402   C413    1.410   .     A
C402   C405    1.394   .     A
C403   C406    1.400   .     A
C403   H457    1.084   .     S
C404   O483    1.293   .     A
C404   C407    1.460   .     S
C404   O485    1.295   .     A
C405   H468    1.084   .     S
C405   C407    1.401   .     A
C406   C408    1.399   .     A
C407   C409    1.400   .     A
C408   H472    1.083   .     S
C408   C410    1.388   .     A
C409   H473    1.083   .     S
C409   C411    1.390   .     A
C410   H474    1.083   .     S
C410   C412    1.402   .     A
C411   C413    1.403   .     A
C411   H475    1.083   .     S
C413   C118    1.468   1_565 S
C414   O490    1.416   .     S
C414   C416    1.534   .     S
C415   H476    1.081   .     S
C415   C428    1.408   .     A
C416   H444    1.111   .     S
C416   H443    1.111   .     S
C417   H448    1.111   .     S
C417   H445    1.111   .     S
C417   H447    1.110   .     S
C417   C514    1.526   .     S
C418   C419    1.527   .     S
C418   H450    1.117   .     S
C418   O480    1.413   .     S
C418   H449    1.111   .     S
C419   H452    1.112   .     S
C419   H157    1.111   1_565 S
C420   H453    1.111   .     S
C420   H454    1.110   .     S
C420   C517    1.527   .     S
C420   H161    1.111   1_565 S
C421   O481    1.412   .     S
C421   H456    1.116   .     S
C421   C422    1.530   .     S
C421   H458    1.113   .     S
C422   C423    1.524   .     S
C422   H459    1.111   .     S
C422   H460    1.112   .     S
C423   H462    1.111   .     S
C423   H463    1.110   .     S
C423   H461    1.110   .     S
C424   H464    1.110   .     S
C424   O482    1.419   .     S
C424   H465    1.117   .     S
C424   C425    1.529   .     S
C425   H467    1.111   .     S
C425   H466    1.112   .     S
C425   C525    1.527   .     S
C426   C429    1.407   .     A
C426   H436    1.081   .     S
C427   H469    1.111   .     S
C427   H470    1.110   .     S
C427   H471    1.111   .     S
C428   H437    1.081   .     S
C428   N477    1.364   .     A
C429   N478    1.363   .     A
C429   H438    1.082   .     S
C430   O481    1.380   .     S
C430   N477    1.372   .     A
C430   C432    1.412   .     A
C431   O482    1.385   .     S
C431   N478    1.369   .     A
C432   H439    1.081   .     S
Cu433  Cu434   2.679   .     S
Cu433  N478    2.013   .     S
Cu433  O479    1.953   .     S
Cu433  O486    1.950   .     S
Cu433  O485    1.953   .     S
Cu433  O489    1.954   .     S
Cu434  O488    1.954   .     S
Cu434  O483    1.953   .     S
Cu434  O487    1.950   .     S
Cu434  N477    2.013   .     S
Cu434  O484    1.953   .     S
H435   C497    1.087   .     S
H441   C120    1.111   1_565 S
H442   C120    1.112   1_565 S
C491   O577    1.295   .     A
C491   O582    1.292   .     A
C491   C504    1.458   .     S
C492   C529    1.415   .     A
C492   H538    1.080   .     S
C492   C494    1.407   .     A
C493   C513    1.412   .     A
C493   C530    1.407   .     A
C493   C1082   1.519   1_554 S
C494   C524    1.412   .     A
C494   C1081   1.519   .     S
C495   O584    1.285   .     A
C495   C497    1.432   .     S
C495   O586    1.289   .     A
C496   O587    1.289   .     A
C496   C498    1.432   .     S
C496   O585    1.285   .     A
C498   C301    1.336   1_655 S
C498   H348    1.087   1_655 S
C499   O588    1.385   .     S
C499   C510    1.414   .     A
C499   C501    1.394   .     A
C500   O578    1.383   .     S
C500   C511    1.410   .     A
C500   C503    1.394   .     A
C501   C504    1.400   .     A
C501   H555    1.084   .     S
C502   O581    1.293   .     A
C502   C505    1.460   .     S
C502   O583    1.295   .     A
C503   H566    1.084   .     S
C503   C505    1.401   .     A
C504   C506    1.399   .     A
C505   C507    1.400   .     A
C506   H570    1.083   .     S
C506   C508    1.388   .     A
C507   H571    1.083   .     S
C507   C509    1.390   .     A
C508   H572    1.083   .     S
C508   C510    1.402   .     A
C509   C511    1.403   .     A
C509   H573    1.083   .     S
C511   C216    1.468   1_565 S
C512   O588    1.416   .     S
C512   C514    1.534   .     S
C513   H574    1.081   .     S
C513   C526    1.408   .     A
C514   H542    1.111   .     S
C514   H541    1.111   .     S
C515   H546    1.111   .     S
C515   H543    1.111   .     S
C515   H545    1.110   .     S
C515   C318    1.526   1_655 S
C516   C517    1.527   .     S
C516   H548    1.117   .     S
C516   O578    1.413   .     S
C516   H547    1.111   .     S
C517   H550    1.112   .     S
C517   H255    1.111   1_565 S
C518   H551    1.111   .     S
C518   H552    1.110   .     S
C518   C321    1.527   1_655 S
C518   H259    1.111   1_565 S
C519   O579    1.412   .     S
C519   H554    1.116   .     S
C519   C520    1.530   .     S
C519   H556    1.113   .     S
C520   C521    1.524   .     S
C520   H557    1.111   .     S
C520   H558    1.112   .     S
C521   H560    1.111   .     S
C521   H561    1.110   .     S
C521   H559    1.110   .     S
C522   H562    1.110   .     S
C522   O580    1.419   .     S
C522   H563    1.117   .     S
C522   C523    1.529   .     S
C523   H565    1.111   .     S
C523   H564    1.112   .     S
C523   C329    1.527   1_655 S
C524   C527    1.407   .     A
C524   H534    1.081   .     S
C525   H567    1.111   .     S
C525   H568    1.110   .     S
C525   H569    1.111   .     S
C526   H535    1.081   .     S
C526   N575    1.364   .     A
C527   N576    1.363   .     A
C527   H536    1.082   .     S
C528   O579    1.380   .     S
C528   N575    1.372   .     A
C528   C530    1.412   .     A
C529   O580    1.385   .     S
C529   N576    1.369   .     A
C530   H537    1.081   .     S
Cu531  Cu532   2.679   .     S
Cu531  N576    2.013   .     S
Cu531  O577    1.953   .     S
Cu531  O584    1.950   .     S
Cu531  O583    1.953   .     S
Cu531  O587    1.954   .     S
Cu532  O586    1.954   .     S
Cu532  O581    1.953   .     S
Cu532  O585    1.950   .     S
Cu532  N575    2.013   .     S
Cu532  O582    1.953   .     S
H533   C301    1.087   1_655 S
H539   C218    1.111   1_565 S
H540   C218    1.112   1_565 S
C589   O675    1.295   .     A
C589   O680    1.292   .     A
C589   C602    1.458   .     S
C590   C627    1.415   .     A
C590   H636    1.080   .     S
C590   C592    1.407   .     A
C591   C611    1.412   .     A
C591   C628    1.407   .     A
C592   C622    1.412   .     A
C592   C3      1.519   1_556 S
C593   O682    1.285   .     A
C593   C595    1.432   .     S
C593   O684    1.289   .     A
C594   O685    1.289   .     A
C594   C596    1.432   .     S
C594   O683    1.285   .     A
C595   C792    1.336   1_455 S
C595   H827    1.087   1_455 S
C596   C693    1.336   .     S
C596   H740    1.087   .     S
C597   O686    1.385   .     S
C597   C608    1.414   .     A
C597   C599    1.394   .     A
C598   O676    1.383   .     S
C598   C609    1.410   .     A
C598   C601    1.394   .     A
C599   C602    1.400   .     A
C599   H653    1.084   .     S
C600   O679    1.293   .     A
C600   C603    1.460   .     S
C600   O681    1.295   .     A
C601   H664    1.084   .     S
C601   C603    1.401   .     A
C602   C604    1.399   .     A
C603   C605    1.400   .     A
C604   H668    1.083   .     S
C604   C606    1.388   .     A
C605   H669    1.083   .     S
C605   C607    1.390   .     A
C606   H670    1.083   .     S
C606   C608    1.402   .     A
C607   C609    1.403   .     A
C607   H671    1.083   .     S
C608   C903    1.468   1_545 S
C609   C902    1.468   .     S
C610   O686    1.416   .     S
C610   C612    1.534   .     S
C610   H931    1.111   1_545 S
C610   H932    1.112   1_545 S
C611   H672    1.081   .     S
C611   C624    1.408   .     A
C612   H640    1.111   .     S
C612   H639    1.111   .     S
C612   C809    1.526   1_455 S
C613   H644    1.111   .     S
C613   H641    1.111   .     S
C613   H643    1.110   .     S
C613   C710    1.526   .     S
C614   C615    1.527   .     S
C614   H646    1.117   .     S
C614   O676    1.413   .     S
C614   H645    1.111   .     S
C615   H648    1.112   .     S
C615   C812    1.527   1_455 S
C615   H941    1.111   .     S
C616   H649    1.111   .     S
C616   H650    1.110   .     S
C616   C713    1.527   .     S
C616   H945    1.111   .     S
C617   O677    1.412   .     S
C617   H652    1.116   .     S
C617   C618    1.530   .     S
C617   H654    1.113   .     S
C618   C619    1.524   .     S
C618   H655    1.111   .     S
C618   H656    1.112   .     S
C619   H658    1.111   .     S
C619   H659    1.110   .     S
C619   H657    1.110   .     S
C620   H660    1.110   .     S
C620   O678    1.419   .     S
C620   H661    1.117   .     S
C620   C621    1.529   .     S
C621   H663    1.111   .     S
C621   H662    1.112   .     S
C621   C721    1.527   .     S
C622   C625    1.407   .     A
C622   H632    1.081   .     S
C623   H665    1.111   .     S
C623   H666    1.110   .     S
C623   H667    1.111   .     S
C623   C817    1.527   1_455 S
C624   H633    1.081   .     S
C624   N673    1.364   .     A
C625   N674    1.363   .     A
C625   H634    1.082   .     S
C626   O677    1.380   .     S
C626   N673    1.372   .     A
C626   C628    1.412   .     A
C627   O678    1.385   .     S
C627   N674    1.369   .     A
C628   H635    1.081   .     S
Cu629  Cu630   2.679   .     S
Cu629  N674    2.013   .     S
Cu629  O675    1.953   .     S
Cu629  O682    1.950   .     S
Cu629  O681    1.953   .     S
Cu629  O685    1.954   .     S
Cu630  O684    1.954   .     S
Cu630  O679    1.953   .     S
Cu630  O683    1.950   .     S
Cu630  N673    2.013   .     S
Cu630  O680    1.953   .     S
H631   C693    1.087   .     S
H637   C904    1.111   .     S
H638   C904    1.112   .     S
H642   C792    1.087   1_455 S
H647   C909    1.111   1_545 S
H651   C910    1.111   1_545 S
C687   O773    1.295   .     A
C687   O778    1.292   .     A
C687   C700    1.458   .     S
C688   C725    1.415   .     A
C688   H734    1.080   .     S
C688   C690    1.407   .     A
C689   C709    1.412   .     A
C689   C726    1.407   .     A
C690   C720    1.412   .     A
C690   C101    1.519   1_556 S
C691   O780    1.285   .     A
C691   C693    1.432   .     S
C691   O782    1.289   .     A
C692   O783    1.289   .     A
C692   C694    1.432   .     S
C692   O781    1.285   .     A
C694   C791    1.336   .     S
C694   H838    1.087   .     S
C695   O784    1.385   .     S
C695   C706    1.414   .     A
C695   C697    1.394   .     A
C696   O774    1.383   .     S
C696   C707    1.410   .     A
C696   C699    1.394   .     A
C697   C700    1.400   .     A
C697   H751    1.084   .     S
C698   O777    1.293   .     A
C698   C701    1.460   .     S
C698   O779    1.295   .     A
C699   H762    1.084   .     S
C699   C701    1.401   .     A
C700   C702    1.399   .     A
C701   C703    1.400   .     A
C702   H766    1.083   .     S
C702   C704    1.388   .     A
C703   H767    1.083   .     S
C703   C705    1.390   .     A
C704   H768    1.083   .     S
C704   C706    1.402   .     A
C705   C707    1.403   .     A
C705   H769    1.083   .     S
C706   C1001   1.468   1_545 S
C707   C1000   1.468   .     S
C708   O784    1.416   .     S
C708   C710    1.534   .     S
C708   H1029   1.111   1_545 S
C708   H1030   1.112   1_545 S
C709   H770    1.081   .     S
C709   C722    1.408   .     A
C710   H738    1.111   .     S
C710   H737    1.111   .     S
C711   H742    1.111   .     S
C711   H739    1.111   .     S
C711   H741    1.110   .     S
C711   C808    1.526   .     S
C712   C713    1.527   .     S
C712   H744    1.117   .     S
C712   O774    1.413   .     S
C712   H743    1.111   .     S
C713   H746    1.112   .     S
C713   H1039   1.111   .     S
C714   H747    1.111   .     S
C714   H748    1.110   .     S
C714   C811    1.527   .     S
C714   H1043   1.111   .     S
C715   O775    1.412   .     S
C715   H750    1.116   .     S
C715   C716    1.530   .     S
C715   H752    1.113   .     S
C716   C717    1.524   .     S
C716   H753    1.111   .     S
C716   H754    1.112   .     S
C717   H756    1.111   .     S
C717   H757    1.110   .     S
C717   H755    1.110   .     S
C718   H758    1.110   .     S
C718   O776    1.419   .     S
C718   H759    1.117   .     S
C718   C719    1.529   .     S
C719   H761    1.111   .     S
C719   H760    1.112   .     S
C719   C819    1.527   .     S
C720   C723    1.407   .     A
C720   H730    1.081   .     S
C721   H763    1.111   .     S
C721   H764    1.110   .     S
C721   H765    1.111   .     S
C722   H731    1.081   .     S
C722   N771    1.364   .     A
C723   N772    1.363   .     A
C723   H732    1.082   .     S
C724   O775    1.380   .     S
C724   N771    1.372   .     A
C724   C726    1.412   .     A
C725   O776    1.385   .     S
C725   N772    1.369   .     A
C726   H733    1.081   .     S
Cu727  Cu728   2.679   .     S
Cu727  N772    2.013   .     S
Cu727  O773    1.953   .     S
Cu727  O780    1.950   .     S
Cu727  O779    1.953   .     S
Cu727  O783    1.954   .     S
Cu728  O782    1.954   .     S
Cu728  O777    1.953   .     S
Cu728  O781    1.950   .     S
Cu728  N771    2.013   .     S
Cu728  O778    1.953   .     S
H729   C791    1.087   .     S
H735   C1002   1.111   .     S
H736   C1002   1.112   .     S
H745   C1007   1.111   1_545 S
H749   C1008   1.111   1_545 S
C785   O871    1.295   .     A
C785   O876    1.292   .     A
C785   C798    1.458   .     S
C786   C823    1.415   .     A
C786   H832    1.080   .     S
C786   C788    1.407   .     A
C787   C807    1.412   .     A
C787   C824    1.407   .     A
C788   C818    1.412   .     A
C788   C199    1.519   1_556 S
C789   O878    1.285   .     A
C789   C791    1.432   .     S
C789   O880    1.289   .     A
C790   O881    1.289   .     A
C790   C792    1.432   .     S
C790   O879    1.285   .     A
C792   C595    1.336   1_655 S
C792   H642    1.087   1_655 S
C793   O882    1.385   .     S
C793   C804    1.414   .     A
C793   C795    1.394   .     A
C794   O872    1.383   .     S
C794   C805    1.410   .     A
C794   C797    1.394   .     A
C795   C798    1.400   .     A
C795   H849    1.084   .     S
C796   O875    1.293   .     A
C796   C799    1.460   .     S
C796   O877    1.295   .     A
C797   H860    1.084   .     S
C797   C799    1.401   .     A
C798   C800    1.399   .     A
C799   C801    1.400   .     A
C800   H864    1.083   .     S
C800   C802    1.388   .     A
C801   H865    1.083   .     S
C801   C803    1.390   .     A
C802   H866    1.083   .     S
C802   C804    1.402   .     A
C803   C805    1.403   .     A
C803   H867    1.083   .     S
C804   C1099   1.468   1_545 S
C805   C1098   1.468   .     S
C806   O882    1.416   .     S
C806   C808    1.534   .     S
C806   H1127   1.111   1_545 S
C806   H1128   1.112   1_545 S
C807   H868    1.081   .     S
C807   C820    1.408   .     A
C808   H836    1.111   .     S
C808   H835    1.111   .     S
C809   H840    1.111   .     S
C809   H837    1.111   .     S
C809   H839    1.110   .     S
C809   C612    1.526   1_655 S
C810   C811    1.527   .     S
C810   H842    1.117   .     S
C810   O872    1.413   .     S
C810   H841    1.111   .     S
C811   H844    1.112   .     S
C811   H1137   1.111   .     S
C812   H845    1.111   .     S
C812   H846    1.110   .     S
C812   C615    1.527   1_655 S
C812   H1141   1.111   .     S
C813   O873    1.412   .     S
C813   H848    1.116   .     S
C813   C814    1.530   .     S
C813   H850    1.113   .     S
C814   C815    1.524   .     S
C814   H851    1.111   .     S
C814   H852    1.112   .     S
C815   H854    1.111   .     S
C815   H855    1.110   .     S
C815   H853    1.110   .     S
C816   H856    1.110   .     S
C816   O874    1.419   .     S
C816   H857    1.117   .     S
C816   C817    1.529   .     S
C817   H859    1.111   .     S
C817   H858    1.112   .     S
C817   C623    1.527   1_655 S
C818   C821    1.407   .     A
C818   H828    1.081   .     S
C819   H861    1.111   .     S
C819   H862    1.110   .     S
C819   H863    1.111   .     S
C820   H829    1.081   .     S
C820   N869    1.364   .     A
C821   N870    1.363   .     A
C821   H830    1.082   .     S
C822   O873    1.380   .     S
C822   N869    1.372   .     A
C822   C824    1.412   .     A
C823   O874    1.385   .     S
C823   N870    1.369   .     A
C824   H831    1.081   .     S
Cu825  Cu826   2.679   .     S
Cu825  N870    2.013   .     S
Cu825  O871    1.953   .     S
Cu825  O878    1.950   .     S
Cu825  O877    1.953   .     S
Cu825  O881    1.954   .     S
Cu826  O880    1.954   .     S
Cu826  O875    1.953   .     S
Cu826  O879    1.950   .     S
Cu826  N869    2.013   .     S
Cu826  O876    1.953   .     S
H827   C595    1.087   1_655 S
H833   C1100   1.111   .     S
H834   C1100   1.112   .     S
H843   C1105   1.111   1_545 S
H847   C1106   1.111   1_545 S
C883   O969    1.295   .     A
C883   O974    1.292   .     A
C883   C896    1.458   .     S
C884   C921    1.415   .     A
C884   H930    1.080   .     S
C884   C886    1.407   .     A
C885   C905    1.412   .     A
C885   C922    1.407   .     A
C886   C916    1.412   .     A
C886   C297    1.519   1_556 S
C887   O976    1.285   .     A
C887   C889    1.432   .     S
C887   O978    1.289   .     A
C888   O979    1.289   .     A
C888   C890    1.432   .     S
C888   O977    1.285   .     A
C889   C1086   1.336   1_455 S
C889   H1121   1.087   1_455 S
C890   C987    1.336   .     S
C890   H1034   1.087   .     S
C891   O980    1.385   .     S
C891   C902    1.414   .     A
C891   C893    1.394   .     A
C892   O970    1.383   .     S
C892   C903    1.410   .     A
C892   C895    1.394   .     A
C893   C896    1.400   .     A
C893   H947    1.084   .     S
C894   O973    1.293   .     A
C894   C897    1.460   .     S
C894   O975    1.295   .     A
C895   H958    1.084   .     S
C895   C897    1.401   .     A
C896   C898    1.399   .     A
C897   C899    1.400   .     A
C898   H962    1.083   .     S
C898   C900    1.388   .     A
C899   H963    1.083   .     S
C899   C901    1.390   .     A
C900   H964    1.083   .     S
C900   C902    1.402   .     A
C901   C903    1.403   .     A
C901   H965    1.083   .     S
C903   C608    1.468   1_565 S
C904   O980    1.416   .     S
C904   C906    1.534   .     S
C905   H966    1.081   .     S
C905   C918    1.408   .     A
C906   H934    1.111   .     S
C906   H933    1.111   .     S
C906   C1103   1.526   1_455 S
C907   H938    1.111   .     S
C907   H935    1.111   .     S
C907   H937    1.110   .     S
C907   C1004   1.526   .     S
C908   C909    1.527   .     S
C908   H940    1.117   .     S
C908   O970    1.413   .     S
C908   H939    1.111   .     S
C909   H942    1.112   .     S
C909   C1106   1.527   1_455 S
C909   H647    1.111   1_565 S
C910   H943    1.111   .     S
C910   H944    1.110   .     S
C910   C1007   1.527   .     S
C910   H651    1.111   1_565 S
C911   O971    1.412   .     S
C911   H946    1.116   .     S
C911   C912    1.530   .     S
C911   H948    1.113   .     S
C912   C913    1.524   .     S
C912   H949    1.111   .     S
C912   H950    1.112   .     S
C913   H952    1.111   .     S
C913   H953    1.110   .     S
C913   H951    1.110   .     S
C914   H954    1.110   .     S
C914   O972    1.419   .     S
C914   H955    1.117   .     S
C914   C915    1.529   .     S
C915   H957    1.111   .     S
C915   H956    1.112   .     S
C915   C1015   1.527   .     S
C916   C919    1.407   .     A
C916   H926    1.081   .     S
C917   H959    1.111   .     S
C917   H960    1.110   .     S
C917   H961    1.111   .     S
C917   C1111   1.527   1_455 S
C918   H927    1.081   .     S
C918   N967    1.364   .     A
C919   N968    1.363   .     A
C919   H928    1.082   .     S
C920   O971    1.380   .     S
C920   N967    1.372   .     A
C920   C922    1.412   .     A
C921   O972    1.385   .     S
C921   N968    1.369   .     A
C922   H929    1.081   .     S
Cu923  Cu924   2.679   .     S
Cu923  N968    2.013   .     S
Cu923  O969    1.953   .     S
Cu923  O976    1.950   .     S
Cu923  O975    1.953   .     S
Cu923  O979    1.954   .     S
Cu924  O978    1.954   .     S
Cu924  O973    1.953   .     S
Cu924  O977    1.950   .     S
Cu924  N967    2.013   .     S
Cu924  O974    1.953   .     S
H925   C987    1.087   .     S
H931   C610    1.111   1_565 S
H932   C610    1.112   1_565 S
H936   C1086   1.087   1_455 S
C981   O1067   1.295   .     A
C981   O1072   1.292   .     A
C981   C994    1.458   .     S
C982   C1019   1.415   .     A
C982   H1028   1.080   .     S
C982   C984    1.407   .     A
C983   C1003   1.412   .     A
C983   C1020   1.407   .     A
C984   C1014   1.412   .     A
C984   C395    1.519   1_556 S
C985   O1074   1.285   .     A
C985   C987    1.432   .     S
C985   O1076   1.289   .     A
C986   O1077   1.289   .     A
C986   C988    1.432   .     S
C986   O1075   1.285   .     A
C988   C1085   1.336   .     S
C988   H1132   1.087   .     S
C989   O1078   1.385   .     S
C989   C1000   1.414   .     A
C989   C991    1.394   .     A
C990   O1068   1.383   .     S
C990   C1001   1.410   .     A
C990   C993    1.394   .     A
C991   C994    1.400   .     A
C991   H1045   1.084   .     S
C992   O1071   1.293   .     A
C992   C995    1.460   .     S
C992   O1073   1.295   .     A
C993   H1056   1.084   .     S
C993   C995    1.401   .     A
C994   C996    1.399   .     A
C995   C997    1.400   .     A
C996   H1060   1.083   .     S
C996   C998    1.388   .     A
C997   H1061   1.083   .     S
C997   C999    1.390   .     A
C998   H1062   1.083   .     S
C998   C1000   1.402   .     A
C999   C1001   1.403   .     A
C999   H1063   1.083   .     S
C1001  C706    1.468   1_565 S
C1002  O1078   1.416   .     S
C1002  C1004   1.534   .     S
C1003  H1064   1.081   .     S
C1003  C1016   1.408   .     A
C1004  H1032   1.111   .     S
C1004  H1031   1.111   .     S
C1005  H1036   1.111   .     S
C1005  H1033   1.111   .     S
C1005  H1035   1.110   .     S
C1005  C1102   1.526   .     S
C1006  C1007   1.527   .     S
C1006  H1038   1.117   .     S
C1006  O1068   1.413   .     S
C1006  H1037   1.111   .     S
C1007  H1040   1.112   .     S
C1007  H745    1.111   1_565 S
C1008  H1041   1.111   .     S
C1008  H1042   1.110   .     S
C1008  C1105   1.527   .     S
C1008  H749    1.111   1_565 S
C1009  O1069   1.412   .     S
C1009  H1044   1.116   .     S
C1009  C1010   1.530   .     S
C1009  H1046   1.113   .     S
C1010  C1011   1.524   .     S
C1010  H1047   1.111   .     S
C1010  H1048   1.112   .     S
C1011  H1050   1.111   .     S
C1011  H1051   1.110   .     S
C1011  H1049   1.110   .     S
C1012  H1052   1.110   .     S
C1012  O1070   1.419   .     S
C1012  H1053   1.117   .     S
C1012  C1013   1.529   .     S
C1013  H1055   1.111   .     S
C1013  H1054   1.112   .     S
C1013  C1113   1.527   .     S
C1014  C1017   1.407   .     A
C1014  H1024   1.081   .     S
C1015  H1057   1.111   .     S
C1015  H1058   1.110   .     S
C1015  H1059   1.111   .     S
C1016  H1025   1.081   .     S
C1016  N1065   1.364   .     A
C1017  N1066   1.363   .     A
C1017  H1026   1.082   .     S
C1018  O1069   1.380   .     S
C1018  N1065   1.372   .     A
C1018  C1020   1.412   .     A
C1019  O1070   1.385   .     S
C1019  N1066   1.369   .     A
C1020  H1027   1.081   .     S
Cu1021 Cu1022  2.679   .     S
Cu1021 N1066   2.013   .     S
Cu1021 O1067   1.953   .     S
Cu1021 O1074   1.950   .     S
Cu1021 O1073   1.953   .     S
Cu1021 O1077   1.954   .     S
Cu1022 O1076   1.954   .     S
Cu1022 O1071   1.953   .     S
Cu1022 O1075   1.950   .     S
Cu1022 N1065   2.013   .     S
Cu1022 O1072   1.953   .     S
H1023  C1085   1.087   .     S
H1029  C708    1.111   1_565 S
H1030  C708    1.112   1_565 S
C1079  O1165   1.295   .     A
C1079  O1170   1.292   .     A
C1079  C1092   1.458   .     S
C1080  C1117   1.415   .     A
C1080  H1126   1.080   .     S
C1080  C1082   1.407   .     A
C1081  C1101   1.412   .     A
C1081  C1118   1.407   .     A
C1082  C1112   1.412   .     A
C1082  C493    1.519   1_556 S
C1083  O1172   1.285   .     A
C1083  C1085   1.432   .     S
C1083  O1174   1.289   .     A
C1084  O1175   1.289   .     A
C1084  C1086   1.432   .     S
C1084  O1173   1.285   .     A
C1086  C889    1.336   1_655 S
C1086  H936    1.087   1_655 S
C1087  O1176   1.385   .     S
C1087  C1098   1.414   .     A
C1087  C1089   1.394   .     A
C1088  O1166   1.383   .     S
C1088  C1099   1.410   .     A
C1088  C1091   1.394   .     A
C1089  C1092   1.400   .     A
C1089  H1143   1.084   .     S
C1090  O1169   1.293   .     A
C1090  C1093   1.460   .     S
C1090  O1171   1.295   .     A
C1091  H1154   1.084   .     S
C1091  C1093   1.401   .     A
C1092  C1094   1.399   .     A
C1093  C1095   1.400   .     A
C1094  H1158   1.083   .     S
C1094  C1096   1.388   .     A
C1095  H1159   1.083   .     S
C1095  C1097   1.390   .     A
C1096  H1160   1.083   .     S
C1096  C1098   1.402   .     A
C1097  C1099   1.403   .     A
C1097  H1161   1.083   .     S
C1099  C804    1.468   1_565 S
C1100  O1176   1.416   .     S
C1100  C1102   1.534   .     S
C1101  H1162   1.081   .     S
C1101  C1114   1.408   .     A
C1102  H1130   1.111   .     S
C1102  H1129   1.111   .     S
C1103  H1134   1.111   .     S
C1103  H1131   1.111   .     S
C1103  H1133   1.110   .     S
C1103  C906    1.526   1_655 S
C1104  C1105   1.527   .     S
C1104  H1136   1.117   .     S
C1104  O1166   1.413   .     S
C1104  H1135   1.111   .     S
C1105  H1138   1.112   .     S
C1105  H843    1.111   1_565 S
C1106  H1139   1.111   .     S
C1106  H1140   1.110   .     S
C1106  C909    1.527   1_655 S
C1106  H847    1.111   1_565 S
C1107  O1167   1.412   .     S
C1107  H1142   1.116   .     S
C1107  C1108   1.530   .     S
C1107  H1144   1.113   .     S
C1108  C1109   1.524   .     S
C1108  H1145   1.111   .     S
C1108  H1146   1.112   .     S
C1109  H1148   1.111   .     S
C1109  H1149   1.110   .     S
C1109  H1147   1.110   .     S
C1110  H1150   1.110   .     S
C1110  O1168   1.419   .     S
C1110  H1151   1.117   .     S
C1110  C1111   1.529   .     S
C1111  H1153   1.111   .     S
C1111  H1152   1.112   .     S
C1111  C917    1.527   1_655 S
C1112  C1115   1.407   .     A
C1112  H1122   1.081   .     S
C1113  H1155   1.111   .     S
C1113  H1156   1.110   .     S
C1113  H1157   1.111   .     S
C1114  H1123   1.081   .     S
C1114  N1163   1.364   .     A
C1115  N1164   1.363   .     A
C1115  H1124   1.082   .     S
C1116  O1167   1.380   .     S
C1116  N1163   1.372   .     A
C1116  C1118   1.412   .     A
C1117  O1168   1.385   .     S
C1117  N1164   1.369   .     A
C1118  H1125   1.081   .     S
Cu1119 Cu1120  2.679   .     S
Cu1119 N1164   2.013   .     S
Cu1119 O1165   1.953   .     S
Cu1119 O1172   1.950   .     S
Cu1119 O1171   1.953   .     S
Cu1119 O1175   1.954   .     S
Cu1120 O1174   1.954   .     S
Cu1120 O1169   1.953   .     S
Cu1120 O1173   1.950   .     S
Cu1120 N1163   2.013   .     S
Cu1120 O1170   1.953   .     S
H1121  C889    1.087   1_655 S
H1127  C806    1.111   1_565 S
H1128  C806    1.112   1_565 S
