data_str_m2_o1_o17_pcu_sym.224
_audit_creation_date              2020-01-03
_audit_creation_method            'Materials Studio'
_symmetry_space_group_name_H-M    'P1'
_symmetry_Int_Tables_number       1
_symmetry_cell_setting            triclinic
loop_
_symmetry_equiv_pos_as_xyz
  x,y,z
_cell_length_a                    32.7396
_cell_length_b                    29.0164
_cell_length_c                    30.3889
_cell_angle_alpha                 89.9996
_cell_angle_beta                  92.3239
_cell_angle_gamma                 90.0000
loop_
_atom_site_label
_atom_site_type_symbol
_atom_site_fract_x
_atom_site_fract_y
_atom_site_fract_z
_atom_site_U_iso_or_equiv
_atom_site_adp_type
_atom_site_occupancy
C1     C     0.08749   0.16680   0.24989   0.00000  Uiso   1.00
C2     C     0.24584   0.16680   0.25011   0.00000  Uiso   1.00
C3     C     0.09213   0.16565   0.01922   0.00000  Uiso   1.00
C4     C     0.24120   0.16565   0.48078   0.00000  Uiso   1.00
C5     C     0.02113   0.12575   0.25043   0.00000  Uiso   1.00
C6     C     0.31209   0.20919   0.25012   0.00000  Uiso   1.00
C7     C     0.31220   0.12575   0.24957   0.00000  Uiso   1.00
C8     C     0.02124   0.20919   0.24988   0.00000  Uiso   1.00
C9     C     0.29061   0.16730   0.24999   0.00000  Uiso   1.00
C10    C     0.04273   0.16730   0.25001   0.00000  Uiso   1.00
C11    C     0.14112   0.02421   0.22147   0.00000  Uiso   1.00
C12    C     0.18846   0.30864   0.28152   0.00000  Uiso   1.00
C13    C     0.19221   0.02421   0.27853   0.00000  Uiso   1.00
C14    C     0.14487   0.30864   0.21848   0.00000  Uiso   1.00
C15    C     0.16608   0.16660   0.16448   0.00000  Uiso   1.00
C16    C     0.16725   0.16660   0.33552   0.00000  Uiso   1.00
C17    C     0.20373   0.17620   0.40915   0.00000  Uiso   1.00
C18    C     0.12960   0.17620   0.09085   0.00000  Uiso   1.00
C19    C     0.16753   0.16624   0.38407   0.00000  Uiso   1.00
C20    C     0.16580   0.16624   0.11593   0.00000  Uiso   1.00
C21    C     0.13169   0.15484   0.40587   0.00000  Uiso   1.00
C22    C     0.20165   0.15484   0.09413   0.00000  Uiso   1.00
C23    C     0.13005   0.16314   0.45162   0.00000  Uiso   1.00
C24    C     0.20328   0.16314   0.04838   0.00000  Uiso   1.00
C25    C     0.16691   0.16734   0.47677   0.00000  Uiso   1.00
C26    C     0.16642   0.16734   0.02323   0.00000  Uiso   1.00
C27    C     0.20432   0.16979   0.45544   0.00000  Uiso   1.00
C28    C     0.12901   0.16979   0.04456   0.00000  Uiso   1.00
C29    C     0.09263   0.16463   0.47291   0.00000  Uiso   1.00
C30    C     0.24071   0.16463   0.02709   0.00000  Uiso   1.00
Cu31   Cu    0.16667   0.21355   0.25000   0.00000  Uiso   1.00
Cu32   Cu    0.16667   0.11978   0.25000   0.00000  Uiso   1.00
H33    H     0.03687   0.09318   0.25215   0.00000  Uiso   1.00
H34    H     0.29616   0.24191   0.25030   0.00000  Uiso   1.00
H35    H     0.29647   0.09318   0.24786   0.00000  Uiso   1.00
H36    H     0.03717   0.24191   0.24969   0.00000  Uiso   1.00
N37    N     0.16667   0.28402   0.25000   0.00000  Uiso   1.00
N38    N     0.16667   0.04931   0.25000   0.00000  Uiso   1.00
O39    O     0.10655   0.20625   0.24999   0.00000  Uiso   1.00
O40    O     0.22679   0.12709   0.25000   0.00000  Uiso   1.00
O41    O     0.22679   0.20625   0.25000   0.00000  Uiso   1.00
O42    O     0.10655   0.12709   0.24999   0.00000  Uiso   1.00
O43    O     0.16666   0.20627   0.18513   0.00000  Uiso   1.00
O44    O     0.16668   0.12707   0.31487   0.00000  Uiso   1.00
O45    O     0.16668   0.20627   0.31487   0.00000  Uiso   1.00
O46    O     0.16666   0.12707   0.18513   0.00000  Uiso   1.00
N47    N     0.23722   0.19828   0.38907   0.00000  Uiso   1.00
H48    H     0.25272   0.22276   0.40785   0.00000  Uiso   1.00
C49    C     0.26277   0.17114   0.36133   0.00000  Uiso   1.00
H50    H     0.29343   0.16603   0.37738   0.00000  Uiso   1.00
H51    H     0.26739   0.19068   0.33089   0.00000  Uiso   1.00
H52    H     0.24917   0.13703   0.35354   0.00000  Uiso   1.00
N53    N     0.09611   0.19828   0.11093   0.00000  Uiso   1.00
H54    H     0.08061   0.22276   0.09215   0.00000  Uiso   1.00
C55    C     0.07056   0.17114   0.13867   0.00000  Uiso   1.00
H56    H     0.03991   0.16603   0.12262   0.00000  Uiso   1.00
H57    H     0.06594   0.19068   0.16910   0.00000  Uiso   1.00
H58    H     0.08417   0.13704   0.14646   0.00000  Uiso   1.00
N59    N     0.10153   0.12623   0.38450   0.00000  Uiso   1.00
H60    H     0.08902   0.10088   0.40359   0.00000  Uiso   1.00
C61    C     0.07328   0.14679   0.35263   0.00000  Uiso   1.00
H62    H     0.04237   0.14954   0.36600   0.00000  Uiso   1.00
H63    H     0.07067   0.12318   0.32426   0.00000  Uiso   1.00
H64    H     0.08345   0.18152   0.34222   0.00000  Uiso   1.00
N65    N     0.23180   0.12623   0.11550   0.00000  Uiso   1.00
H66    H     0.24432   0.10088   0.09641   0.00000  Uiso   1.00
C67    C     0.26005   0.14680   0.14737   0.00000  Uiso   1.00
H68    H     0.29097   0.14955   0.13400   0.00000  Uiso   1.00
H69    H     0.26266   0.12318   0.17574   0.00000  Uiso   1.00
H70    H     0.24989   0.18152   0.15778   0.00000  Uiso   1.00
N71    N     0.05540   0.16795   0.44753   0.00000  Uiso   1.00
H72    H     0.03270   0.14635   0.45738   0.00000  Uiso   1.00
C73    C     0.04211   0.21470   0.43859   0.00000  Uiso   1.00
H74    H     0.01431   0.21426   0.41647   0.00000  Uiso   1.00
H75    H     0.06633   0.23410   0.42189   0.00000  Uiso   1.00
H76    H     0.03485   0.23252   0.46967   0.00000  Uiso   1.00
N77    N     0.27794   0.16794   0.05247   0.00000  Uiso   1.00
H78    H     0.30063   0.14635   0.04262   0.00000  Uiso   1.00
C79    C     0.29122   0.21470   0.06141   0.00000  Uiso   1.00
H80    H     0.31903   0.21426   0.08353   0.00000  Uiso   1.00
H81    H     0.26701   0.23410   0.07811   0.00000  Uiso   1.00
H82    H     0.29849   0.23252   0.03032   0.00000  Uiso   1.00
N83    N     0.05517   0.15615   0.04037   0.00000  Uiso   1.00
H84    H     0.03000   0.17320   0.02729   0.00000  Uiso   1.00
C85    C     0.04839   0.10751   0.04808   0.00000  Uiso   1.00
H86    H     0.02183   0.10285   0.06914   0.00000  Uiso   1.00
H87    H     0.07546   0.09188   0.06559   0.00000  Uiso   1.00
H88    H     0.04229   0.08920   0.01638   0.00000  Uiso   1.00
N89    N     0.27816   0.15615   0.45963   0.00000  Uiso   1.00
H90    H     0.30334   0.17320   0.47271   0.00000  Uiso   1.00
C91    C     0.28494   0.10751   0.45192   0.00000  Uiso   1.00
H92    H     0.31151   0.10285   0.43086   0.00000  Uiso   1.00
H93    H     0.25787   0.09188   0.43441   0.00000  Uiso   1.00
H94    H     0.29105   0.08920   0.48362   0.00000  Uiso   1.00
N95    N     0.11081   0.04612   0.19346   0.00000  Uiso   1.00
H96    H     0.11282   0.08069   0.18922   0.00000  Uiso   1.00
C97    C     0.06893   0.03039   0.19661   0.00000  Uiso   1.00
H98    H     0.06297   0.33325   0.17540   0.00000  Uiso   1.00
H99    H     0.04748   0.05760   0.18432   0.00000  Uiso   1.00
H100   H     0.06220   0.02172   0.23120   0.00000  Uiso   1.00
N101   N     0.20772   0.28583   0.31810   0.00000  Uiso   1.00
H102   H     0.22439   0.25637   0.31370   0.00000  Uiso   1.00
C103   C     0.19456   0.29719   0.36183   0.00000  Uiso   1.00
H104   H     0.22166   0.30573   0.38341   0.00000  Uiso   1.00
H105   H     0.17855   0.26744   0.37609   0.00000  Uiso   1.00
H106   H     0.17328   0.32706   0.36133   0.00000  Uiso   1.00
N107   N     0.22252   0.04611   0.30654   0.00000  Uiso   1.00
H108   H     0.22051   0.08069   0.31077   0.00000  Uiso   1.00
C109   C     0.26440   0.03039   0.30339   0.00000  Uiso   1.00
H110   H     0.27036   0.33324   0.32460   0.00000  Uiso   1.00
H111   H     0.28585   0.05760   0.31569   0.00000  Uiso   1.00
H112   H     0.27113   0.02172   0.26880   0.00000  Uiso   1.00
N113   N     0.12560   0.28583   0.18190   0.00000  Uiso   1.00
H114   H     0.10895   0.25637   0.18631   0.00000  Uiso   1.00
C115   C     0.13877   0.29719   0.13818   0.00000  Uiso   1.00
H116   H     0.11167   0.30572   0.11659   0.00000  Uiso   1.00
H117   H     0.15479   0.26744   0.12392   0.00000  Uiso   1.00
H118   H     0.16004   0.32707   0.13866   0.00000  Uiso   1.00
C119   C     0.42082   0.16680   0.24989   0.00000  Uiso   1.00
C120   C     0.57918   0.16680   0.25011   0.00000  Uiso   1.00
C121   C     0.42546   0.16565   0.01922   0.00000  Uiso   1.00
C122   C     0.57454   0.16565   0.48078   0.00000  Uiso   1.00
C123   C     0.35446   0.12575   0.25043   0.00000  Uiso   1.00
C124   C     0.64542   0.20919   0.25012   0.00000  Uiso   1.00
C125   C     0.64554   0.12575   0.24957   0.00000  Uiso   1.00
C126   C     0.35458   0.20919   0.24988   0.00000  Uiso   1.00
C127   C     0.62394   0.16730   0.24999   0.00000  Uiso   1.00
C128   C     0.37606   0.16730   0.25001   0.00000  Uiso   1.00
C129   C     0.47446   0.02421   0.22147   0.00000  Uiso   1.00
C130   C     0.52179   0.30864   0.28152   0.00000  Uiso   1.00
C131   C     0.52554   0.02421   0.27853   0.00000  Uiso   1.00
C132   C     0.47821   0.30864   0.21848   0.00000  Uiso   1.00
C133   C     0.49941   0.16660   0.16448   0.00000  Uiso   1.00
C134   C     0.50059   0.16660   0.33552   0.00000  Uiso   1.00
C135   C     0.53707   0.17620   0.40915   0.00000  Uiso   1.00
C136   C     0.46294   0.17620   0.09085   0.00000  Uiso   1.00
C137   C     0.50087   0.16624   0.38407   0.00000  Uiso   1.00
C138   C     0.49913   0.16624   0.11593   0.00000  Uiso   1.00
C139   C     0.46502   0.15484   0.40587   0.00000  Uiso   1.00
C140   C     0.53498   0.15484   0.09413   0.00000  Uiso   1.00
C141   C     0.46339   0.16314   0.45162   0.00000  Uiso   1.00
C142   C     0.53661   0.16314   0.04838   0.00000  Uiso   1.00
C143   C     0.50024   0.16734   0.47677   0.00000  Uiso   1.00
C144   C     0.49976   0.16734   0.02323   0.00000  Uiso   1.00
C145   C     0.53765   0.16979   0.45544   0.00000  Uiso   1.00
C146   C     0.46235   0.16979   0.04456   0.00000  Uiso   1.00
C147   C     0.42596   0.16463   0.47291   0.00000  Uiso   1.00
C148   C     0.57404   0.16463   0.02709   0.00000  Uiso   1.00
Cu149  Cu    0.50000   0.21355   0.25000   0.00000  Uiso   1.00
Cu150  Cu    0.50000   0.11978   0.25000   0.00000  Uiso   1.00
H151   H     0.37020   0.09318   0.25215   0.00000  Uiso   1.00
H152   H     0.62950   0.24191   0.25030   0.00000  Uiso   1.00
H153   H     0.62980   0.09318   0.24786   0.00000  Uiso   1.00
H154   H     0.37050   0.24191   0.24969   0.00000  Uiso   1.00
N155   N     0.50000   0.28402   0.25000   0.00000  Uiso   1.00
N156   N     0.50000   0.04931   0.25000   0.00000  Uiso   1.00
O157   O     0.43988   0.20625   0.24999   0.00000  Uiso   1.00
O158   O     0.56012   0.12709   0.25000   0.00000  Uiso   1.00
O159   O     0.56012   0.20625   0.25000   0.00000  Uiso   1.00
O160   O     0.43988   0.12709   0.24999   0.00000  Uiso   1.00
O161   O     0.49999   0.20627   0.18513   0.00000  Uiso   1.00
O162   O     0.50001   0.12707   0.31487   0.00000  Uiso   1.00
O163   O     0.50001   0.20627   0.31487   0.00000  Uiso   1.00
O164   O     0.49999   0.12707   0.18513   0.00000  Uiso   1.00
N165   N     0.57056   0.19828   0.38907   0.00000  Uiso   1.00
H166   H     0.58605   0.22276   0.40785   0.00000  Uiso   1.00
C167   C     0.59610   0.17114   0.36133   0.00000  Uiso   1.00
H168   H     0.62676   0.16603   0.37738   0.00000  Uiso   1.00
H169   H     0.60072   0.19068   0.33089   0.00000  Uiso   1.00
H170   H     0.58250   0.13703   0.35354   0.00000  Uiso   1.00
N171   N     0.42944   0.19828   0.11093   0.00000  Uiso   1.00
H172   H     0.41395   0.22276   0.09215   0.00000  Uiso   1.00
C173   C     0.40390   0.17114   0.13867   0.00000  Uiso   1.00
H174   H     0.37324   0.16603   0.12262   0.00000  Uiso   1.00
H175   H     0.39928   0.19068   0.16910   0.00000  Uiso   1.00
H176   H     0.41750   0.13704   0.14646   0.00000  Uiso   1.00
N177   N     0.43487   0.12623   0.38450   0.00000  Uiso   1.00
H178   H     0.42235   0.10088   0.40359   0.00000  Uiso   1.00
C179   C     0.40662   0.14679   0.35263   0.00000  Uiso   1.00
H180   H     0.37570   0.14954   0.36600   0.00000  Uiso   1.00
H181   H     0.40401   0.12318   0.32426   0.00000  Uiso   1.00
H182   H     0.41678   0.18152   0.34222   0.00000  Uiso   1.00
N183   N     0.56513   0.12623   0.11550   0.00000  Uiso   1.00
H184   H     0.57765   0.10088   0.09641   0.00000  Uiso   1.00
C185   C     0.59338   0.14680   0.14737   0.00000  Uiso   1.00
H186   H     0.62430   0.14955   0.13400   0.00000  Uiso   1.00
H187   H     0.59600   0.12318   0.17574   0.00000  Uiso   1.00
H188   H     0.58322   0.18152   0.15778   0.00000  Uiso   1.00
N189   N     0.38873   0.16795   0.44753   0.00000  Uiso   1.00
H190   H     0.36603   0.14635   0.45738   0.00000  Uiso   1.00
C191   C     0.37545   0.21470   0.43859   0.00000  Uiso   1.00
H192   H     0.34764   0.21426   0.41647   0.00000  Uiso   1.00
H193   H     0.39966   0.23410   0.42189   0.00000  Uiso   1.00
H194   H     0.36818   0.23252   0.46967   0.00000  Uiso   1.00
N195   N     0.61127   0.16794   0.05247   0.00000  Uiso   1.00
H196   H     0.63397   0.14635   0.04262   0.00000  Uiso   1.00
C197   C     0.62455   0.21470   0.06141   0.00000  Uiso   1.00
H198   H     0.65236   0.21426   0.08353   0.00000  Uiso   1.00
H199   H     0.60034   0.23410   0.07811   0.00000  Uiso   1.00
H200   H     0.63182   0.23252   0.03032   0.00000  Uiso   1.00
N201   N     0.38851   0.15615   0.04037   0.00000  Uiso   1.00
H202   H     0.36333   0.17320   0.02729   0.00000  Uiso   1.00
C203   C     0.38173   0.10751   0.04808   0.00000  Uiso   1.00
H204   H     0.35516   0.10285   0.06914   0.00000  Uiso   1.00
H205   H     0.40879   0.09188   0.06559   0.00000  Uiso   1.00
H206   H     0.37562   0.08920   0.01638   0.00000  Uiso   1.00
N207   N     0.61149   0.15615   0.45963   0.00000  Uiso   1.00
H208   H     0.63667   0.17320   0.47271   0.00000  Uiso   1.00
C209   C     0.61828   0.10751   0.45192   0.00000  Uiso   1.00
H210   H     0.64484   0.10285   0.43086   0.00000  Uiso   1.00
H211   H     0.59121   0.09188   0.43441   0.00000  Uiso   1.00
H212   H     0.62438   0.08920   0.48362   0.00000  Uiso   1.00
N213   N     0.44415   0.04612   0.19346   0.00000  Uiso   1.00
H214   H     0.44615   0.08069   0.18922   0.00000  Uiso   1.00
C215   C     0.40226   0.03039   0.19661   0.00000  Uiso   1.00
H216   H     0.39631   0.33325   0.17540   0.00000  Uiso   1.00
H217   H     0.38082   0.05760   0.18432   0.00000  Uiso   1.00
H218   H     0.39553   0.02172   0.23120   0.00000  Uiso   1.00
N219   N     0.54106   0.28583   0.31810   0.00000  Uiso   1.00
H220   H     0.55772   0.25637   0.31370   0.00000  Uiso   1.00
C221   C     0.52790   0.29719   0.36183   0.00000  Uiso   1.00
H222   H     0.55499   0.30573   0.38341   0.00000  Uiso   1.00
H223   H     0.51188   0.26744   0.37609   0.00000  Uiso   1.00
H224   H     0.50661   0.32706   0.36133   0.00000  Uiso   1.00
N225   N     0.55585   0.04611   0.30654   0.00000  Uiso   1.00
H226   H     0.55385   0.08069   0.31077   0.00000  Uiso   1.00
C227   C     0.59774   0.03039   0.30339   0.00000  Uiso   1.00
H228   H     0.60369   0.33324   0.32460   0.00000  Uiso   1.00
H229   H     0.61918   0.05760   0.31569   0.00000  Uiso   1.00
H230   H     0.60447   0.02172   0.26880   0.00000  Uiso   1.00
N231   N     0.45894   0.28583   0.18190   0.00000  Uiso   1.00
H232   H     0.44229   0.25637   0.18631   0.00000  Uiso   1.00
C233   C     0.47210   0.29719   0.13818   0.00000  Uiso   1.00
H234   H     0.44500   0.30572   0.11659   0.00000  Uiso   1.00
H235   H     0.48812   0.26744   0.12392   0.00000  Uiso   1.00
H236   H     0.49337   0.32707   0.13866   0.00000  Uiso   1.00
C237   C     0.75416   0.16680   0.24989   0.00000  Uiso   1.00
C238   C     0.91251   0.16680   0.25011   0.00000  Uiso   1.00
C239   C     0.75880   0.16565   0.01922   0.00000  Uiso   1.00
C240   C     0.90787   0.16565   0.48078   0.00000  Uiso   1.00
C241   C     0.68780   0.12575   0.25043   0.00000  Uiso   1.00
C242   C     0.97876   0.20919   0.25012   0.00000  Uiso   1.00
C243   C     0.97887   0.12575   0.24957   0.00000  Uiso   1.00
C244   C     0.68791   0.20919   0.24988   0.00000  Uiso   1.00
C245   C     0.95727   0.16730   0.24999   0.00000  Uiso   1.00
C246   C     0.70939   0.16730   0.25001   0.00000  Uiso   1.00
C247   C     0.80779   0.02421   0.22147   0.00000  Uiso   1.00
C248   C     0.85513   0.30864   0.28152   0.00000  Uiso   1.00
C249   C     0.85888   0.02421   0.27853   0.00000  Uiso   1.00
C250   C     0.81154   0.30864   0.21848   0.00000  Uiso   1.00
C251   C     0.83275   0.16660   0.16448   0.00000  Uiso   1.00
C252   C     0.83392   0.16660   0.33552   0.00000  Uiso   1.00
C253   C     0.87040   0.17620   0.40915   0.00000  Uiso   1.00
C254   C     0.79627   0.17620   0.09085   0.00000  Uiso   1.00
C255   C     0.83420   0.16624   0.38407   0.00000  Uiso   1.00
C256   C     0.83247   0.16624   0.11593   0.00000  Uiso   1.00
C257   C     0.79835   0.15484   0.40587   0.00000  Uiso   1.00
C258   C     0.86831   0.15484   0.09413   0.00000  Uiso   1.00
C259   C     0.79672   0.16314   0.45162   0.00000  Uiso   1.00
C260   C     0.86995   0.16314   0.04838   0.00000  Uiso   1.00
C261   C     0.83358   0.16734   0.47677   0.00000  Uiso   1.00
C262   C     0.83309   0.16734   0.02323   0.00000  Uiso   1.00
C263   C     0.87099   0.16979   0.45544   0.00000  Uiso   1.00
C264   C     0.79568   0.16979   0.04456   0.00000  Uiso   1.00
C265   C     0.75929   0.16463   0.47291   0.00000  Uiso   1.00
C266   C     0.90737   0.16463   0.02709   0.00000  Uiso   1.00
Cu267  Cu    0.83333   0.21355   0.25000   0.00000  Uiso   1.00
Cu268  Cu    0.83333   0.11978   0.25000   0.00000  Uiso   1.00
H269   H     0.70353   0.09318   0.25215   0.00000  Uiso   1.00
H270   H     0.96283   0.24191   0.25030   0.00000  Uiso   1.00
H271   H     0.96313   0.09318   0.24786   0.00000  Uiso   1.00
H272   H     0.70383   0.24191   0.24969   0.00000  Uiso   1.00
N273   N     0.83333   0.28402   0.25000   0.00000  Uiso   1.00
N274   N     0.83333   0.04931   0.25000   0.00000  Uiso   1.00
O275   O     0.77321   0.20625   0.24999   0.00000  Uiso   1.00
O276   O     0.89345   0.12709   0.25000   0.00000  Uiso   1.00
O277   O     0.89345   0.20625   0.25000   0.00000  Uiso   1.00
O278   O     0.77321   0.12709   0.24999   0.00000  Uiso   1.00
O279   O     0.83332   0.20627   0.18513   0.00000  Uiso   1.00
O280   O     0.83334   0.12707   0.31487   0.00000  Uiso   1.00
O281   O     0.83334   0.20627   0.31487   0.00000  Uiso   1.00
O282   O     0.83332   0.12707   0.18513   0.00000  Uiso   1.00
N283   N     0.90389   0.19828   0.38907   0.00000  Uiso   1.00
H284   H     0.91939   0.22276   0.40785   0.00000  Uiso   1.00
C285   C     0.92944   0.17114   0.36133   0.00000  Uiso   1.00
H286   H     0.96009   0.16603   0.37738   0.00000  Uiso   1.00
H287   H     0.93406   0.19068   0.33089   0.00000  Uiso   1.00
H288   H     0.91583   0.13703   0.35354   0.00000  Uiso   1.00
N289   N     0.76278   0.19828   0.11093   0.00000  Uiso   1.00
H290   H     0.74728   0.22276   0.09215   0.00000  Uiso   1.00
C291   C     0.73723   0.17114   0.13867   0.00000  Uiso   1.00
H292   H     0.70657   0.16603   0.12262   0.00000  Uiso   1.00
H293   H     0.73261   0.19068   0.16910   0.00000  Uiso   1.00
H294   H     0.75083   0.13704   0.14646   0.00000  Uiso   1.00
N295   N     0.76820   0.12623   0.38450   0.00000  Uiso   1.00
H296   H     0.75568   0.10088   0.40359   0.00000  Uiso   1.00
C297   C     0.73995   0.14679   0.35263   0.00000  Uiso   1.00
H298   H     0.70903   0.14954   0.36600   0.00000  Uiso   1.00
H299   H     0.73734   0.12318   0.32426   0.00000  Uiso   1.00
H300   H     0.75011   0.18152   0.34222   0.00000  Uiso   1.00
N301   N     0.89847   0.12623   0.11550   0.00000  Uiso   1.00
H302   H     0.91098   0.10088   0.09641   0.00000  Uiso   1.00
C303   C     0.92672   0.14680   0.14737   0.00000  Uiso   1.00
H304   H     0.95763   0.14955   0.13400   0.00000  Uiso   1.00
H305   H     0.92933   0.12318   0.17574   0.00000  Uiso   1.00
H306   H     0.91656   0.18152   0.15778   0.00000  Uiso   1.00
N307   N     0.72206   0.16795   0.44753   0.00000  Uiso   1.00
H308   H     0.69937   0.14635   0.45738   0.00000  Uiso   1.00
C309   C     0.70878   0.21470   0.43859   0.00000  Uiso   1.00
H310   H     0.68097   0.21426   0.41647   0.00000  Uiso   1.00
H311   H     0.73299   0.23410   0.42189   0.00000  Uiso   1.00
H312   H     0.70151   0.23252   0.46967   0.00000  Uiso   1.00
N313   N     0.94460   0.16794   0.05247   0.00000  Uiso   1.00
H314   H     0.96730   0.14635   0.04262   0.00000  Uiso   1.00
C315   C     0.95789   0.21470   0.06141   0.00000  Uiso   1.00
H316   H     0.98569   0.21426   0.08353   0.00000  Uiso   1.00
H317   H     0.93367   0.23410   0.07811   0.00000  Uiso   1.00
H318   H     0.96515   0.23252   0.03032   0.00000  Uiso   1.00
N319   N     0.72184   0.15615   0.04037   0.00000  Uiso   1.00
H320   H     0.69666   0.17320   0.02729   0.00000  Uiso   1.00
C321   C     0.71506   0.10751   0.04808   0.00000  Uiso   1.00
H322   H     0.68850   0.10285   0.06914   0.00000  Uiso   1.00
H323   H     0.74213   0.09188   0.06559   0.00000  Uiso   1.00
H324   H     0.70895   0.08920   0.01638   0.00000  Uiso   1.00
N325   N     0.94483   0.15615   0.45963   0.00000  Uiso   1.00
H326   H     0.97000   0.17320   0.47271   0.00000  Uiso   1.00
C327   C     0.95161   0.10751   0.45192   0.00000  Uiso   1.00
H328   H     0.97817   0.10285   0.43086   0.00000  Uiso   1.00
H329   H     0.92454   0.09188   0.43441   0.00000  Uiso   1.00
H330   H     0.95771   0.08920   0.48362   0.00000  Uiso   1.00
N331   N     0.77748   0.04612   0.19346   0.00000  Uiso   1.00
H332   H     0.77949   0.08069   0.18922   0.00000  Uiso   1.00
C333   C     0.73559   0.03039   0.19661   0.00000  Uiso   1.00
H334   H     0.72964   0.33325   0.17540   0.00000  Uiso   1.00
H335   H     0.71415   0.05760   0.18432   0.00000  Uiso   1.00
H336   H     0.72887   0.02172   0.23120   0.00000  Uiso   1.00
N337   N     0.87439   0.28583   0.31810   0.00000  Uiso   1.00
H338   H     0.89106   0.25637   0.31370   0.00000  Uiso   1.00
C339   C     0.86123   0.29719   0.36183   0.00000  Uiso   1.00
H340   H     0.88832   0.30573   0.38341   0.00000  Uiso   1.00
H341   H     0.84521   0.26744   0.37609   0.00000  Uiso   1.00
H342   H     0.83995   0.32706   0.36133   0.00000  Uiso   1.00
N343   N     0.88918   0.04611   0.30654   0.00000  Uiso   1.00
H344   H     0.88718   0.08069   0.31077   0.00000  Uiso   1.00
C345   C     0.93107   0.03039   0.30339   0.00000  Uiso   1.00
H346   H     0.93702   0.33324   0.32460   0.00000  Uiso   1.00
H347   H     0.95251   0.05760   0.31569   0.00000  Uiso   1.00
H348   H     0.93780   0.02172   0.26880   0.00000  Uiso   1.00
N349   N     0.79227   0.28583   0.18190   0.00000  Uiso   1.00
H350   H     0.77562   0.25637   0.18631   0.00000  Uiso   1.00
C351   C     0.80543   0.29719   0.13818   0.00000  Uiso   1.00
H352   H     0.77834   0.30572   0.11659   0.00000  Uiso   1.00
H353   H     0.82146   0.26744   0.12392   0.00000  Uiso   1.00
H354   H     0.82670   0.32707   0.13866   0.00000  Uiso   1.00
C355   C     0.08749   0.50013   0.24989   0.00000  Uiso   1.00
C356   C     0.24584   0.50013   0.25011   0.00000  Uiso   1.00
C357   C     0.09213   0.49899   0.01922   0.00000  Uiso   1.00
C358   C     0.24120   0.49899   0.48078   0.00000  Uiso   1.00
C359   C     0.02113   0.45909   0.25043   0.00000  Uiso   1.00
C360   C     0.31209   0.54253   0.25012   0.00000  Uiso   1.00
C361   C     0.31220   0.45909   0.24957   0.00000  Uiso   1.00
C362   C     0.02124   0.54253   0.24988   0.00000  Uiso   1.00
C363   C     0.29061   0.50064   0.24999   0.00000  Uiso   1.00
C364   C     0.04273   0.50064   0.25001   0.00000  Uiso   1.00
C365   C     0.14112   0.35755   0.22147   0.00000  Uiso   1.00
C366   C     0.18846   0.64198   0.28152   0.00000  Uiso   1.00
C367   C     0.19221   0.35755   0.27853   0.00000  Uiso   1.00
C368   C     0.14487   0.64198   0.21848   0.00000  Uiso   1.00
C369   C     0.16608   0.49993   0.16448   0.00000  Uiso   1.00
C370   C     0.16725   0.49993   0.33552   0.00000  Uiso   1.00
C371   C     0.20373   0.50953   0.40915   0.00000  Uiso   1.00
C372   C     0.12960   0.50953   0.09085   0.00000  Uiso   1.00
C373   C     0.16753   0.49958   0.38407   0.00000  Uiso   1.00
C374   C     0.16580   0.49958   0.11593   0.00000  Uiso   1.00
C375   C     0.13169   0.48818   0.40587   0.00000  Uiso   1.00
C376   C     0.20165   0.48818   0.09413   0.00000  Uiso   1.00
C377   C     0.13005   0.49647   0.45162   0.00000  Uiso   1.00
C378   C     0.20328   0.49647   0.04838   0.00000  Uiso   1.00
C379   C     0.16691   0.50067   0.47677   0.00000  Uiso   1.00
C380   C     0.16642   0.50067   0.02323   0.00000  Uiso   1.00
C381   C     0.20432   0.50312   0.45544   0.00000  Uiso   1.00
C382   C     0.12901   0.50312   0.04456   0.00000  Uiso   1.00
C383   C     0.09263   0.49796   0.47291   0.00000  Uiso   1.00
C384   C     0.24071   0.49796   0.02709   0.00000  Uiso   1.00
Cu385  Cu    0.16667   0.54689   0.25000   0.00000  Uiso   1.00
Cu386  Cu    0.16667   0.45311   0.25000   0.00000  Uiso   1.00
H387   H     0.03687   0.42651   0.25215   0.00000  Uiso   1.00
H388   H     0.29616   0.57524   0.25030   0.00000  Uiso   1.00
H389   H     0.29647   0.42651   0.24786   0.00000  Uiso   1.00
H390   H     0.03717   0.57524   0.24969   0.00000  Uiso   1.00
N391   N     0.16667   0.61736   0.25000   0.00000  Uiso   1.00
N392   N     0.16667   0.38264   0.25000   0.00000  Uiso   1.00
O393   O     0.10655   0.53958   0.24999   0.00000  Uiso   1.00
O394   O     0.22679   0.46042   0.25000   0.00000  Uiso   1.00
O395   O     0.22679   0.53958   0.25000   0.00000  Uiso   1.00
O396   O     0.10655   0.46042   0.24999   0.00000  Uiso   1.00
O397   O     0.16666   0.53960   0.18513   0.00000  Uiso   1.00
O398   O     0.16668   0.46040   0.31487   0.00000  Uiso   1.00
O399   O     0.16668   0.53960   0.31487   0.00000  Uiso   1.00
O400   O     0.16666   0.46040   0.18513   0.00000  Uiso   1.00
N401   N     0.23722   0.53161   0.38907   0.00000  Uiso   1.00
H402   H     0.25272   0.55610   0.40785   0.00000  Uiso   1.00
C403   C     0.26277   0.50447   0.36133   0.00000  Uiso   1.00
H404   H     0.29343   0.49936   0.37738   0.00000  Uiso   1.00
H405   H     0.26739   0.52401   0.33089   0.00000  Uiso   1.00
H406   H     0.24917   0.47037   0.35354   0.00000  Uiso   1.00
N407   N     0.09611   0.53162   0.11093   0.00000  Uiso   1.00
H408   H     0.08061   0.55610   0.09215   0.00000  Uiso   1.00
C409   C     0.07056   0.50448   0.13867   0.00000  Uiso   1.00
H410   H     0.03991   0.49936   0.12262   0.00000  Uiso   1.00
H411   H     0.06594   0.52401   0.16910   0.00000  Uiso   1.00
H412   H     0.08417   0.47037   0.14646   0.00000  Uiso   1.00
N413   N     0.10153   0.45956   0.38450   0.00000  Uiso   1.00
H414   H     0.08902   0.43422   0.40359   0.00000  Uiso   1.00
C415   C     0.07328   0.48013   0.35263   0.00000  Uiso   1.00
H416   H     0.04237   0.48288   0.36600   0.00000  Uiso   1.00
H417   H     0.07067   0.45651   0.32426   0.00000  Uiso   1.00
H418   H     0.08345   0.51485   0.34222   0.00000  Uiso   1.00
N419   N     0.23180   0.45956   0.11550   0.00000  Uiso   1.00
H420   H     0.24432   0.43422   0.09641   0.00000  Uiso   1.00
C421   C     0.26005   0.48013   0.14737   0.00000  Uiso   1.00
H422   H     0.29097   0.48288   0.13400   0.00000  Uiso   1.00
H423   H     0.26266   0.45651   0.17574   0.00000  Uiso   1.00
H424   H     0.24989   0.51485   0.15778   0.00000  Uiso   1.00
N425   N     0.05540   0.50128   0.44753   0.00000  Uiso   1.00
H426   H     0.03270   0.47968   0.45738   0.00000  Uiso   1.00
C427   C     0.04211   0.54804   0.43859   0.00000  Uiso   1.00
H428   H     0.01431   0.54759   0.41647   0.00000  Uiso   1.00
H429   H     0.06633   0.56743   0.42189   0.00000  Uiso   1.00
H430   H     0.03485   0.56585   0.46967   0.00000  Uiso   1.00
N431   N     0.27794   0.50128   0.05247   0.00000  Uiso   1.00
H432   H     0.30063   0.47968   0.04262   0.00000  Uiso   1.00
C433   C     0.29122   0.54804   0.06141   0.00000  Uiso   1.00
H434   H     0.31903   0.54759   0.08353   0.00000  Uiso   1.00
H435   H     0.26701   0.56743   0.07811   0.00000  Uiso   1.00
H436   H     0.29849   0.56585   0.03032   0.00000  Uiso   1.00
N437   N     0.05517   0.48949   0.04037   0.00000  Uiso   1.00
H438   H     0.03000   0.50653   0.02729   0.00000  Uiso   1.00
C439   C     0.04839   0.44084   0.04808   0.00000  Uiso   1.00
H440   H     0.02183   0.43619   0.06914   0.00000  Uiso   1.00
H441   H     0.07546   0.42522   0.06559   0.00000  Uiso   1.00
H442   H     0.04229   0.42254   0.01638   0.00000  Uiso   1.00
N443   N     0.27816   0.48949   0.45963   0.00000  Uiso   1.00
H444   H     0.30334   0.50653   0.47271   0.00000  Uiso   1.00
C445   C     0.28494   0.44084   0.45192   0.00000  Uiso   1.00
H446   H     0.31151   0.43619   0.43086   0.00000  Uiso   1.00
H447   H     0.25787   0.42522   0.43441   0.00000  Uiso   1.00
H448   H     0.29105   0.42253   0.48362   0.00000  Uiso   1.00
N449   N     0.11081   0.37945   0.19346   0.00000  Uiso   1.00
H450   H     0.11282   0.41402   0.18922   0.00000  Uiso   1.00
C451   C     0.06893   0.36372   0.19661   0.00000  Uiso   1.00
H452   H     0.06297   0.66658   0.17540   0.00000  Uiso   1.00
H453   H     0.04748   0.39093   0.18432   0.00000  Uiso   1.00
H454   H     0.06220   0.35505   0.23120   0.00000  Uiso   1.00
N455   N     0.20772   0.61916   0.31810   0.00000  Uiso   1.00
H456   H     0.22439   0.58971   0.31370   0.00000  Uiso   1.00
C457   C     0.19456   0.63053   0.36183   0.00000  Uiso   1.00
H458   H     0.22166   0.63907   0.38341   0.00000  Uiso   1.00
H459   H     0.17855   0.60077   0.37609   0.00000  Uiso   1.00
H460   H     0.17328   0.66040   0.36133   0.00000  Uiso   1.00
N461   N     0.22252   0.37945   0.30654   0.00000  Uiso   1.00
H462   H     0.22051   0.41402   0.31077   0.00000  Uiso   1.00
C463   C     0.26440   0.36372   0.30339   0.00000  Uiso   1.00
H464   H     0.27036   0.66657   0.32460   0.00000  Uiso   1.00
H465   H     0.28585   0.39093   0.31569   0.00000  Uiso   1.00
H466   H     0.27113   0.35505   0.26880   0.00000  Uiso   1.00
N467   N     0.12560   0.61917   0.18190   0.00000  Uiso   1.00
H468   H     0.10895   0.58970   0.18631   0.00000  Uiso   1.00
C469   C     0.13877   0.63053   0.13818   0.00000  Uiso   1.00
H470   H     0.11167   0.63905   0.11659   0.00000  Uiso   1.00
H471   H     0.15479   0.60078   0.12392   0.00000  Uiso   1.00
H472   H     0.16004   0.66041   0.13866   0.00000  Uiso   1.00
C473   C     0.42082   0.50013   0.24989   0.00000  Uiso   1.00
C474   C     0.57918   0.50013   0.25011   0.00000  Uiso   1.00
C475   C     0.42546   0.49899   0.01922   0.00000  Uiso   1.00
C476   C     0.57454   0.49899   0.48078   0.00000  Uiso   1.00
C477   C     0.35446   0.45909   0.25043   0.00000  Uiso   1.00
C478   C     0.64542   0.54253   0.25012   0.00000  Uiso   1.00
C479   C     0.64554   0.45909   0.24957   0.00000  Uiso   1.00
C480   C     0.35458   0.54253   0.24988   0.00000  Uiso   1.00
C481   C     0.62394   0.50064   0.24999   0.00000  Uiso   1.00
C482   C     0.37606   0.50064   0.25001   0.00000  Uiso   1.00
C483   C     0.47446   0.35755   0.22147   0.00000  Uiso   1.00
C484   C     0.52179   0.64198   0.28152   0.00000  Uiso   1.00
C485   C     0.52554   0.35755   0.27853   0.00000  Uiso   1.00
C486   C     0.47821   0.64198   0.21848   0.00000  Uiso   1.00
C487   C     0.49941   0.49993   0.16448   0.00000  Uiso   1.00
C488   C     0.50059   0.49993   0.33552   0.00000  Uiso   1.00
C489   C     0.53707   0.50953   0.40915   0.00000  Uiso   1.00
C490   C     0.46294   0.50953   0.09085   0.00000  Uiso   1.00
C491   C     0.50087   0.49958   0.38407   0.00000  Uiso   1.00
C492   C     0.49913   0.49958   0.11593   0.00000  Uiso   1.00
C493   C     0.46502   0.48818   0.40587   0.00000  Uiso   1.00
C494   C     0.53498   0.48818   0.09413   0.00000  Uiso   1.00
C495   C     0.46339   0.49647   0.45162   0.00000  Uiso   1.00
C496   C     0.53661   0.49647   0.04838   0.00000  Uiso   1.00
C497   C     0.50024   0.50067   0.47677   0.00000  Uiso   1.00
C498   C     0.49976   0.50067   0.02323   0.00000  Uiso   1.00
C499   C     0.53765   0.50312   0.45544   0.00000  Uiso   1.00
C500   C     0.46235   0.50312   0.04456   0.00000  Uiso   1.00
C501   C     0.42596   0.49796   0.47291   0.00000  Uiso   1.00
C502   C     0.57404   0.49796   0.02709   0.00000  Uiso   1.00
Cu503  Cu    0.50000   0.54689   0.25000   0.00000  Uiso   1.00
Cu504  Cu    0.50000   0.45311   0.25000   0.00000  Uiso   1.00
H505   H     0.37020   0.42651   0.25215   0.00000  Uiso   1.00
H506   H     0.62950   0.57524   0.25030   0.00000  Uiso   1.00
H507   H     0.62980   0.42651   0.24786   0.00000  Uiso   1.00
H508   H     0.37050   0.57524   0.24969   0.00000  Uiso   1.00
N509   N     0.50000   0.61736   0.25000   0.00000  Uiso   1.00
N510   N     0.50000   0.38264   0.25000   0.00000  Uiso   1.00
O511   O     0.43988   0.53958   0.24999   0.00000  Uiso   1.00
O512   O     0.56012   0.46042   0.25000   0.00000  Uiso   1.00
O513   O     0.56012   0.53958   0.25000   0.00000  Uiso   1.00
O514   O     0.43988   0.46042   0.24999   0.00000  Uiso   1.00
O515   O     0.49999   0.53960   0.18513   0.00000  Uiso   1.00
O516   O     0.50001   0.46040   0.31487   0.00000  Uiso   1.00
O517   O     0.50001   0.53960   0.31487   0.00000  Uiso   1.00
O518   O     0.49999   0.46040   0.18513   0.00000  Uiso   1.00
N519   N     0.57056   0.53161   0.38907   0.00000  Uiso   1.00
H520   H     0.58605   0.55610   0.40785   0.00000  Uiso   1.00
C521   C     0.59610   0.50447   0.36133   0.00000  Uiso   1.00
H522   H     0.62676   0.49936   0.37738   0.00000  Uiso   1.00
H523   H     0.60072   0.52401   0.33089   0.00000  Uiso   1.00
H524   H     0.58250   0.47037   0.35354   0.00000  Uiso   1.00
N525   N     0.42944   0.53162   0.11093   0.00000  Uiso   1.00
H526   H     0.41395   0.55610   0.09215   0.00000  Uiso   1.00
C527   C     0.40390   0.50448   0.13867   0.00000  Uiso   1.00
H528   H     0.37324   0.49936   0.12262   0.00000  Uiso   1.00
H529   H     0.39928   0.52401   0.16910   0.00000  Uiso   1.00
H530   H     0.41750   0.47037   0.14646   0.00000  Uiso   1.00
N531   N     0.43487   0.45956   0.38450   0.00000  Uiso   1.00
H532   H     0.42235   0.43422   0.40359   0.00000  Uiso   1.00
C533   C     0.40662   0.48013   0.35263   0.00000  Uiso   1.00
H534   H     0.37570   0.48288   0.36600   0.00000  Uiso   1.00
H535   H     0.40401   0.45651   0.32426   0.00000  Uiso   1.00
H536   H     0.41678   0.51485   0.34222   0.00000  Uiso   1.00
N537   N     0.56513   0.45956   0.11550   0.00000  Uiso   1.00
H538   H     0.57765   0.43422   0.09641   0.00000  Uiso   1.00
C539   C     0.59338   0.48013   0.14737   0.00000  Uiso   1.00
H540   H     0.62430   0.48288   0.13400   0.00000  Uiso   1.00
H541   H     0.59600   0.45651   0.17574   0.00000  Uiso   1.00
H542   H     0.58322   0.51485   0.15778   0.00000  Uiso   1.00
N543   N     0.38873   0.50128   0.44753   0.00000  Uiso   1.00
H544   H     0.36603   0.47968   0.45738   0.00000  Uiso   1.00
C545   C     0.37545   0.54804   0.43859   0.00000  Uiso   1.00
H546   H     0.34764   0.54759   0.41647   0.00000  Uiso   1.00
H547   H     0.39966   0.56743   0.42189   0.00000  Uiso   1.00
H548   H     0.36818   0.56585   0.46967   0.00000  Uiso   1.00
N549   N     0.61127   0.50128   0.05247   0.00000  Uiso   1.00
H550   H     0.63397   0.47968   0.04262   0.00000  Uiso   1.00
C551   C     0.62455   0.54804   0.06141   0.00000  Uiso   1.00
H552   H     0.65236   0.54759   0.08353   0.00000  Uiso   1.00
H553   H     0.60034   0.56743   0.07811   0.00000  Uiso   1.00
H554   H     0.63182   0.56585   0.03032   0.00000  Uiso   1.00
N555   N     0.38851   0.48949   0.04037   0.00000  Uiso   1.00
H556   H     0.36333   0.50653   0.02729   0.00000  Uiso   1.00
C557   C     0.38173   0.44084   0.04808   0.00000  Uiso   1.00
H558   H     0.35516   0.43619   0.06914   0.00000  Uiso   1.00
H559   H     0.40879   0.42522   0.06559   0.00000  Uiso   1.00
H560   H     0.37562   0.42254   0.01638   0.00000  Uiso   1.00
N561   N     0.61149   0.48949   0.45963   0.00000  Uiso   1.00
H562   H     0.63667   0.50653   0.47271   0.00000  Uiso   1.00
C563   C     0.61828   0.44084   0.45192   0.00000  Uiso   1.00
H564   H     0.64484   0.43619   0.43086   0.00000  Uiso   1.00
H565   H     0.59121   0.42522   0.43441   0.00000  Uiso   1.00
H566   H     0.62438   0.42253   0.48362   0.00000  Uiso   1.00
N567   N     0.44415   0.37945   0.19346   0.00000  Uiso   1.00
H568   H     0.44615   0.41402   0.18922   0.00000  Uiso   1.00
C569   C     0.40226   0.36372   0.19661   0.00000  Uiso   1.00
H570   H     0.39631   0.66658   0.17540   0.00000  Uiso   1.00
H571   H     0.38082   0.39093   0.18432   0.00000  Uiso   1.00
H572   H     0.39553   0.35505   0.23120   0.00000  Uiso   1.00
N573   N     0.54106   0.61916   0.31810   0.00000  Uiso   1.00
H574   H     0.55772   0.58971   0.31370   0.00000  Uiso   1.00
C575   C     0.52790   0.63053   0.36183   0.00000  Uiso   1.00
H576   H     0.55499   0.63907   0.38341   0.00000  Uiso   1.00
H577   H     0.51188   0.60077   0.37609   0.00000  Uiso   1.00
H578   H     0.50661   0.66040   0.36133   0.00000  Uiso   1.00
N579   N     0.55585   0.37945   0.30654   0.00000  Uiso   1.00
H580   H     0.55385   0.41402   0.31077   0.00000  Uiso   1.00
C581   C     0.59774   0.36372   0.30339   0.00000  Uiso   1.00
H582   H     0.60369   0.66657   0.32460   0.00000  Uiso   1.00
H583   H     0.61918   0.39093   0.31569   0.00000  Uiso   1.00
H584   H     0.60447   0.35505   0.26880   0.00000  Uiso   1.00
N585   N     0.45894   0.61917   0.18190   0.00000  Uiso   1.00
H586   H     0.44229   0.58970   0.18631   0.00000  Uiso   1.00
C587   C     0.47210   0.63053   0.13818   0.00000  Uiso   1.00
H588   H     0.44500   0.63905   0.11659   0.00000  Uiso   1.00
H589   H     0.48812   0.60078   0.12392   0.00000  Uiso   1.00
H590   H     0.49337   0.66041   0.13866   0.00000  Uiso   1.00
C591   C     0.75416   0.50013   0.24989   0.00000  Uiso   1.00
C592   C     0.91251   0.50013   0.25011   0.00000  Uiso   1.00
C593   C     0.75880   0.49899   0.01922   0.00000  Uiso   1.00
C594   C     0.90787   0.49899   0.48078   0.00000  Uiso   1.00
C595   C     0.68780   0.45909   0.25043   0.00000  Uiso   1.00
C596   C     0.97876   0.54253   0.25012   0.00000  Uiso   1.00
C597   C     0.97887   0.45909   0.24957   0.00000  Uiso   1.00
C598   C     0.68791   0.54253   0.24988   0.00000  Uiso   1.00
C599   C     0.95727   0.50064   0.24999   0.00000  Uiso   1.00
C600   C     0.70939   0.50064   0.25001   0.00000  Uiso   1.00
C601   C     0.80779   0.35755   0.22147   0.00000  Uiso   1.00
C602   C     0.85513   0.64198   0.28152   0.00000  Uiso   1.00
C603   C     0.85888   0.35755   0.27853   0.00000  Uiso   1.00
C604   C     0.81154   0.64198   0.21848   0.00000  Uiso   1.00
C605   C     0.83275   0.49993   0.16448   0.00000  Uiso   1.00
C606   C     0.83392   0.49993   0.33552   0.00000  Uiso   1.00
C607   C     0.87040   0.50953   0.40915   0.00000  Uiso   1.00
C608   C     0.79627   0.50953   0.09085   0.00000  Uiso   1.00
C609   C     0.83420   0.49958   0.38407   0.00000  Uiso   1.00
C610   C     0.83247   0.49958   0.11593   0.00000  Uiso   1.00
C611   C     0.79835   0.48818   0.40587   0.00000  Uiso   1.00
C612   C     0.86831   0.48818   0.09413   0.00000  Uiso   1.00
C613   C     0.79672   0.49647   0.45162   0.00000  Uiso   1.00
C614   C     0.86995   0.49647   0.04838   0.00000  Uiso   1.00
C615   C     0.83358   0.50067   0.47677   0.00000  Uiso   1.00
C616   C     0.83309   0.50067   0.02323   0.00000  Uiso   1.00
C617   C     0.87099   0.50312   0.45544   0.00000  Uiso   1.00
C618   C     0.79568   0.50312   0.04456   0.00000  Uiso   1.00
C619   C     0.75929   0.49796   0.47291   0.00000  Uiso   1.00
C620   C     0.90737   0.49796   0.02709   0.00000  Uiso   1.00
Cu621  Cu    0.83333   0.54689   0.25000   0.00000  Uiso   1.00
Cu622  Cu    0.83333   0.45311   0.25000   0.00000  Uiso   1.00
H623   H     0.70353   0.42651   0.25215   0.00000  Uiso   1.00
H624   H     0.96283   0.57524   0.25030   0.00000  Uiso   1.00
H625   H     0.96313   0.42651   0.24786   0.00000  Uiso   1.00
H626   H     0.70383   0.57524   0.24969   0.00000  Uiso   1.00
N627   N     0.83333   0.61736   0.25000   0.00000  Uiso   1.00
N628   N     0.83333   0.38264   0.25000   0.00000  Uiso   1.00
O629   O     0.77321   0.53958   0.24999   0.00000  Uiso   1.00
O630   O     0.89345   0.46042   0.25000   0.00000  Uiso   1.00
O631   O     0.89345   0.53958   0.25000   0.00000  Uiso   1.00
O632   O     0.77321   0.46042   0.24999   0.00000  Uiso   1.00
O633   O     0.83332   0.53960   0.18513   0.00000  Uiso   1.00
O634   O     0.83334   0.46040   0.31487   0.00000  Uiso   1.00
O635   O     0.83334   0.53960   0.31487   0.00000  Uiso   1.00
O636   O     0.83332   0.46040   0.18513   0.00000  Uiso   1.00
N637   N     0.90389   0.53161   0.38907   0.00000  Uiso   1.00
H638   H     0.91939   0.55610   0.40785   0.00000  Uiso   1.00
C639   C     0.92944   0.50447   0.36133   0.00000  Uiso   1.00
H640   H     0.96009   0.49936   0.37738   0.00000  Uiso   1.00
H641   H     0.93406   0.52401   0.33089   0.00000  Uiso   1.00
H642   H     0.91583   0.47037   0.35354   0.00000  Uiso   1.00
N643   N     0.76278   0.53162   0.11093   0.00000  Uiso   1.00
H644   H     0.74728   0.55610   0.09215   0.00000  Uiso   1.00
C645   C     0.73723   0.50448   0.13867   0.00000  Uiso   1.00
H646   H     0.70657   0.49936   0.12262   0.00000  Uiso   1.00
H647   H     0.73261   0.52401   0.16910   0.00000  Uiso   1.00
H648   H     0.75083   0.47037   0.14646   0.00000  Uiso   1.00
N649   N     0.76820   0.45956   0.38450   0.00000  Uiso   1.00
H650   H     0.75568   0.43422   0.40359   0.00000  Uiso   1.00
C651   C     0.73995   0.48013   0.35263   0.00000  Uiso   1.00
H652   H     0.70903   0.48288   0.36600   0.00000  Uiso   1.00
H653   H     0.73734   0.45651   0.32426   0.00000  Uiso   1.00
H654   H     0.75011   0.51485   0.34222   0.00000  Uiso   1.00
N655   N     0.89847   0.45956   0.11550   0.00000  Uiso   1.00
H656   H     0.91098   0.43422   0.09641   0.00000  Uiso   1.00
C657   C     0.92672   0.48013   0.14737   0.00000  Uiso   1.00
H658   H     0.95763   0.48288   0.13400   0.00000  Uiso   1.00
H659   H     0.92933   0.45651   0.17574   0.00000  Uiso   1.00
H660   H     0.91656   0.51485   0.15778   0.00000  Uiso   1.00
N661   N     0.72206   0.50128   0.44753   0.00000  Uiso   1.00
H662   H     0.69937   0.47968   0.45738   0.00000  Uiso   1.00
C663   C     0.70878   0.54804   0.43859   0.00000  Uiso   1.00
H664   H     0.68097   0.54759   0.41647   0.00000  Uiso   1.00
H665   H     0.73299   0.56743   0.42189   0.00000  Uiso   1.00
H666   H     0.70151   0.56585   0.46967   0.00000  Uiso   1.00
N667   N     0.94460   0.50128   0.05247   0.00000  Uiso   1.00
H668   H     0.96730   0.47968   0.04262   0.00000  Uiso   1.00
C669   C     0.95789   0.54804   0.06141   0.00000  Uiso   1.00
H670   H     0.98569   0.54759   0.08353   0.00000  Uiso   1.00
H671   H     0.93367   0.56743   0.07811   0.00000  Uiso   1.00
H672   H     0.96515   0.56585   0.03032   0.00000  Uiso   1.00
N673   N     0.72184   0.48949   0.04037   0.00000  Uiso   1.00
H674   H     0.69666   0.50653   0.02729   0.00000  Uiso   1.00
C675   C     0.71506   0.44084   0.04808   0.00000  Uiso   1.00
H676   H     0.68850   0.43619   0.06914   0.00000  Uiso   1.00
H677   H     0.74213   0.42522   0.06559   0.00000  Uiso   1.00
H678   H     0.70895   0.42254   0.01638   0.00000  Uiso   1.00
N679   N     0.94483   0.48949   0.45963   0.00000  Uiso   1.00
H680   H     0.97000   0.50653   0.47271   0.00000  Uiso   1.00
C681   C     0.95161   0.44084   0.45192   0.00000  Uiso   1.00
H682   H     0.97817   0.43619   0.43086   0.00000  Uiso   1.00
H683   H     0.92454   0.42522   0.43441   0.00000  Uiso   1.00
H684   H     0.95771   0.42253   0.48362   0.00000  Uiso   1.00
N685   N     0.77748   0.37945   0.19346   0.00000  Uiso   1.00
H686   H     0.77949   0.41402   0.18922   0.00000  Uiso   1.00
C687   C     0.73559   0.36372   0.19661   0.00000  Uiso   1.00
H688   H     0.72964   0.66658   0.17540   0.00000  Uiso   1.00
H689   H     0.71415   0.39093   0.18432   0.00000  Uiso   1.00
H690   H     0.72887   0.35505   0.23120   0.00000  Uiso   1.00
N691   N     0.87439   0.61916   0.31810   0.00000  Uiso   1.00
H692   H     0.89106   0.58971   0.31370   0.00000  Uiso   1.00
C693   C     0.86123   0.63053   0.36183   0.00000  Uiso   1.00
H694   H     0.88832   0.63907   0.38341   0.00000  Uiso   1.00
H695   H     0.84521   0.60077   0.37609   0.00000  Uiso   1.00
H696   H     0.83995   0.66040   0.36133   0.00000  Uiso   1.00
N697   N     0.88918   0.37945   0.30654   0.00000  Uiso   1.00
H698   H     0.88718   0.41402   0.31077   0.00000  Uiso   1.00
C699   C     0.93107   0.36372   0.30339   0.00000  Uiso   1.00
H700   H     0.93702   0.66657   0.32460   0.00000  Uiso   1.00
H701   H     0.95251   0.39093   0.31569   0.00000  Uiso   1.00
H702   H     0.93780   0.35505   0.26880   0.00000  Uiso   1.00
N703   N     0.79227   0.61917   0.18190   0.00000  Uiso   1.00
H704   H     0.77562   0.58970   0.18631   0.00000  Uiso   1.00
C705   C     0.80543   0.63053   0.13818   0.00000  Uiso   1.00
H706   H     0.77834   0.63905   0.11659   0.00000  Uiso   1.00
H707   H     0.82146   0.60078   0.12392   0.00000  Uiso   1.00
H708   H     0.82670   0.66041   0.13866   0.00000  Uiso   1.00
C709   C     0.08749   0.83346   0.24989   0.00000  Uiso   1.00
C710   C     0.24584   0.83346   0.25011   0.00000  Uiso   1.00
C711   C     0.09213   0.83232   0.01922   0.00000  Uiso   1.00
C712   C     0.24120   0.83232   0.48078   0.00000  Uiso   1.00
C713   C     0.02113   0.79242   0.25043   0.00000  Uiso   1.00
C714   C     0.31209   0.87586   0.25012   0.00000  Uiso   1.00
C715   C     0.31220   0.79242   0.24957   0.00000  Uiso   1.00
C716   C     0.02124   0.87586   0.24988   0.00000  Uiso   1.00
C717   C     0.29061   0.83397   0.24999   0.00000  Uiso   1.00
C718   C     0.04273   0.83397   0.25001   0.00000  Uiso   1.00
C719   C     0.14112   0.69088   0.22147   0.00000  Uiso   1.00
C720   C     0.18846   0.97531   0.28152   0.00000  Uiso   1.00
C721   C     0.19221   0.69088   0.27853   0.00000  Uiso   1.00
C722   C     0.14487   0.97531   0.21848   0.00000  Uiso   1.00
C723   C     0.16608   0.83326   0.16448   0.00000  Uiso   1.00
C724   C     0.16725   0.83326   0.33552   0.00000  Uiso   1.00
C725   C     0.20373   0.84287   0.40915   0.00000  Uiso   1.00
C726   C     0.12960   0.84287   0.09085   0.00000  Uiso   1.00
C727   C     0.16753   0.83291   0.38407   0.00000  Uiso   1.00
C728   C     0.16580   0.83291   0.11593   0.00000  Uiso   1.00
C729   C     0.13169   0.82151   0.40587   0.00000  Uiso   1.00
C730   C     0.20165   0.82151   0.09413   0.00000  Uiso   1.00
C731   C     0.13005   0.82980   0.45162   0.00000  Uiso   1.00
C732   C     0.20328   0.82980   0.04838   0.00000  Uiso   1.00
C733   C     0.16691   0.83401   0.47677   0.00000  Uiso   1.00
C734   C     0.16642   0.83401   0.02323   0.00000  Uiso   1.00
C735   C     0.20432   0.83646   0.45544   0.00000  Uiso   1.00
C736   C     0.12901   0.83646   0.04456   0.00000  Uiso   1.00
C737   C     0.09263   0.83130   0.47291   0.00000  Uiso   1.00
C738   C     0.24071   0.83130   0.02709   0.00000  Uiso   1.00
Cu739  Cu    0.16667   0.88022   0.25000   0.00000  Uiso   1.00
Cu740  Cu    0.16667   0.78645   0.25000   0.00000  Uiso   1.00
H741   H     0.03687   0.75985   0.25215   0.00000  Uiso   1.00
H742   H     0.29616   0.90857   0.25030   0.00000  Uiso   1.00
H743   H     0.29647   0.75985   0.24786   0.00000  Uiso   1.00
H744   H     0.03717   0.90857   0.24969   0.00000  Uiso   1.00
N745   N     0.16667   0.95069   0.25000   0.00000  Uiso   1.00
N746   N     0.16667   0.71598   0.25000   0.00000  Uiso   1.00
O747   O     0.10655   0.87291   0.24999   0.00000  Uiso   1.00
O748   O     0.22679   0.79375   0.25000   0.00000  Uiso   1.00
O749   O     0.22679   0.87291   0.25000   0.00000  Uiso   1.00
O750   O     0.10655   0.79375   0.24999   0.00000  Uiso   1.00
O751   O     0.16666   0.87293   0.18513   0.00000  Uiso   1.00
O752   O     0.16668   0.79373   0.31487   0.00000  Uiso   1.00
O753   O     0.16668   0.87293   0.31487   0.00000  Uiso   1.00
O754   O     0.16666   0.79373   0.18513   0.00000  Uiso   1.00
N755   N     0.23722   0.86495   0.38907   0.00000  Uiso   1.00
H756   H     0.25272   0.88943   0.40785   0.00000  Uiso   1.00
C757   C     0.26277   0.83781   0.36133   0.00000  Uiso   1.00
H758   H     0.29343   0.83269   0.37738   0.00000  Uiso   1.00
H759   H     0.26739   0.85734   0.33089   0.00000  Uiso   1.00
H760   H     0.24917   0.80370   0.35354   0.00000  Uiso   1.00
N761   N     0.09611   0.86495   0.11093   0.00000  Uiso   1.00
H762   H     0.08061   0.88943   0.09215   0.00000  Uiso   1.00
C763   C     0.07056   0.83781   0.13867   0.00000  Uiso   1.00
H764   H     0.03991   0.83270   0.12262   0.00000  Uiso   1.00
H765   H     0.06594   0.85734   0.16910   0.00000  Uiso   1.00
H766   H     0.08417   0.80370   0.14646   0.00000  Uiso   1.00
N767   N     0.10153   0.79290   0.38450   0.00000  Uiso   1.00
H768   H     0.08902   0.76755   0.40359   0.00000  Uiso   1.00
C769   C     0.07328   0.81346   0.35263   0.00000  Uiso   1.00
H770   H     0.04237   0.81621   0.36600   0.00000  Uiso   1.00
H771   H     0.07067   0.78985   0.32426   0.00000  Uiso   1.00
H772   H     0.08345   0.84818   0.34222   0.00000  Uiso   1.00
N773   N     0.23180   0.79290   0.11550   0.00000  Uiso   1.00
H774   H     0.24432   0.76755   0.09641   0.00000  Uiso   1.00
C775   C     0.26005   0.81346   0.14737   0.00000  Uiso   1.00
H776   H     0.29097   0.81621   0.13400   0.00000  Uiso   1.00
H777   H     0.26266   0.78985   0.17574   0.00000  Uiso   1.00
H778   H     0.24989   0.84818   0.15778   0.00000  Uiso   1.00
N779   N     0.05540   0.83461   0.44753   0.00000  Uiso   1.00
H780   H     0.03270   0.81301   0.45738   0.00000  Uiso   1.00
C781   C     0.04211   0.88137   0.43859   0.00000  Uiso   1.00
H782   H     0.01431   0.88093   0.41647   0.00000  Uiso   1.00
H783   H     0.06633   0.90076   0.42189   0.00000  Uiso   1.00
H784   H     0.03485   0.89919   0.46967   0.00000  Uiso   1.00
N785   N     0.27794   0.83461   0.05247   0.00000  Uiso   1.00
H786   H     0.30063   0.81301   0.04262   0.00000  Uiso   1.00
C787   C     0.29122   0.88137   0.06141   0.00000  Uiso   1.00
H788   H     0.31903   0.88093   0.08353   0.00000  Uiso   1.00
H789   H     0.26701   0.90076   0.07811   0.00000  Uiso   1.00
H790   H     0.29849   0.89919   0.03032   0.00000  Uiso   1.00
N791   N     0.05517   0.82282   0.04037   0.00000  Uiso   1.00
H792   H     0.03000   0.83987   0.02729   0.00000  Uiso   1.00
C793   C     0.04839   0.77418   0.04808   0.00000  Uiso   1.00
H794   H     0.02183   0.76952   0.06914   0.00000  Uiso   1.00
H795   H     0.07546   0.75855   0.06559   0.00000  Uiso   1.00
H796   H     0.04229   0.75587   0.01638   0.00000  Uiso   1.00
N797   N     0.27816   0.82282   0.45963   0.00000  Uiso   1.00
H798   H     0.30334   0.83987   0.47271   0.00000  Uiso   1.00
C799   C     0.28494   0.77418   0.45192   0.00000  Uiso   1.00
H800   H     0.31151   0.76952   0.43086   0.00000  Uiso   1.00
H801   H     0.25787   0.75855   0.43441   0.00000  Uiso   1.00
H802   H     0.29105   0.75587   0.48362   0.00000  Uiso   1.00
N803   N     0.11081   0.71278   0.19346   0.00000  Uiso   1.00
H804   H     0.11282   0.74736   0.18922   0.00000  Uiso   1.00
C805   C     0.06893   0.69706   0.19661   0.00000  Uiso   1.00
H806   H     0.06297   0.99991   0.17540   0.00000  Uiso   1.00
H807   H     0.04748   0.72427   0.18432   0.00000  Uiso   1.00
H808   H     0.06220   0.68839   0.23120   0.00000  Uiso   1.00
N809   N     0.20772   0.95250   0.31810   0.00000  Uiso   1.00
H810   H     0.22439   0.92304   0.31370   0.00000  Uiso   1.00
C811   C     0.19456   0.96386   0.36183   0.00000  Uiso   1.00
H812   H     0.22166   0.97240   0.38341   0.00000  Uiso   1.00
H813   H     0.17855   0.93410   0.37609   0.00000  Uiso   1.00
H814   H     0.17328   0.99373   0.36133   0.00000  Uiso   1.00
N815   N     0.22252   0.71278   0.30654   0.00000  Uiso   1.00
H816   H     0.22051   0.74735   0.31077   0.00000  Uiso   1.00
C817   C     0.26440   0.69705   0.30339   0.00000  Uiso   1.00
H818   H     0.27036   0.99991   0.32460   0.00000  Uiso   1.00
H819   H     0.28585   0.72426   0.31569   0.00000  Uiso   1.00
H820   H     0.27113   0.68839   0.26880   0.00000  Uiso   1.00
N821   N     0.12560   0.95250   0.18190   0.00000  Uiso   1.00
H822   H     0.10895   0.92303   0.18631   0.00000  Uiso   1.00
C823   C     0.13877   0.96386   0.13818   0.00000  Uiso   1.00
H824   H     0.11167   0.97239   0.11659   0.00000  Uiso   1.00
H825   H     0.15479   0.93411   0.12392   0.00000  Uiso   1.00
H826   H     0.16004   0.99374   0.13866   0.00000  Uiso   1.00
C827   C     0.42082   0.83346   0.24989   0.00000  Uiso   1.00
C828   C     0.57918   0.83346   0.25011   0.00000  Uiso   1.00
C829   C     0.42546   0.83232   0.01922   0.00000  Uiso   1.00
C830   C     0.57454   0.83232   0.48078   0.00000  Uiso   1.00
C831   C     0.35446   0.79242   0.25043   0.00000  Uiso   1.00
C832   C     0.64542   0.87586   0.25012   0.00000  Uiso   1.00
C833   C     0.64554   0.79242   0.24957   0.00000  Uiso   1.00
C834   C     0.35458   0.87586   0.24988   0.00000  Uiso   1.00
C835   C     0.62394   0.83397   0.24999   0.00000  Uiso   1.00
C836   C     0.37606   0.83397   0.25001   0.00000  Uiso   1.00
C837   C     0.47446   0.69088   0.22147   0.00000  Uiso   1.00
C838   C     0.52179   0.97531   0.28152   0.00000  Uiso   1.00
C839   C     0.52554   0.69088   0.27853   0.00000  Uiso   1.00
C840   C     0.47821   0.97531   0.21848   0.00000  Uiso   1.00
C841   C     0.49941   0.83326   0.16448   0.00000  Uiso   1.00
C842   C     0.50059   0.83326   0.33552   0.00000  Uiso   1.00
C843   C     0.53707   0.84287   0.40915   0.00000  Uiso   1.00
C844   C     0.46294   0.84287   0.09085   0.00000  Uiso   1.00
C845   C     0.50087   0.83291   0.38407   0.00000  Uiso   1.00
C846   C     0.49913   0.83291   0.11593   0.00000  Uiso   1.00
C847   C     0.46502   0.82151   0.40587   0.00000  Uiso   1.00
C848   C     0.53498   0.82151   0.09413   0.00000  Uiso   1.00
C849   C     0.46339   0.82980   0.45162   0.00000  Uiso   1.00
C850   C     0.53661   0.82980   0.04838   0.00000  Uiso   1.00
C851   C     0.50024   0.83401   0.47677   0.00000  Uiso   1.00
C852   C     0.49976   0.83401   0.02323   0.00000  Uiso   1.00
C853   C     0.53765   0.83646   0.45544   0.00000  Uiso   1.00
C854   C     0.46235   0.83646   0.04456   0.00000  Uiso   1.00
C855   C     0.42596   0.83130   0.47291   0.00000  Uiso   1.00
C856   C     0.57404   0.83130   0.02709   0.00000  Uiso   1.00
Cu857  Cu    0.50000   0.88022   0.25000   0.00000  Uiso   1.00
Cu858  Cu    0.50000   0.78645   0.25000   0.00000  Uiso   1.00
H859   H     0.37020   0.75985   0.25215   0.00000  Uiso   1.00
H860   H     0.62950   0.90857   0.25030   0.00000  Uiso   1.00
H861   H     0.62980   0.75985   0.24786   0.00000  Uiso   1.00
H862   H     0.37050   0.90857   0.24969   0.00000  Uiso   1.00
N863   N     0.50000   0.95069   0.25000   0.00000  Uiso   1.00
N864   N     0.50000   0.71598   0.25000   0.00000  Uiso   1.00
O865   O     0.43988   0.87291   0.24999   0.00000  Uiso   1.00
O866   O     0.56012   0.79375   0.25000   0.00000  Uiso   1.00
O867   O     0.56012   0.87291   0.25000   0.00000  Uiso   1.00
O868   O     0.43988   0.79375   0.24999   0.00000  Uiso   1.00
O869   O     0.49999   0.87293   0.18513   0.00000  Uiso   1.00
O870   O     0.50001   0.79373   0.31487   0.00000  Uiso   1.00
O871   O     0.50001   0.87293   0.31487   0.00000  Uiso   1.00
O872   O     0.49999   0.79373   0.18513   0.00000  Uiso   1.00
N873   N     0.57056   0.86495   0.38907   0.00000  Uiso   1.00
H874   H     0.58605   0.88943   0.40785   0.00000  Uiso   1.00
C875   C     0.59610   0.83781   0.36133   0.00000  Uiso   1.00
H876   H     0.62676   0.83269   0.37738   0.00000  Uiso   1.00
H877   H     0.60072   0.85734   0.33089   0.00000  Uiso   1.00
H878   H     0.58250   0.80370   0.35354   0.00000  Uiso   1.00
N879   N     0.42944   0.86495   0.11093   0.00000  Uiso   1.00
H880   H     0.41395   0.88943   0.09215   0.00000  Uiso   1.00
C881   C     0.40390   0.83781   0.13867   0.00000  Uiso   1.00
H882   H     0.37324   0.83270   0.12262   0.00000  Uiso   1.00
H883   H     0.39928   0.85734   0.16910   0.00000  Uiso   1.00
H884   H     0.41750   0.80370   0.14646   0.00000  Uiso   1.00
N885   N     0.43487   0.79290   0.38450   0.00000  Uiso   1.00
H886   H     0.42235   0.76755   0.40359   0.00000  Uiso   1.00
C887   C     0.40662   0.81346   0.35263   0.00000  Uiso   1.00
H888   H     0.37570   0.81621   0.36600   0.00000  Uiso   1.00
H889   H     0.40401   0.78985   0.32426   0.00000  Uiso   1.00
H890   H     0.41678   0.84818   0.34222   0.00000  Uiso   1.00
N891   N     0.56513   0.79290   0.11550   0.00000  Uiso   1.00
H892   H     0.57765   0.76755   0.09641   0.00000  Uiso   1.00
C893   C     0.59338   0.81346   0.14737   0.00000  Uiso   1.00
H894   H     0.62430   0.81621   0.13400   0.00000  Uiso   1.00
H895   H     0.59600   0.78985   0.17574   0.00000  Uiso   1.00
H896   H     0.58322   0.84818   0.15778   0.00000  Uiso   1.00
N897   N     0.38873   0.83461   0.44753   0.00000  Uiso   1.00
H898   H     0.36603   0.81301   0.45738   0.00000  Uiso   1.00
C899   C     0.37545   0.88137   0.43859   0.00000  Uiso   1.00
H900   H     0.34764   0.88093   0.41647   0.00000  Uiso   1.00
H901   H     0.39966   0.90076   0.42189   0.00000  Uiso   1.00
H902   H     0.36818   0.89919   0.46967   0.00000  Uiso   1.00
N903   N     0.61127   0.83461   0.05247   0.00000  Uiso   1.00
H904   H     0.63397   0.81301   0.04262   0.00000  Uiso   1.00
C905   C     0.62455   0.88137   0.06141   0.00000  Uiso   1.00
H906   H     0.65236   0.88093   0.08353   0.00000  Uiso   1.00
H907   H     0.60034   0.90076   0.07811   0.00000  Uiso   1.00
H908   H     0.63182   0.89919   0.03032   0.00000  Uiso   1.00
N909   N     0.38851   0.82282   0.04037   0.00000  Uiso   1.00
H910   H     0.36333   0.83987   0.02729   0.00000  Uiso   1.00
C911   C     0.38173   0.77418   0.04808   0.00000  Uiso   1.00
H912   H     0.35516   0.76952   0.06914   0.00000  Uiso   1.00
H913   H     0.40879   0.75855   0.06559   0.00000  Uiso   1.00
H914   H     0.37562   0.75587   0.01638   0.00000  Uiso   1.00
N915   N     0.61149   0.82282   0.45963   0.00000  Uiso   1.00
H916   H     0.63667   0.83987   0.47271   0.00000  Uiso   1.00
C917   C     0.61828   0.77418   0.45192   0.00000  Uiso   1.00
H918   H     0.64484   0.76952   0.43086   0.00000  Uiso   1.00
H919   H     0.59121   0.75855   0.43441   0.00000  Uiso   1.00
H920   H     0.62438   0.75587   0.48362   0.00000  Uiso   1.00
N921   N     0.44415   0.71278   0.19346   0.00000  Uiso   1.00
H922   H     0.44615   0.74736   0.18922   0.00000  Uiso   1.00
C923   C     0.40226   0.69706   0.19661   0.00000  Uiso   1.00
H924   H     0.39631   0.99991   0.17540   0.00000  Uiso   1.00
H925   H     0.38082   0.72427   0.18432   0.00000  Uiso   1.00
H926   H     0.39553   0.68839   0.23120   0.00000  Uiso   1.00
N927   N     0.54106   0.95250   0.31810   0.00000  Uiso   1.00
H928   H     0.55772   0.92304   0.31370   0.00000  Uiso   1.00
C929   C     0.52790   0.96386   0.36183   0.00000  Uiso   1.00
H930   H     0.55499   0.97240   0.38341   0.00000  Uiso   1.00
H931   H     0.51188   0.93410   0.37609   0.00000  Uiso   1.00
H932   H     0.50661   0.99373   0.36133   0.00000  Uiso   1.00
N933   N     0.55585   0.71278   0.30654   0.00000  Uiso   1.00
H934   H     0.55385   0.74735   0.31077   0.00000  Uiso   1.00
C935   C     0.59774   0.69705   0.30339   0.00000  Uiso   1.00
H936   H     0.60369   0.99991   0.32460   0.00000  Uiso   1.00
H937   H     0.61918   0.72426   0.31569   0.00000  Uiso   1.00
H938   H     0.60447   0.68839   0.26880   0.00000  Uiso   1.00
N939   N     0.45894   0.95250   0.18190   0.00000  Uiso   1.00
H940   H     0.44229   0.92303   0.18631   0.00000  Uiso   1.00
C941   C     0.47210   0.96386   0.13818   0.00000  Uiso   1.00
H942   H     0.44500   0.97239   0.11659   0.00000  Uiso   1.00
H943   H     0.48812   0.93411   0.12392   0.00000  Uiso   1.00
H944   H     0.49337   0.99374   0.13866   0.00000  Uiso   1.00
C945   C     0.75416   0.83346   0.24989   0.00000  Uiso   1.00
C946   C     0.91251   0.83346   0.25011   0.00000  Uiso   1.00
C947   C     0.75880   0.83232   0.01922   0.00000  Uiso   1.00
C948   C     0.90787   0.83232   0.48078   0.00000  Uiso   1.00
C949   C     0.68780   0.79242   0.25043   0.00000  Uiso   1.00
C950   C     0.97876   0.87586   0.25012   0.00000  Uiso   1.00
C951   C     0.97887   0.79242   0.24957   0.00000  Uiso   1.00
C952   C     0.68791   0.87586   0.24988   0.00000  Uiso   1.00
C953   C     0.95727   0.83397   0.24999   0.00000  Uiso   1.00
C954   C     0.70939   0.83397   0.25001   0.00000  Uiso   1.00
C955   C     0.80779   0.69088   0.22147   0.00000  Uiso   1.00
C956   C     0.85513   0.97531   0.28152   0.00000  Uiso   1.00
C957   C     0.85888   0.69088   0.27853   0.00000  Uiso   1.00
C958   C     0.81154   0.97531   0.21848   0.00000  Uiso   1.00
C959   C     0.83275   0.83326   0.16448   0.00000  Uiso   1.00
C960   C     0.83392   0.83326   0.33552   0.00000  Uiso   1.00
C961   C     0.87040   0.84287   0.40915   0.00000  Uiso   1.00
C962   C     0.79627   0.84287   0.09085   0.00000  Uiso   1.00
C963   C     0.83420   0.83291   0.38407   0.00000  Uiso   1.00
C964   C     0.83247   0.83291   0.11593   0.00000  Uiso   1.00
C965   C     0.79835   0.82151   0.40587   0.00000  Uiso   1.00
C966   C     0.86831   0.82151   0.09413   0.00000  Uiso   1.00
C967   C     0.79672   0.82980   0.45162   0.00000  Uiso   1.00
C968   C     0.86995   0.82980   0.04838   0.00000  Uiso   1.00
C969   C     0.83358   0.83401   0.47677   0.00000  Uiso   1.00
C970   C     0.83309   0.83401   0.02323   0.00000  Uiso   1.00
C971   C     0.87099   0.83646   0.45544   0.00000  Uiso   1.00
C972   C     0.79568   0.83646   0.04456   0.00000  Uiso   1.00
C973   C     0.75929   0.83130   0.47291   0.00000  Uiso   1.00
C974   C     0.90737   0.83130   0.02709   0.00000  Uiso   1.00
Cu975  Cu    0.83333   0.88022   0.25000   0.00000  Uiso   1.00
Cu976  Cu    0.83333   0.78645   0.25000   0.00000  Uiso   1.00
H977   H     0.70353   0.75985   0.25215   0.00000  Uiso   1.00
H978   H     0.96283   0.90857   0.25030   0.00000  Uiso   1.00
H979   H     0.96313   0.75985   0.24786   0.00000  Uiso   1.00
H980   H     0.70383   0.90857   0.24969   0.00000  Uiso   1.00
N981   N     0.83333   0.95069   0.25000   0.00000  Uiso   1.00
N982   N     0.83333   0.71598   0.25000   0.00000  Uiso   1.00
O983   O     0.77321   0.87291   0.24999   0.00000  Uiso   1.00
O984   O     0.89345   0.79375   0.25000   0.00000  Uiso   1.00
O985   O     0.89345   0.87291   0.25000   0.00000  Uiso   1.00
O986   O     0.77321   0.79375   0.24999   0.00000  Uiso   1.00
O987   O     0.83332   0.87293   0.18513   0.00000  Uiso   1.00
O988   O     0.83334   0.79373   0.31487   0.00000  Uiso   1.00
O989   O     0.83334   0.87293   0.31487   0.00000  Uiso   1.00
O990   O     0.83332   0.79373   0.18513   0.00000  Uiso   1.00
N991   N     0.90389   0.86495   0.38907   0.00000  Uiso   1.00
H992   H     0.91939   0.88943   0.40785   0.00000  Uiso   1.00
C993   C     0.92944   0.83781   0.36133   0.00000  Uiso   1.00
H994   H     0.96009   0.83269   0.37738   0.00000  Uiso   1.00
H995   H     0.93406   0.85734   0.33089   0.00000  Uiso   1.00
H996   H     0.91583   0.80370   0.35354   0.00000  Uiso   1.00
N997   N     0.76278   0.86495   0.11093   0.00000  Uiso   1.00
H998   H     0.74728   0.88943   0.09215   0.00000  Uiso   1.00
C999   C     0.73723   0.83781   0.13867   0.00000  Uiso   1.00
H1000  H     0.70657   0.83270   0.12262   0.00000  Uiso   1.00
H1001  H     0.73261   0.85734   0.16910   0.00000  Uiso   1.00
H1002  H     0.75083   0.80370   0.14646   0.00000  Uiso   1.00
N1003  N     0.76820   0.79290   0.38450   0.00000  Uiso   1.00
H1004  H     0.75568   0.76755   0.40359   0.00000  Uiso   1.00
C1005  C     0.73995   0.81346   0.35263   0.00000  Uiso   1.00
H1006  H     0.70903   0.81621   0.36600   0.00000  Uiso   1.00
H1007  H     0.73734   0.78985   0.32426   0.00000  Uiso   1.00
H1008  H     0.75011   0.84818   0.34222   0.00000  Uiso   1.00
N1009  N     0.89847   0.79290   0.11550   0.00000  Uiso   1.00
H1010  H     0.91098   0.76755   0.09641   0.00000  Uiso   1.00
C1011  C     0.92672   0.81346   0.14737   0.00000  Uiso   1.00
H1012  H     0.95763   0.81621   0.13400   0.00000  Uiso   1.00
H1013  H     0.92933   0.78985   0.17574   0.00000  Uiso   1.00
H1014  H     0.91656   0.84818   0.15778   0.00000  Uiso   1.00
N1015  N     0.72206   0.83461   0.44753   0.00000  Uiso   1.00
H1016  H     0.69937   0.81301   0.45738   0.00000  Uiso   1.00
C1017  C     0.70878   0.88137   0.43859   0.00000  Uiso   1.00
H1018  H     0.68097   0.88093   0.41647   0.00000  Uiso   1.00
H1019  H     0.73299   0.90076   0.42189   0.00000  Uiso   1.00
H1020  H     0.70151   0.89919   0.46967   0.00000  Uiso   1.00
N1021  N     0.94460   0.83461   0.05247   0.00000  Uiso   1.00
H1022  H     0.96730   0.81301   0.04262   0.00000  Uiso   1.00
C1023  C     0.95789   0.88137   0.06141   0.00000  Uiso   1.00
H1024  H     0.98569   0.88093   0.08353   0.00000  Uiso   1.00
H1025  H     0.93367   0.90076   0.07811   0.00000  Uiso   1.00
H1026  H     0.96515   0.89919   0.03032   0.00000  Uiso   1.00
N1027  N     0.72184   0.82282   0.04037   0.00000  Uiso   1.00
H1028  H     0.69666   0.83987   0.02729   0.00000  Uiso   1.00
C1029  C     0.71506   0.77418   0.04808   0.00000  Uiso   1.00
H1030  H     0.68850   0.76952   0.06914   0.00000  Uiso   1.00
H1031  H     0.74213   0.75855   0.06559   0.00000  Uiso   1.00
H1032  H     0.70895   0.75587   0.01638   0.00000  Uiso   1.00
N1033  N     0.94483   0.82282   0.45963   0.00000  Uiso   1.00
H1034  H     0.97000   0.83987   0.47271   0.00000  Uiso   1.00
C1035  C     0.95161   0.77418   0.45192   0.00000  Uiso   1.00
H1036  H     0.97817   0.76952   0.43086   0.00000  Uiso   1.00
H1037  H     0.92454   0.75855   0.43441   0.00000  Uiso   1.00
H1038  H     0.95771   0.75587   0.48362   0.00000  Uiso   1.00
N1039  N     0.77748   0.71278   0.19346   0.00000  Uiso   1.00
H1040  H     0.77949   0.74736   0.18922   0.00000  Uiso   1.00
C1041  C     0.73559   0.69706   0.19661   0.00000  Uiso   1.00
H1042  H     0.72964   0.99991   0.17540   0.00000  Uiso   1.00
H1043  H     0.71415   0.72427   0.18432   0.00000  Uiso   1.00
H1044  H     0.72887   0.68839   0.23120   0.00000  Uiso   1.00
N1045  N     0.87439   0.95250   0.31810   0.00000  Uiso   1.00
H1046  H     0.89106   0.92304   0.31370   0.00000  Uiso   1.00
C1047  C     0.86123   0.96386   0.36183   0.00000  Uiso   1.00
H1048  H     0.88832   0.97240   0.38341   0.00000  Uiso   1.00
H1049  H     0.84521   0.93410   0.37609   0.00000  Uiso   1.00
H1050  H     0.83995   0.99373   0.36133   0.00000  Uiso   1.00
N1051  N     0.88918   0.71278   0.30654   0.00000  Uiso   1.00
H1052  H     0.88718   0.74735   0.31077   0.00000  Uiso   1.00
C1053  C     0.93107   0.69705   0.30339   0.00000  Uiso   1.00
H1054  H     0.93702   0.99991   0.32460   0.00000  Uiso   1.00
H1055  H     0.95251   0.72426   0.31569   0.00000  Uiso   1.00
H1056  H     0.93780   0.68839   0.26880   0.00000  Uiso   1.00
N1057  N     0.79227   0.95250   0.18190   0.00000  Uiso   1.00
H1058  H     0.77562   0.92303   0.18631   0.00000  Uiso   1.00
C1059  C     0.80543   0.96386   0.13818   0.00000  Uiso   1.00
H1060  H     0.77834   0.97239   0.11659   0.00000  Uiso   1.00
H1061  H     0.82146   0.93411   0.12392   0.00000  Uiso   1.00
H1062  H     0.82670   0.99374   0.13866   0.00000  Uiso   1.00
C1063  C     0.08749   0.16680   0.74989   0.00000  Uiso   1.00
C1064  C     0.24584   0.16680   0.75011   0.00000  Uiso   1.00
C1065  C     0.09213   0.16565   0.51922   0.00000  Uiso   1.00
C1066  C     0.24120   0.16565   0.98078   0.00000  Uiso   1.00
C1067  C     0.02113   0.12575   0.75043   0.00000  Uiso   1.00
C1068  C     0.31209   0.20919   0.75012   0.00000  Uiso   1.00
C1069  C     0.31220   0.12575   0.74957   0.00000  Uiso   1.00
C1070  C     0.02124   0.20919   0.74988   0.00000  Uiso   1.00
C1071  C     0.29061   0.16730   0.74999   0.00000  Uiso   1.00
C1072  C     0.04273   0.16730   0.75001   0.00000  Uiso   1.00
C1073  C     0.14112   0.02421   0.72147   0.00000  Uiso   1.00
C1074  C     0.18846   0.30864   0.78152   0.00000  Uiso   1.00
C1075  C     0.19221   0.02421   0.77853   0.00000  Uiso   1.00
C1076  C     0.14487   0.30864   0.71848   0.00000  Uiso   1.00
C1077  C     0.16608   0.16660   0.66448   0.00000  Uiso   1.00
C1078  C     0.16725   0.16660   0.83552   0.00000  Uiso   1.00
C1079  C     0.20373   0.17620   0.90915   0.00000  Uiso   1.00
C1080  C     0.12960   0.17620   0.59085   0.00000  Uiso   1.00
C1081  C     0.16753   0.16624   0.88407   0.00000  Uiso   1.00
C1082  C     0.16580   0.16624   0.61593   0.00000  Uiso   1.00
C1083  C     0.13169   0.15484   0.90587   0.00000  Uiso   1.00
C1084  C     0.20165   0.15484   0.59413   0.00000  Uiso   1.00
C1085  C     0.13005   0.16314   0.95162   0.00000  Uiso   1.00
C1086  C     0.20328   0.16314   0.54838   0.00000  Uiso   1.00
C1087  C     0.16691   0.16734   0.97677   0.00000  Uiso   1.00
C1088  C     0.16642   0.16734   0.52323   0.00000  Uiso   1.00
C1089  C     0.20432   0.16979   0.95544   0.00000  Uiso   1.00
C1090  C     0.12901   0.16979   0.54456   0.00000  Uiso   1.00
C1091  C     0.09263   0.16463   0.97291   0.00000  Uiso   1.00
C1092  C     0.24071   0.16463   0.52709   0.00000  Uiso   1.00
Cu1093 Cu    0.16667   0.21355   0.75000   0.00000  Uiso   1.00
Cu1094 Cu    0.16667   0.11978   0.75000   0.00000  Uiso   1.00
H1095  H     0.03687   0.09318   0.75215   0.00000  Uiso   1.00
H1096  H     0.29616   0.24191   0.75030   0.00000  Uiso   1.00
H1097  H     0.29647   0.09318   0.74786   0.00000  Uiso   1.00
H1098  H     0.03717   0.24191   0.74969   0.00000  Uiso   1.00
N1099  N     0.16667   0.28402   0.75000   0.00000  Uiso   1.00
N1100  N     0.16667   0.04931   0.75000   0.00000  Uiso   1.00
O1101  O     0.10655   0.20625   0.74999   0.00000  Uiso   1.00
O1102  O     0.22679   0.12709   0.75000   0.00000  Uiso   1.00
O1103  O     0.22679   0.20625   0.75000   0.00000  Uiso   1.00
O1104  O     0.10655   0.12709   0.74999   0.00000  Uiso   1.00
O1105  O     0.16666   0.20627   0.68513   0.00000  Uiso   1.00
O1106  O     0.16668   0.12707   0.81487   0.00000  Uiso   1.00
O1107  O     0.16668   0.20627   0.81487   0.00000  Uiso   1.00
O1108  O     0.16666   0.12707   0.68513   0.00000  Uiso   1.00
N1109  N     0.23722   0.19828   0.88907   0.00000  Uiso   1.00
H1110  H     0.25272   0.22276   0.90785   0.00000  Uiso   1.00
C1111  C     0.26277   0.17114   0.86133   0.00000  Uiso   1.00
H1112  H     0.29343   0.16603   0.87738   0.00000  Uiso   1.00
H1113  H     0.26739   0.19068   0.83089   0.00000  Uiso   1.00
H1114  H     0.24917   0.13703   0.85354   0.00000  Uiso   1.00
N1115  N     0.09611   0.19828   0.61093   0.00000  Uiso   1.00
H1116  H     0.08061   0.22276   0.59215   0.00000  Uiso   1.00
C1117  C     0.07056   0.17114   0.63867   0.00000  Uiso   1.00
H1118  H     0.03991   0.16603   0.62262   0.00000  Uiso   1.00
H1119  H     0.06594   0.19068   0.66910   0.00000  Uiso   1.00
H1120  H     0.08417   0.13704   0.64646   0.00000  Uiso   1.00
N1121  N     0.10153   0.12623   0.88450   0.00000  Uiso   1.00
H1122  H     0.08902   0.10088   0.90359   0.00000  Uiso   1.00
C1123  C     0.07328   0.14679   0.85263   0.00000  Uiso   1.00
H1124  H     0.04237   0.14954   0.86600   0.00000  Uiso   1.00
H1125  H     0.07067   0.12318   0.82426   0.00000  Uiso   1.00
H1126  H     0.08345   0.18152   0.84222   0.00000  Uiso   1.00
N1127  N     0.23180   0.12623   0.61550   0.00000  Uiso   1.00
H1128  H     0.24432   0.10088   0.59641   0.00000  Uiso   1.00
C1129  C     0.26005   0.14680   0.64737   0.00000  Uiso   1.00
H1130  H     0.29097   0.14955   0.63400   0.00000  Uiso   1.00
H1131  H     0.26266   0.12318   0.67574   0.00000  Uiso   1.00
H1132  H     0.24989   0.18152   0.65778   0.00000  Uiso   1.00
N1133  N     0.05540   0.16795   0.94753   0.00000  Uiso   1.00
H1134  H     0.03270   0.14635   0.95738   0.00000  Uiso   1.00
C1135  C     0.04211   0.21470   0.93859   0.00000  Uiso   1.00
H1136  H     0.01431   0.21426   0.91647   0.00000  Uiso   1.00
H1137  H     0.06633   0.23410   0.92189   0.00000  Uiso   1.00
H1138  H     0.03485   0.23252   0.96967   0.00000  Uiso   1.00
N1139  N     0.27794   0.16794   0.55247   0.00000  Uiso   1.00
H1140  H     0.30063   0.14635   0.54262   0.00000  Uiso   1.00
C1141  C     0.29122   0.21470   0.56141   0.00000  Uiso   1.00
H1142  H     0.31903   0.21426   0.58353   0.00000  Uiso   1.00
H1143  H     0.26701   0.23410   0.57811   0.00000  Uiso   1.00
H1144  H     0.29849   0.23252   0.53032   0.00000  Uiso   1.00
N1145  N     0.05517   0.15615   0.54037   0.00000  Uiso   1.00
H1146  H     0.03000   0.17320   0.52729   0.00000  Uiso   1.00
C1147  C     0.04839   0.10751   0.54808   0.00000  Uiso   1.00
H1148  H     0.02183   0.10285   0.56914   0.00000  Uiso   1.00
H1149  H     0.07546   0.09188   0.56559   0.00000  Uiso   1.00
H1150  H     0.04229   0.08920   0.51638   0.00000  Uiso   1.00
N1151  N     0.27816   0.15615   0.95963   0.00000  Uiso   1.00
H1152  H     0.30334   0.17320   0.97271   0.00000  Uiso   1.00
C1153  C     0.28494   0.10751   0.95192   0.00000  Uiso   1.00
H1154  H     0.31151   0.10285   0.93086   0.00000  Uiso   1.00
H1155  H     0.25787   0.09188   0.93441   0.00000  Uiso   1.00
H1156  H     0.29105   0.08920   0.98362   0.00000  Uiso   1.00
N1157  N     0.11081   0.04612   0.69346   0.00000  Uiso   1.00
H1158  H     0.11282   0.08069   0.68922   0.00000  Uiso   1.00
C1159  C     0.06893   0.03039   0.69661   0.00000  Uiso   1.00
H1160  H     0.06297   0.33325   0.67540   0.00000  Uiso   1.00
H1161  H     0.04748   0.05760   0.68432   0.00000  Uiso   1.00
H1162  H     0.06220   0.02172   0.73120   0.00000  Uiso   1.00
N1163  N     0.20772   0.28583   0.81810   0.00000  Uiso   1.00
H1164  H     0.22439   0.25637   0.81370   0.00000  Uiso   1.00
C1165  C     0.19456   0.29719   0.86183   0.00000  Uiso   1.00
H1166  H     0.22166   0.30573   0.88341   0.00000  Uiso   1.00
H1167  H     0.17855   0.26744   0.87609   0.00000  Uiso   1.00
H1168  H     0.17328   0.32706   0.86133   0.00000  Uiso   1.00
N1169  N     0.22252   0.04611   0.80654   0.00000  Uiso   1.00
H1170  H     0.22051   0.08069   0.81077   0.00000  Uiso   1.00
C1171  C     0.26440   0.03039   0.80339   0.00000  Uiso   1.00
H1172  H     0.27036   0.33324   0.82460   0.00000  Uiso   1.00
H1173  H     0.28585   0.05760   0.81569   0.00000  Uiso   1.00
H1174  H     0.27113   0.02172   0.76880   0.00000  Uiso   1.00
N1175  N     0.12560   0.28583   0.68190   0.00000  Uiso   1.00
H1176  H     0.10895   0.25637   0.68631   0.00000  Uiso   1.00
C1177  C     0.13877   0.29719   0.63818   0.00000  Uiso   1.00
H1178  H     0.11167   0.30572   0.61659   0.00000  Uiso   1.00
H1179  H     0.15479   0.26744   0.62392   0.00000  Uiso   1.00
H1180  H     0.16004   0.32707   0.63866   0.00000  Uiso   1.00
C1181  C     0.42082   0.16680   0.74989   0.00000  Uiso   1.00
C1182  C     0.57918   0.16680   0.75011   0.00000  Uiso   1.00
C1183  C     0.42546   0.16565   0.51922   0.00000  Uiso   1.00
C1184  C     0.57454   0.16565   0.98078   0.00000  Uiso   1.00
C1185  C     0.35446   0.12575   0.75043   0.00000  Uiso   1.00
C1186  C     0.64542   0.20919   0.75012   0.00000  Uiso   1.00
C1187  C     0.64554   0.12575   0.74957   0.00000  Uiso   1.00
C1188  C     0.35458   0.20919   0.74988   0.00000  Uiso   1.00
C1189  C     0.62394   0.16730   0.74999   0.00000  Uiso   1.00
C1190  C     0.37606   0.16730   0.75001   0.00000  Uiso   1.00
C1191  C     0.47446   0.02421   0.72147   0.00000  Uiso   1.00
C1192  C     0.52179   0.30864   0.78152   0.00000  Uiso   1.00
C1193  C     0.52554   0.02421   0.77853   0.00000  Uiso   1.00
C1194  C     0.47821   0.30864   0.71848   0.00000  Uiso   1.00
C1195  C     0.49941   0.16660   0.66448   0.00000  Uiso   1.00
C1196  C     0.50059   0.16660   0.83552   0.00000  Uiso   1.00
C1197  C     0.53707   0.17620   0.90915   0.00000  Uiso   1.00
C1198  C     0.46294   0.17620   0.59085   0.00000  Uiso   1.00
C1199  C     0.50087   0.16624   0.88407   0.00000  Uiso   1.00
C1200  C     0.49913   0.16624   0.61593   0.00000  Uiso   1.00
C1201  C     0.46502   0.15484   0.90587   0.00000  Uiso   1.00
C1202  C     0.53498   0.15484   0.59413   0.00000  Uiso   1.00
C1203  C     0.46339   0.16314   0.95162   0.00000  Uiso   1.00
C1204  C     0.53661   0.16314   0.54838   0.00000  Uiso   1.00
C1205  C     0.50024   0.16734   0.97677   0.00000  Uiso   1.00
C1206  C     0.49976   0.16734   0.52323   0.00000  Uiso   1.00
C1207  C     0.53765   0.16979   0.95544   0.00000  Uiso   1.00
C1208  C     0.46235   0.16979   0.54456   0.00000  Uiso   1.00
C1209  C     0.42596   0.16463   0.97291   0.00000  Uiso   1.00
C1210  C     0.57404   0.16463   0.52709   0.00000  Uiso   1.00
Cu1211 Cu    0.50000   0.21355   0.75000   0.00000  Uiso   1.00
Cu1212 Cu    0.50000   0.11978   0.75000   0.00000  Uiso   1.00
H1213  H     0.37020   0.09318   0.75215   0.00000  Uiso   1.00
H1214  H     0.62950   0.24191   0.75030   0.00000  Uiso   1.00
H1215  H     0.62980   0.09318   0.74786   0.00000  Uiso   1.00
H1216  H     0.37050   0.24191   0.74969   0.00000  Uiso   1.00
N1217  N     0.50000   0.28402   0.75000   0.00000  Uiso   1.00
N1218  N     0.50000   0.04931   0.75000   0.00000  Uiso   1.00
O1219  O     0.43988   0.20625   0.74999   0.00000  Uiso   1.00
O1220  O     0.56012   0.12709   0.75000   0.00000  Uiso   1.00
O1221  O     0.56012   0.20625   0.75000   0.00000  Uiso   1.00
O1222  O     0.43988   0.12709   0.74999   0.00000  Uiso   1.00
O1223  O     0.49999   0.20627   0.68513   0.00000  Uiso   1.00
O1224  O     0.50001   0.12707   0.81487   0.00000  Uiso   1.00
O1225  O     0.50001   0.20627   0.81487   0.00000  Uiso   1.00
O1226  O     0.49999   0.12707   0.68513   0.00000  Uiso   1.00
N1227  N     0.57056   0.19828   0.88907   0.00000  Uiso   1.00
H1228  H     0.58605   0.22276   0.90785   0.00000  Uiso   1.00
C1229  C     0.59610   0.17114   0.86133   0.00000  Uiso   1.00
H1230  H     0.62676   0.16603   0.87738   0.00000  Uiso   1.00
H1231  H     0.60072   0.19068   0.83089   0.00000  Uiso   1.00
H1232  H     0.58250   0.13703   0.85354   0.00000  Uiso   1.00
N1233  N     0.42944   0.19828   0.61093   0.00000  Uiso   1.00
H1234  H     0.41395   0.22276   0.59215   0.00000  Uiso   1.00
C1235  C     0.40390   0.17114   0.63867   0.00000  Uiso   1.00
H1236  H     0.37324   0.16603   0.62262   0.00000  Uiso   1.00
H1237  H     0.39928   0.19068   0.66910   0.00000  Uiso   1.00
H1238  H     0.41750   0.13704   0.64646   0.00000  Uiso   1.00
N1239  N     0.43487   0.12623   0.88450   0.00000  Uiso   1.00
H1240  H     0.42235   0.10088   0.90359   0.00000  Uiso   1.00
C1241  C     0.40662   0.14679   0.85263   0.00000  Uiso   1.00
H1242  H     0.37570   0.14954   0.86600   0.00000  Uiso   1.00
H1243  H     0.40401   0.12318   0.82426   0.00000  Uiso   1.00
H1244  H     0.41678   0.18152   0.84222   0.00000  Uiso   1.00
N1245  N     0.56513   0.12623   0.61550   0.00000  Uiso   1.00
H1246  H     0.57765   0.10088   0.59641   0.00000  Uiso   1.00
C1247  C     0.59338   0.14680   0.64737   0.00000  Uiso   1.00
H1248  H     0.62430   0.14955   0.63400   0.00000  Uiso   1.00
H1249  H     0.59600   0.12318   0.67574   0.00000  Uiso   1.00
H1250  H     0.58322   0.18152   0.65778   0.00000  Uiso   1.00
N1251  N     0.38873   0.16795   0.94753   0.00000  Uiso   1.00
H1252  H     0.36603   0.14635   0.95738   0.00000  Uiso   1.00
C1253  C     0.37545   0.21470   0.93859   0.00000  Uiso   1.00
H1254  H     0.34764   0.21426   0.91647   0.00000  Uiso   1.00
H1255  H     0.39966   0.23410   0.92189   0.00000  Uiso   1.00
H1256  H     0.36818   0.23252   0.96967   0.00000  Uiso   1.00
N1257  N     0.61127   0.16794   0.55247   0.00000  Uiso   1.00
H1258  H     0.63397   0.14635   0.54262   0.00000  Uiso   1.00
C1259  C     0.62455   0.21470   0.56141   0.00000  Uiso   1.00
H1260  H     0.65236   0.21426   0.58353   0.00000  Uiso   1.00
H1261  H     0.60034   0.23410   0.57811   0.00000  Uiso   1.00
H1262  H     0.63182   0.23252   0.53032   0.00000  Uiso   1.00
N1263  N     0.38851   0.15615   0.54037   0.00000  Uiso   1.00
H1264  H     0.36333   0.17320   0.52729   0.00000  Uiso   1.00
C1265  C     0.38173   0.10751   0.54808   0.00000  Uiso   1.00
H1266  H     0.35516   0.10285   0.56914   0.00000  Uiso   1.00
H1267  H     0.40879   0.09188   0.56559   0.00000  Uiso   1.00
H1268  H     0.37562   0.08920   0.51638   0.00000  Uiso   1.00
N1269  N     0.61149   0.15615   0.95963   0.00000  Uiso   1.00
H1270  H     0.63667   0.17320   0.97271   0.00000  Uiso   1.00
C1271  C     0.61828   0.10751   0.95192   0.00000  Uiso   1.00
H1272  H     0.64484   0.10285   0.93086   0.00000  Uiso   1.00
H1273  H     0.59121   0.09188   0.93441   0.00000  Uiso   1.00
H1274  H     0.62438   0.08920   0.98362   0.00000  Uiso   1.00
N1275  N     0.44415   0.04612   0.69346   0.00000  Uiso   1.00
H1276  H     0.44615   0.08069   0.68922   0.00000  Uiso   1.00
C1277  C     0.40226   0.03039   0.69661   0.00000  Uiso   1.00
H1278  H     0.39631   0.33325   0.67540   0.00000  Uiso   1.00
H1279  H     0.38082   0.05760   0.68432   0.00000  Uiso   1.00
H1280  H     0.39553   0.02172   0.73120   0.00000  Uiso   1.00
N1281  N     0.54106   0.28583   0.81810   0.00000  Uiso   1.00
H1282  H     0.55772   0.25637   0.81370   0.00000  Uiso   1.00
C1283  C     0.52790   0.29719   0.86183   0.00000  Uiso   1.00
H1284  H     0.55499   0.30573   0.88341   0.00000  Uiso   1.00
H1285  H     0.51188   0.26744   0.87609   0.00000  Uiso   1.00
H1286  H     0.50661   0.32706   0.86133   0.00000  Uiso   1.00
N1287  N     0.55585   0.04611   0.80654   0.00000  Uiso   1.00
H1288  H     0.55385   0.08069   0.81077   0.00000  Uiso   1.00
C1289  C     0.59774   0.03039   0.80339   0.00000  Uiso   1.00
H1290  H     0.60369   0.33324   0.82460   0.00000  Uiso   1.00
H1291  H     0.61918   0.05760   0.81569   0.00000  Uiso   1.00
H1292  H     0.60447   0.02172   0.76880   0.00000  Uiso   1.00
N1293  N     0.45894   0.28583   0.68190   0.00000  Uiso   1.00
H1294  H     0.44229   0.25637   0.68631   0.00000  Uiso   1.00
C1295  C     0.47210   0.29719   0.63818   0.00000  Uiso   1.00
H1296  H     0.44500   0.30572   0.61659   0.00000  Uiso   1.00
H1297  H     0.48812   0.26744   0.62392   0.00000  Uiso   1.00
H1298  H     0.49337   0.32707   0.63866   0.00000  Uiso   1.00
C1299  C     0.75416   0.16680   0.74989   0.00000  Uiso   1.00
C1300  C     0.91251   0.16680   0.75011   0.00000  Uiso   1.00
C1301  C     0.75880   0.16565   0.51922   0.00000  Uiso   1.00
C1302  C     0.90787   0.16565   0.98078   0.00000  Uiso   1.00
C1303  C     0.68780   0.12575   0.75043   0.00000  Uiso   1.00
C1304  C     0.97876   0.20919   0.75012   0.00000  Uiso   1.00
C1305  C     0.97887   0.12575   0.74957   0.00000  Uiso   1.00
C1306  C     0.68791   0.20919   0.74988   0.00000  Uiso   1.00
C1307  C     0.95727   0.16730   0.74999   0.00000  Uiso   1.00
C1308  C     0.70939   0.16730   0.75001   0.00000  Uiso   1.00
C1309  C     0.80779   0.02421   0.72147   0.00000  Uiso   1.00
C1310  C     0.85513   0.30864   0.78152   0.00000  Uiso   1.00
C1311  C     0.85888   0.02421   0.77853   0.00000  Uiso   1.00
C1312  C     0.81154   0.30864   0.71848   0.00000  Uiso   1.00
C1313  C     0.83275   0.16660   0.66448   0.00000  Uiso   1.00
C1314  C     0.83392   0.16660   0.83552   0.00000  Uiso   1.00
C1315  C     0.87040   0.17620   0.90915   0.00000  Uiso   1.00
C1316  C     0.79627   0.17620   0.59085   0.00000  Uiso   1.00
C1317  C     0.83420   0.16624   0.88407   0.00000  Uiso   1.00
C1318  C     0.83247   0.16624   0.61593   0.00000  Uiso   1.00
C1319  C     0.79835   0.15484   0.90587   0.00000  Uiso   1.00
C1320  C     0.86831   0.15484   0.59413   0.00000  Uiso   1.00
C1321  C     0.79672   0.16314   0.95162   0.00000  Uiso   1.00
C1322  C     0.86995   0.16314   0.54838   0.00000  Uiso   1.00
C1323  C     0.83358   0.16734   0.97677   0.00000  Uiso   1.00
C1324  C     0.83309   0.16734   0.52323   0.00000  Uiso   1.00
C1325  C     0.87099   0.16979   0.95544   0.00000  Uiso   1.00
C1326  C     0.79568   0.16979   0.54456   0.00000  Uiso   1.00
C1327  C     0.75929   0.16463   0.97291   0.00000  Uiso   1.00
C1328  C     0.90737   0.16463   0.52709   0.00000  Uiso   1.00
Cu1329 Cu    0.83333   0.21355   0.75000   0.00000  Uiso   1.00
Cu1330 Cu    0.83333   0.11978   0.75000   0.00000  Uiso   1.00
H1331  H     0.70353   0.09318   0.75215   0.00000  Uiso   1.00
H1332  H     0.96283   0.24191   0.75030   0.00000  Uiso   1.00
H1333  H     0.96313   0.09318   0.74786   0.00000  Uiso   1.00
H1334  H     0.70383   0.24191   0.74969   0.00000  Uiso   1.00
N1335  N     0.83333   0.28402   0.75000   0.00000  Uiso   1.00
N1336  N     0.83333   0.04931   0.75000   0.00000  Uiso   1.00
O1337  O     0.77321   0.20625   0.74999   0.00000  Uiso   1.00
O1338  O     0.89345   0.12709   0.75000   0.00000  Uiso   1.00
O1339  O     0.89345   0.20625   0.75000   0.00000  Uiso   1.00
O1340  O     0.77321   0.12709   0.74999   0.00000  Uiso   1.00
O1341  O     0.83332   0.20627   0.68513   0.00000  Uiso   1.00
O1342  O     0.83334   0.12707   0.81487   0.00000  Uiso   1.00
O1343  O     0.83334   0.20627   0.81487   0.00000  Uiso   1.00
O1344  O     0.83332   0.12707   0.68513   0.00000  Uiso   1.00
N1345  N     0.90389   0.19828   0.88907   0.00000  Uiso   1.00
H1346  H     0.91939   0.22276   0.90785   0.00000  Uiso   1.00
C1347  C     0.92944   0.17114   0.86133   0.00000  Uiso   1.00
H1348  H     0.96009   0.16603   0.87738   0.00000  Uiso   1.00
H1349  H     0.93406   0.19068   0.83089   0.00000  Uiso   1.00
H1350  H     0.91583   0.13703   0.85354   0.00000  Uiso   1.00
N1351  N     0.76278   0.19828   0.61093   0.00000  Uiso   1.00
H1352  H     0.74728   0.22276   0.59215   0.00000  Uiso   1.00
C1353  C     0.73723   0.17114   0.63867   0.00000  Uiso   1.00
H1354  H     0.70657   0.16603   0.62262   0.00000  Uiso   1.00
H1355  H     0.73261   0.19068   0.66910   0.00000  Uiso   1.00
H1356  H     0.75083   0.13704   0.64646   0.00000  Uiso   1.00
N1357  N     0.76820   0.12623   0.88450   0.00000  Uiso   1.00
H1358  H     0.75568   0.10088   0.90359   0.00000  Uiso   1.00
C1359  C     0.73995   0.14679   0.85263   0.00000  Uiso   1.00
H1360  H     0.70903   0.14954   0.86600   0.00000  Uiso   1.00
H1361  H     0.73734   0.12318   0.82426   0.00000  Uiso   1.00
H1362  H     0.75011   0.18152   0.84222   0.00000  Uiso   1.00
N1363  N     0.89847   0.12623   0.61550   0.00000  Uiso   1.00
H1364  H     0.91098   0.10088   0.59641   0.00000  Uiso   1.00
C1365  C     0.92672   0.14680   0.64737   0.00000  Uiso   1.00
H1366  H     0.95763   0.14955   0.63400   0.00000  Uiso   1.00
H1367  H     0.92933   0.12318   0.67574   0.00000  Uiso   1.00
H1368  H     0.91656   0.18152   0.65778   0.00000  Uiso   1.00
N1369  N     0.72206   0.16795   0.94753   0.00000  Uiso   1.00
H1370  H     0.69937   0.14635   0.95738   0.00000  Uiso   1.00
C1371  C     0.70878   0.21470   0.93859   0.00000  Uiso   1.00
H1372  H     0.68097   0.21426   0.91647   0.00000  Uiso   1.00
H1373  H     0.73299   0.23410   0.92189   0.00000  Uiso   1.00
H1374  H     0.70151   0.23252   0.96967   0.00000  Uiso   1.00
N1375  N     0.94460   0.16794   0.55247   0.00000  Uiso   1.00
H1376  H     0.96730   0.14635   0.54262   0.00000  Uiso   1.00
C1377  C     0.95789   0.21470   0.56141   0.00000  Uiso   1.00
H1378  H     0.98569   0.21426   0.58353   0.00000  Uiso   1.00
H1379  H     0.93367   0.23410   0.57811   0.00000  Uiso   1.00
H1380  H     0.96515   0.23252   0.53032   0.00000  Uiso   1.00
N1381  N     0.72184   0.15615   0.54037   0.00000  Uiso   1.00
H1382  H     0.69666   0.17320   0.52729   0.00000  Uiso   1.00
C1383  C     0.71506   0.10751   0.54808   0.00000  Uiso   1.00
H1384  H     0.68850   0.10285   0.56914   0.00000  Uiso   1.00
H1385  H     0.74213   0.09188   0.56559   0.00000  Uiso   1.00
H1386  H     0.70895   0.08920   0.51638   0.00000  Uiso   1.00
N1387  N     0.94483   0.15615   0.95963   0.00000  Uiso   1.00
H1388  H     0.97000   0.17320   0.97271   0.00000  Uiso   1.00
C1389  C     0.95161   0.10751   0.95192   0.00000  Uiso   1.00
H1390  H     0.97817   0.10285   0.93086   0.00000  Uiso   1.00
H1391  H     0.92454   0.09188   0.93441   0.00000  Uiso   1.00
H1392  H     0.95771   0.08920   0.98362   0.00000  Uiso   1.00
N1393  N     0.77748   0.04612   0.69346   0.00000  Uiso   1.00
H1394  H     0.77949   0.08069   0.68922   0.00000  Uiso   1.00
C1395  C     0.73559   0.03039   0.69661   0.00000  Uiso   1.00
H1396  H     0.72964   0.33325   0.67540   0.00000  Uiso   1.00
H1397  H     0.71415   0.05760   0.68432   0.00000  Uiso   1.00
H1398  H     0.72887   0.02172   0.73120   0.00000  Uiso   1.00
N1399  N     0.87439   0.28583   0.81810   0.00000  Uiso   1.00
H1400  H     0.89106   0.25637   0.81370   0.00000  Uiso   1.00
C1401  C     0.86123   0.29719   0.86183   0.00000  Uiso   1.00
H1402  H     0.88832   0.30573   0.88341   0.00000  Uiso   1.00
H1403  H     0.84521   0.26744   0.87609   0.00000  Uiso   1.00
H1404  H     0.83995   0.32706   0.86133   0.00000  Uiso   1.00
N1405  N     0.88918   0.04611   0.80654   0.00000  Uiso   1.00
H1406  H     0.88718   0.08069   0.81077   0.00000  Uiso   1.00
C1407  C     0.93107   0.03039   0.80339   0.00000  Uiso   1.00
H1408  H     0.93702   0.33324   0.82460   0.00000  Uiso   1.00
H1409  H     0.95251   0.05760   0.81569   0.00000  Uiso   1.00
H1410  H     0.93780   0.02172   0.76880   0.00000  Uiso   1.00
N1411  N     0.79227   0.28583   0.68190   0.00000  Uiso   1.00
H1412  H     0.77562   0.25637   0.68631   0.00000  Uiso   1.00
C1413  C     0.80543   0.29719   0.63818   0.00000  Uiso   1.00
H1414  H     0.77834   0.30572   0.61659   0.00000  Uiso   1.00
H1415  H     0.82146   0.26744   0.62392   0.00000  Uiso   1.00
H1416  H     0.82670   0.32707   0.63866   0.00000  Uiso   1.00
C1417  C     0.08749   0.50013   0.74989   0.00000  Uiso   1.00
C1418  C     0.24584   0.50013   0.75011   0.00000  Uiso   1.00
C1419  C     0.09213   0.49899   0.51922   0.00000  Uiso   1.00
C1420  C     0.24120   0.49899   0.98078   0.00000  Uiso   1.00
C1421  C     0.02113   0.45909   0.75043   0.00000  Uiso   1.00
C1422  C     0.31209   0.54253   0.75012   0.00000  Uiso   1.00
C1423  C     0.31220   0.45909   0.74957   0.00000  Uiso   1.00
C1424  C     0.02124   0.54253   0.74988   0.00000  Uiso   1.00
C1425  C     0.29061   0.50064   0.74999   0.00000  Uiso   1.00
C1426  C     0.04273   0.50064   0.75001   0.00000  Uiso   1.00
C1427  C     0.14112   0.35755   0.72147   0.00000  Uiso   1.00
C1428  C     0.18846   0.64198   0.78152   0.00000  Uiso   1.00
C1429  C     0.19221   0.35755   0.77853   0.00000  Uiso   1.00
C1430  C     0.14487   0.64198   0.71848   0.00000  Uiso   1.00
C1431  C     0.16608   0.49993   0.66448   0.00000  Uiso   1.00
C1432  C     0.16725   0.49993   0.83552   0.00000  Uiso   1.00
C1433  C     0.20373   0.50953   0.90915   0.00000  Uiso   1.00
C1434  C     0.12960   0.50953   0.59085   0.00000  Uiso   1.00
C1435  C     0.16753   0.49958   0.88407   0.00000  Uiso   1.00
C1436  C     0.16580   0.49958   0.61593   0.00000  Uiso   1.00
C1437  C     0.13169   0.48818   0.90587   0.00000  Uiso   1.00
C1438  C     0.20165   0.48818   0.59413   0.00000  Uiso   1.00
C1439  C     0.13005   0.49647   0.95162   0.00000  Uiso   1.00
C1440  C     0.20328   0.49647   0.54838   0.00000  Uiso   1.00
C1441  C     0.16691   0.50067   0.97677   0.00000  Uiso   1.00
C1442  C     0.16642   0.50067   0.52323   0.00000  Uiso   1.00
C1443  C     0.20432   0.50312   0.95544   0.00000  Uiso   1.00
C1444  C     0.12901   0.50312   0.54456   0.00000  Uiso   1.00
C1445  C     0.09263   0.49796   0.97291   0.00000  Uiso   1.00
C1446  C     0.24071   0.49796   0.52709   0.00000  Uiso   1.00
Cu1447 Cu    0.16667   0.54689   0.75000   0.00000  Uiso   1.00
Cu1448 Cu    0.16667   0.45311   0.75000   0.00000  Uiso   1.00
H1449  H     0.03687   0.42651   0.75215   0.00000  Uiso   1.00
H1450  H     0.29616   0.57524   0.75030   0.00000  Uiso   1.00
H1451  H     0.29647   0.42651   0.74786   0.00000  Uiso   1.00
H1452  H     0.03717   0.57524   0.74969   0.00000  Uiso   1.00
N1453  N     0.16667   0.61736   0.75000   0.00000  Uiso   1.00
N1454  N     0.16667   0.38264   0.75000   0.00000  Uiso   1.00
O1455  O     0.10655   0.53958   0.74999   0.00000  Uiso   1.00
O1456  O     0.22679   0.46042   0.75000   0.00000  Uiso   1.00
O1457  O     0.22679   0.53958   0.75000   0.00000  Uiso   1.00
O1458  O     0.10655   0.46042   0.74999   0.00000  Uiso   1.00
O1459  O     0.16666   0.53960   0.68513   0.00000  Uiso   1.00
O1460  O     0.16668   0.46040   0.81487   0.00000  Uiso   1.00
O1461  O     0.16668   0.53960   0.81487   0.00000  Uiso   1.00
O1462  O     0.16666   0.46040   0.68513   0.00000  Uiso   1.00
N1463  N     0.23722   0.53161   0.88907   0.00000  Uiso   1.00
H1464  H     0.25272   0.55610   0.90785   0.00000  Uiso   1.00
C1465  C     0.26277   0.50447   0.86133   0.00000  Uiso   1.00
H1466  H     0.29343   0.49936   0.87738   0.00000  Uiso   1.00
H1467  H     0.26739   0.52401   0.83089   0.00000  Uiso   1.00
H1468  H     0.24917   0.47037   0.85354   0.00000  Uiso   1.00
N1469  N     0.09611   0.53162   0.61093   0.00000  Uiso   1.00
H1470  H     0.08061   0.55610   0.59215   0.00000  Uiso   1.00
C1471  C     0.07056   0.50448   0.63867   0.00000  Uiso   1.00
H1472  H     0.03991   0.49936   0.62262   0.00000  Uiso   1.00
H1473  H     0.06594   0.52401   0.66910   0.00000  Uiso   1.00
H1474  H     0.08417   0.47037   0.64646   0.00000  Uiso   1.00
N1475  N     0.10153   0.45956   0.88450   0.00000  Uiso   1.00
H1476  H     0.08902   0.43422   0.90359   0.00000  Uiso   1.00
C1477  C     0.07328   0.48013   0.85263   0.00000  Uiso   1.00
H1478  H     0.04237   0.48288   0.86600   0.00000  Uiso   1.00
H1479  H     0.07067   0.45651   0.82426   0.00000  Uiso   1.00
H1480  H     0.08345   0.51485   0.84222   0.00000  Uiso   1.00
N1481  N     0.23180   0.45956   0.61550   0.00000  Uiso   1.00
H1482  H     0.24432   0.43422   0.59641   0.00000  Uiso   1.00
C1483  C     0.26005   0.48013   0.64737   0.00000  Uiso   1.00
H1484  H     0.29097   0.48288   0.63400   0.00000  Uiso   1.00
H1485  H     0.26266   0.45651   0.67574   0.00000  Uiso   1.00
H1486  H     0.24989   0.51485   0.65778   0.00000  Uiso   1.00
N1487  N     0.05540   0.50128   0.94753   0.00000  Uiso   1.00
H1488  H     0.03270   0.47968   0.95738   0.00000  Uiso   1.00
C1489  C     0.04211   0.54804   0.93859   0.00000  Uiso   1.00
H1490  H     0.01431   0.54759   0.91647   0.00000  Uiso   1.00
H1491  H     0.06633   0.56743   0.92189   0.00000  Uiso   1.00
H1492  H     0.03485   0.56585   0.96967   0.00000  Uiso   1.00
N1493  N     0.27794   0.50128   0.55247   0.00000  Uiso   1.00
H1494  H     0.30063   0.47968   0.54262   0.00000  Uiso   1.00
C1495  C     0.29122   0.54804   0.56141   0.00000  Uiso   1.00
H1496  H     0.31903   0.54759   0.58353   0.00000  Uiso   1.00
H1497  H     0.26701   0.56743   0.57811   0.00000  Uiso   1.00
H1498  H     0.29849   0.56585   0.53032   0.00000  Uiso   1.00
N1499  N     0.05517   0.48949   0.54037   0.00000  Uiso   1.00
H1500  H     0.03000   0.50653   0.52729   0.00000  Uiso   1.00
C1501  C     0.04839   0.44084   0.54808   0.00000  Uiso   1.00
H1502  H     0.02183   0.43619   0.56914   0.00000  Uiso   1.00
H1503  H     0.07546   0.42522   0.56559   0.00000  Uiso   1.00
H1504  H     0.04229   0.42254   0.51638   0.00000  Uiso   1.00
N1505  N     0.27816   0.48949   0.95963   0.00000  Uiso   1.00
H1506  H     0.30334   0.50653   0.97271   0.00000  Uiso   1.00
C1507  C     0.28494   0.44084   0.95192   0.00000  Uiso   1.00
H1508  H     0.31151   0.43619   0.93086   0.00000  Uiso   1.00
H1509  H     0.25787   0.42522   0.93441   0.00000  Uiso   1.00
H1510  H     0.29105   0.42253   0.98362   0.00000  Uiso   1.00
N1511  N     0.11081   0.37945   0.69346   0.00000  Uiso   1.00
H1512  H     0.11282   0.41402   0.68922   0.00000  Uiso   1.00
C1513  C     0.06893   0.36372   0.69661   0.00000  Uiso   1.00
H1514  H     0.06297   0.66658   0.67540   0.00000  Uiso   1.00
H1515  H     0.04748   0.39093   0.68432   0.00000  Uiso   1.00
H1516  H     0.06220   0.35505   0.73120   0.00000  Uiso   1.00
N1517  N     0.20772   0.61916   0.81810   0.00000  Uiso   1.00
H1518  H     0.22439   0.58971   0.81370   0.00000  Uiso   1.00
C1519  C     0.19456   0.63053   0.86183   0.00000  Uiso   1.00
H1520  H     0.22166   0.63907   0.88341   0.00000  Uiso   1.00
H1521  H     0.17855   0.60077   0.87609   0.00000  Uiso   1.00
H1522  H     0.17328   0.66040   0.86133   0.00000  Uiso   1.00
N1523  N     0.22252   0.37945   0.80654   0.00000  Uiso   1.00
H1524  H     0.22051   0.41402   0.81077   0.00000  Uiso   1.00
C1525  C     0.26440   0.36372   0.80339   0.00000  Uiso   1.00
H1526  H     0.27036   0.66657   0.82460   0.00000  Uiso   1.00
H1527  H     0.28585   0.39093   0.81569   0.00000  Uiso   1.00
H1528  H     0.27113   0.35505   0.76880   0.00000  Uiso   1.00
N1529  N     0.12560   0.61917   0.68190   0.00000  Uiso   1.00
H1530  H     0.10895   0.58970   0.68631   0.00000  Uiso   1.00
C1531  C     0.13877   0.63053   0.63818   0.00000  Uiso   1.00
H1532  H     0.11167   0.63905   0.61659   0.00000  Uiso   1.00
H1533  H     0.15479   0.60078   0.62392   0.00000  Uiso   1.00
H1534  H     0.16004   0.66041   0.63866   0.00000  Uiso   1.00
C1535  C     0.42082   0.50013   0.74989   0.00000  Uiso   1.00
C1536  C     0.57918   0.50013   0.75011   0.00000  Uiso   1.00
C1537  C     0.42546   0.49899   0.51922   0.00000  Uiso   1.00
C1538  C     0.57454   0.49899   0.98078   0.00000  Uiso   1.00
C1539  C     0.35446   0.45909   0.75043   0.00000  Uiso   1.00
C1540  C     0.64542   0.54253   0.75012   0.00000  Uiso   1.00
C1541  C     0.64554   0.45909   0.74957   0.00000  Uiso   1.00
C1542  C     0.35458   0.54253   0.74988   0.00000  Uiso   1.00
C1543  C     0.62394   0.50064   0.74999   0.00000  Uiso   1.00
C1544  C     0.37606   0.50064   0.75001   0.00000  Uiso   1.00
C1545  C     0.47446   0.35755   0.72147   0.00000  Uiso   1.00
C1546  C     0.52179   0.64198   0.78152   0.00000  Uiso   1.00
C1547  C     0.52554   0.35755   0.77853   0.00000  Uiso   1.00
C1548  C     0.47821   0.64198   0.71848   0.00000  Uiso   1.00
C1549  C     0.49941   0.49993   0.66448   0.00000  Uiso   1.00
C1550  C     0.50059   0.49993   0.83552   0.00000  Uiso   1.00
C1551  C     0.53707   0.50953   0.90915   0.00000  Uiso   1.00
C1552  C     0.46294   0.50953   0.59085   0.00000  Uiso   1.00
C1553  C     0.50087   0.49958   0.88407   0.00000  Uiso   1.00
C1554  C     0.49913   0.49958   0.61593   0.00000  Uiso   1.00
C1555  C     0.46502   0.48818   0.90587   0.00000  Uiso   1.00
C1556  C     0.53498   0.48818   0.59413   0.00000  Uiso   1.00
C1557  C     0.46339   0.49647   0.95162   0.00000  Uiso   1.00
C1558  C     0.53661   0.49647   0.54838   0.00000  Uiso   1.00
C1559  C     0.50024   0.50067   0.97677   0.00000  Uiso   1.00
C1560  C     0.49976   0.50067   0.52323   0.00000  Uiso   1.00
C1561  C     0.53765   0.50312   0.95544   0.00000  Uiso   1.00
C1562  C     0.46235   0.50312   0.54456   0.00000  Uiso   1.00
C1563  C     0.42596   0.49796   0.97291   0.00000  Uiso   1.00
C1564  C     0.57404   0.49796   0.52709   0.00000  Uiso   1.00
Cu1565 Cu    0.50000   0.54689   0.75000   0.00000  Uiso   1.00
Cu1566 Cu    0.50000   0.45311   0.75000   0.00000  Uiso   1.00
H1567  H     0.37020   0.42651   0.75215   0.00000  Uiso   1.00
H1568  H     0.62950   0.57524   0.75030   0.00000  Uiso   1.00
H1569  H     0.62980   0.42651   0.74786   0.00000  Uiso   1.00
H1570  H     0.37050   0.57524   0.74969   0.00000  Uiso   1.00
N1571  N     0.50000   0.61736   0.75000   0.00000  Uiso   1.00
N1572  N     0.50000   0.38264   0.75000   0.00000  Uiso   1.00
O1573  O     0.43988   0.53958   0.74999   0.00000  Uiso   1.00
O1574  O     0.56012   0.46042   0.75000   0.00000  Uiso   1.00
O1575  O     0.56012   0.53958   0.75000   0.00000  Uiso   1.00
O1576  O     0.43988   0.46042   0.74999   0.00000  Uiso   1.00
O1577  O     0.49999   0.53960   0.68513   0.00000  Uiso   1.00
O1578  O     0.50001   0.46040   0.81487   0.00000  Uiso   1.00
O1579  O     0.50001   0.53960   0.81487   0.00000  Uiso   1.00
O1580  O     0.49999   0.46040   0.68513   0.00000  Uiso   1.00
N1581  N     0.57056   0.53161   0.88907   0.00000  Uiso   1.00
H1582  H     0.58605   0.55610   0.90785   0.00000  Uiso   1.00
C1583  C     0.59610   0.50447   0.86133   0.00000  Uiso   1.00
H1584  H     0.62676   0.49936   0.87738   0.00000  Uiso   1.00
H1585  H     0.60072   0.52401   0.83089   0.00000  Uiso   1.00
H1586  H     0.58250   0.47037   0.85354   0.00000  Uiso   1.00
N1587  N     0.42944   0.53162   0.61093   0.00000  Uiso   1.00
H1588  H     0.41395   0.55610   0.59215   0.00000  Uiso   1.00
C1589  C     0.40390   0.50448   0.63867   0.00000  Uiso   1.00
H1590  H     0.37324   0.49936   0.62262   0.00000  Uiso   1.00
H1591  H     0.39928   0.52401   0.66910   0.00000  Uiso   1.00
H1592  H     0.41750   0.47037   0.64646   0.00000  Uiso   1.00
N1593  N     0.43487   0.45956   0.88450   0.00000  Uiso   1.00
H1594  H     0.42235   0.43422   0.90359   0.00000  Uiso   1.00
C1595  C     0.40662   0.48013   0.85263   0.00000  Uiso   1.00
H1596  H     0.37570   0.48288   0.86600   0.00000  Uiso   1.00
H1597  H     0.40401   0.45651   0.82426   0.00000  Uiso   1.00
H1598  H     0.41678   0.51485   0.84222   0.00000  Uiso   1.00
N1599  N     0.56513   0.45956   0.61550   0.00000  Uiso   1.00
H1600  H     0.57765   0.43422   0.59641   0.00000  Uiso   1.00
C1601  C     0.59338   0.48013   0.64737   0.00000  Uiso   1.00
H1602  H     0.62430   0.48288   0.63400   0.00000  Uiso   1.00
H1603  H     0.59600   0.45651   0.67574   0.00000  Uiso   1.00
H1604  H     0.58322   0.51485   0.65778   0.00000  Uiso   1.00
N1605  N     0.38873   0.50128   0.94753   0.00000  Uiso   1.00
H1606  H     0.36603   0.47968   0.95738   0.00000  Uiso   1.00
C1607  C     0.37545   0.54804   0.93859   0.00000  Uiso   1.00
H1608  H     0.34764   0.54759   0.91647   0.00000  Uiso   1.00
H1609  H     0.39966   0.56743   0.92189   0.00000  Uiso   1.00
H1610  H     0.36818   0.56585   0.96967   0.00000  Uiso   1.00
N1611  N     0.61127   0.50128   0.55247   0.00000  Uiso   1.00
H1612  H     0.63397   0.47968   0.54262   0.00000  Uiso   1.00
C1613  C     0.62455   0.54804   0.56141   0.00000  Uiso   1.00
H1614  H     0.65236   0.54759   0.58353   0.00000  Uiso   1.00
H1615  H     0.60034   0.56743   0.57811   0.00000  Uiso   1.00
H1616  H     0.63182   0.56585   0.53032   0.00000  Uiso   1.00
N1617  N     0.38851   0.48949   0.54037   0.00000  Uiso   1.00
H1618  H     0.36333   0.50653   0.52729   0.00000  Uiso   1.00
C1619  C     0.38173   0.44084   0.54808   0.00000  Uiso   1.00
H1620  H     0.35516   0.43619   0.56914   0.00000  Uiso   1.00
H1621  H     0.40879   0.42522   0.56559   0.00000  Uiso   1.00
H1622  H     0.37562   0.42254   0.51638   0.00000  Uiso   1.00
N1623  N     0.61149   0.48949   0.95963   0.00000  Uiso   1.00
H1624  H     0.63667   0.50653   0.97271   0.00000  Uiso   1.00
C1625  C     0.61828   0.44084   0.95192   0.00000  Uiso   1.00
H1626  H     0.64484   0.43619   0.93086   0.00000  Uiso   1.00
H1627  H     0.59121   0.42522   0.93441   0.00000  Uiso   1.00
H1628  H     0.62438   0.42253   0.98362   0.00000  Uiso   1.00
N1629  N     0.44415   0.37945   0.69346   0.00000  Uiso   1.00
H1630  H     0.44615   0.41402   0.68922   0.00000  Uiso   1.00
C1631  C     0.40226   0.36372   0.69661   0.00000  Uiso   1.00
H1632  H     0.39631   0.66658   0.67540   0.00000  Uiso   1.00
H1633  H     0.38082   0.39093   0.68432   0.00000  Uiso   1.00
H1634  H     0.39553   0.35505   0.73120   0.00000  Uiso   1.00
N1635  N     0.54106   0.61916   0.81810   0.00000  Uiso   1.00
H1636  H     0.55772   0.58971   0.81370   0.00000  Uiso   1.00
C1637  C     0.52790   0.63053   0.86183   0.00000  Uiso   1.00
H1638  H     0.55499   0.63907   0.88341   0.00000  Uiso   1.00
H1639  H     0.51188   0.60077   0.87609   0.00000  Uiso   1.00
H1640  H     0.50661   0.66040   0.86133   0.00000  Uiso   1.00
N1641  N     0.55585   0.37945   0.80654   0.00000  Uiso   1.00
H1642  H     0.55385   0.41402   0.81077   0.00000  Uiso   1.00
C1643  C     0.59774   0.36372   0.80339   0.00000  Uiso   1.00
H1644  H     0.60369   0.66657   0.82460   0.00000  Uiso   1.00
H1645  H     0.61918   0.39093   0.81569   0.00000  Uiso   1.00
H1646  H     0.60447   0.35505   0.76880   0.00000  Uiso   1.00
N1647  N     0.45894   0.61917   0.68190   0.00000  Uiso   1.00
H1648  H     0.44229   0.58970   0.68631   0.00000  Uiso   1.00
C1649  C     0.47210   0.63053   0.63818   0.00000  Uiso   1.00
H1650  H     0.44500   0.63905   0.61659   0.00000  Uiso   1.00
H1651  H     0.48812   0.60078   0.62392   0.00000  Uiso   1.00
H1652  H     0.49337   0.66041   0.63866   0.00000  Uiso   1.00
C1653  C     0.75416   0.50013   0.74989   0.00000  Uiso   1.00
C1654  C     0.91251   0.50013   0.75011   0.00000  Uiso   1.00
C1655  C     0.75880   0.49899   0.51922   0.00000  Uiso   1.00
C1656  C     0.90787   0.49899   0.98078   0.00000  Uiso   1.00
C1657  C     0.68780   0.45909   0.75043   0.00000  Uiso   1.00
C1658  C     0.97876   0.54253   0.75012   0.00000  Uiso   1.00
C1659  C     0.97887   0.45909   0.74957   0.00000  Uiso   1.00
C1660  C     0.68791   0.54253   0.74988   0.00000  Uiso   1.00
C1661  C     0.95727   0.50064   0.74999   0.00000  Uiso   1.00
C1662  C     0.70939   0.50064   0.75001   0.00000  Uiso   1.00
C1663  C     0.80779   0.35755   0.72147   0.00000  Uiso   1.00
C1664  C     0.85513   0.64198   0.78152   0.00000  Uiso   1.00
C1665  C     0.85888   0.35755   0.77853   0.00000  Uiso   1.00
C1666  C     0.81154   0.64198   0.71848   0.00000  Uiso   1.00
C1667  C     0.83275   0.49993   0.66448   0.00000  Uiso   1.00
C1668  C     0.83392   0.49993   0.83552   0.00000  Uiso   1.00
C1669  C     0.87040   0.50953   0.90915   0.00000  Uiso   1.00
C1670  C     0.79627   0.50953   0.59085   0.00000  Uiso   1.00
C1671  C     0.83420   0.49958   0.88407   0.00000  Uiso   1.00
C1672  C     0.83247   0.49958   0.61593   0.00000  Uiso   1.00
C1673  C     0.79835   0.48818   0.90587   0.00000  Uiso   1.00
C1674  C     0.86831   0.48818   0.59413   0.00000  Uiso   1.00
C1675  C     0.79672   0.49647   0.95162   0.00000  Uiso   1.00
C1676  C     0.86995   0.49647   0.54838   0.00000  Uiso   1.00
C1677  C     0.83358   0.50067   0.97677   0.00000  Uiso   1.00
C1678  C     0.83309   0.50067   0.52323   0.00000  Uiso   1.00
C1679  C     0.87099   0.50312   0.95544   0.00000  Uiso   1.00
C1680  C     0.79568   0.50312   0.54456   0.00000  Uiso   1.00
C1681  C     0.75929   0.49796   0.97291   0.00000  Uiso   1.00
C1682  C     0.90737   0.49796   0.52709   0.00000  Uiso   1.00
Cu1683 Cu    0.83333   0.54689   0.75000   0.00000  Uiso   1.00
Cu1684 Cu    0.83333   0.45311   0.75000   0.00000  Uiso   1.00
H1685  H     0.70353   0.42651   0.75215   0.00000  Uiso   1.00
H1686  H     0.96283   0.57524   0.75030   0.00000  Uiso   1.00
H1687  H     0.96313   0.42651   0.74786   0.00000  Uiso   1.00
H1688  H     0.70383   0.57524   0.74969   0.00000  Uiso   1.00
N1689  N     0.83333   0.61736   0.75000   0.00000  Uiso   1.00
N1690  N     0.83333   0.38264   0.75000   0.00000  Uiso   1.00
O1691  O     0.77321   0.53958   0.74999   0.00000  Uiso   1.00
O1692  O     0.89345   0.46042   0.75000   0.00000  Uiso   1.00
O1693  O     0.89345   0.53958   0.75000   0.00000  Uiso   1.00
O1694  O     0.77321   0.46042   0.74999   0.00000  Uiso   1.00
O1695  O     0.83332   0.53960   0.68513   0.00000  Uiso   1.00
O1696  O     0.83334   0.46040   0.81487   0.00000  Uiso   1.00
O1697  O     0.83334   0.53960   0.81487   0.00000  Uiso   1.00
O1698  O     0.83332   0.46040   0.68513   0.00000  Uiso   1.00
N1699  N     0.90389   0.53161   0.88907   0.00000  Uiso   1.00
H1700  H     0.91939   0.55610   0.90785   0.00000  Uiso   1.00
C1701  C     0.92944   0.50447   0.86133   0.00000  Uiso   1.00
H1702  H     0.96009   0.49936   0.87738   0.00000  Uiso   1.00
H1703  H     0.93406   0.52401   0.83089   0.00000  Uiso   1.00
H1704  H     0.91583   0.47037   0.85354   0.00000  Uiso   1.00
N1705  N     0.76278   0.53162   0.61093   0.00000  Uiso   1.00
H1706  H     0.74728   0.55610   0.59215   0.00000  Uiso   1.00
C1707  C     0.73723   0.50448   0.63867   0.00000  Uiso   1.00
H1708  H     0.70657   0.49936   0.62262   0.00000  Uiso   1.00
H1709  H     0.73261   0.52401   0.66910   0.00000  Uiso   1.00
H1710  H     0.75083   0.47037   0.64646   0.00000  Uiso   1.00
N1711  N     0.76820   0.45956   0.88450   0.00000  Uiso   1.00
H1712  H     0.75568   0.43422   0.90359   0.00000  Uiso   1.00
C1713  C     0.73995   0.48013   0.85263   0.00000  Uiso   1.00
H1714  H     0.70903   0.48288   0.86600   0.00000  Uiso   1.00
H1715  H     0.73734   0.45651   0.82426   0.00000  Uiso   1.00
H1716  H     0.75011   0.51485   0.84222   0.00000  Uiso   1.00
N1717  N     0.89847   0.45956   0.61550   0.00000  Uiso   1.00
H1718  H     0.91098   0.43422   0.59641   0.00000  Uiso   1.00
C1719  C     0.92672   0.48013   0.64737   0.00000  Uiso   1.00
H1720  H     0.95763   0.48288   0.63400   0.00000  Uiso   1.00
H1721  H     0.92933   0.45651   0.67574   0.00000  Uiso   1.00
H1722  H     0.91656   0.51485   0.65778   0.00000  Uiso   1.00
N1723  N     0.72206   0.50128   0.94753   0.00000  Uiso   1.00
H1724  H     0.69937   0.47968   0.95738   0.00000  Uiso   1.00
C1725  C     0.70878   0.54804   0.93859   0.00000  Uiso   1.00
H1726  H     0.68097   0.54759   0.91647   0.00000  Uiso   1.00
H1727  H     0.73299   0.56743   0.92189   0.00000  Uiso   1.00
H1728  H     0.70151   0.56585   0.96967   0.00000  Uiso   1.00
N1729  N     0.94460   0.50128   0.55247   0.00000  Uiso   1.00
H1730  H     0.96730   0.47968   0.54262   0.00000  Uiso   1.00
C1731  C     0.95789   0.54804   0.56141   0.00000  Uiso   1.00
H1732  H     0.98569   0.54759   0.58353   0.00000  Uiso   1.00
H1733  H     0.93367   0.56743   0.57811   0.00000  Uiso   1.00
H1734  H     0.96515   0.56585   0.53032   0.00000  Uiso   1.00
N1735  N     0.72184   0.48949   0.54037   0.00000  Uiso   1.00
H1736  H     0.69666   0.50653   0.52729   0.00000  Uiso   1.00
C1737  C     0.71506   0.44084   0.54808   0.00000  Uiso   1.00
H1738  H     0.68850   0.43619   0.56914   0.00000  Uiso   1.00
H1739  H     0.74213   0.42522   0.56559   0.00000  Uiso   1.00
H1740  H     0.70895   0.42254   0.51638   0.00000  Uiso   1.00
N1741  N     0.94483   0.48949   0.95963   0.00000  Uiso   1.00
H1742  H     0.97000   0.50653   0.97271   0.00000  Uiso   1.00
C1743  C     0.95161   0.44084   0.95192   0.00000  Uiso   1.00
H1744  H     0.97817   0.43619   0.93086   0.00000  Uiso   1.00
H1745  H     0.92454   0.42522   0.93441   0.00000  Uiso   1.00
H1746  H     0.95771   0.42253   0.98362   0.00000  Uiso   1.00
N1747  N     0.77748   0.37945   0.69346   0.00000  Uiso   1.00
H1748  H     0.77949   0.41402   0.68922   0.00000  Uiso   1.00
C1749  C     0.73559   0.36372   0.69661   0.00000  Uiso   1.00
H1750  H     0.72964   0.66658   0.67540   0.00000  Uiso   1.00
H1751  H     0.71415   0.39093   0.68432   0.00000  Uiso   1.00
H1752  H     0.72887   0.35505   0.73120   0.00000  Uiso   1.00
N1753  N     0.87439   0.61916   0.81810   0.00000  Uiso   1.00
H1754  H     0.89106   0.58971   0.81370   0.00000  Uiso   1.00
C1755  C     0.86123   0.63053   0.86183   0.00000  Uiso   1.00
H1756  H     0.88832   0.63907   0.88341   0.00000  Uiso   1.00
H1757  H     0.84521   0.60077   0.87609   0.00000  Uiso   1.00
H1758  H     0.83995   0.66040   0.86133   0.00000  Uiso   1.00
N1759  N     0.88918   0.37945   0.80654   0.00000  Uiso   1.00
H1760  H     0.88718   0.41402   0.81077   0.00000  Uiso   1.00
C1761  C     0.93107   0.36372   0.80339   0.00000  Uiso   1.00
H1762  H     0.93702   0.66657   0.82460   0.00000  Uiso   1.00
H1763  H     0.95251   0.39093   0.81569   0.00000  Uiso   1.00
H1764  H     0.93780   0.35505   0.76880   0.00000  Uiso   1.00
N1765  N     0.79227   0.61917   0.68190   0.00000  Uiso   1.00
H1766  H     0.77562   0.58970   0.68631   0.00000  Uiso   1.00
C1767  C     0.80543   0.63053   0.63818   0.00000  Uiso   1.00
H1768  H     0.77834   0.63905   0.61659   0.00000  Uiso   1.00
H1769  H     0.82146   0.60078   0.62392   0.00000  Uiso   1.00
H1770  H     0.82670   0.66041   0.63866   0.00000  Uiso   1.00
C1771  C     0.08749   0.83346   0.74989   0.00000  Uiso   1.00
C1772  C     0.24584   0.83346   0.75011   0.00000  Uiso   1.00
C1773  C     0.09213   0.83232   0.51922   0.00000  Uiso   1.00
C1774  C     0.24120   0.83232   0.98078   0.00000  Uiso   1.00
C1775  C     0.02113   0.79242   0.75043   0.00000  Uiso   1.00
C1776  C     0.31209   0.87586   0.75012   0.00000  Uiso   1.00
C1777  C     0.31220   0.79242   0.74957   0.00000  Uiso   1.00
C1778  C     0.02124   0.87586   0.74988   0.00000  Uiso   1.00
C1779  C     0.29061   0.83397   0.74999   0.00000  Uiso   1.00
C1780  C     0.04273   0.83397   0.75001   0.00000  Uiso   1.00
C1781  C     0.14112   0.69088   0.72147   0.00000  Uiso   1.00
C1782  C     0.18846   0.97531   0.78152   0.00000  Uiso   1.00
C1783  C     0.19221   0.69088   0.77853   0.00000  Uiso   1.00
C1784  C     0.14487   0.97531   0.71848   0.00000  Uiso   1.00
C1785  C     0.16608   0.83326   0.66448   0.00000  Uiso   1.00
C1786  C     0.16725   0.83326   0.83552   0.00000  Uiso   1.00
C1787  C     0.20373   0.84287   0.90915   0.00000  Uiso   1.00
C1788  C     0.12960   0.84287   0.59085   0.00000  Uiso   1.00
C1789  C     0.16753   0.83291   0.88407   0.00000  Uiso   1.00
C1790  C     0.16580   0.83291   0.61593   0.00000  Uiso   1.00
C1791  C     0.13169   0.82151   0.90587   0.00000  Uiso   1.00
C1792  C     0.20165   0.82151   0.59413   0.00000  Uiso   1.00
C1793  C     0.13005   0.82980   0.95162   0.00000  Uiso   1.00
C1794  C     0.20328   0.82980   0.54838   0.00000  Uiso   1.00
C1795  C     0.16691   0.83401   0.97677   0.00000  Uiso   1.00
C1796  C     0.16642   0.83401   0.52323   0.00000  Uiso   1.00
C1797  C     0.20432   0.83646   0.95544   0.00000  Uiso   1.00
C1798  C     0.12901   0.83646   0.54456   0.00000  Uiso   1.00
C1799  C     0.09263   0.83130   0.97291   0.00000  Uiso   1.00
C1800  C     0.24071   0.83130   0.52709   0.00000  Uiso   1.00
Cu1801 Cu    0.16667   0.88022   0.75000   0.00000  Uiso   1.00
Cu1802 Cu    0.16667   0.78645   0.75000   0.00000  Uiso   1.00
H1803  H     0.03687   0.75985   0.75215   0.00000  Uiso   1.00
H1804  H     0.29616   0.90857   0.75030   0.00000  Uiso   1.00
H1805  H     0.29647   0.75985   0.74786   0.00000  Uiso   1.00
H1806  H     0.03717   0.90857   0.74969   0.00000  Uiso   1.00
N1807  N     0.16667   0.95069   0.75000   0.00000  Uiso   1.00
N1808  N     0.16667   0.71598   0.75000   0.00000  Uiso   1.00
O1809  O     0.10655   0.87291   0.74999   0.00000  Uiso   1.00
O1810  O     0.22679   0.79375   0.75000   0.00000  Uiso   1.00
O1811  O     0.22679   0.87291   0.75000   0.00000  Uiso   1.00
O1812  O     0.10655   0.79375   0.74999   0.00000  Uiso   1.00
O1813  O     0.16666   0.87293   0.68513   0.00000  Uiso   1.00
O1814  O     0.16668   0.79373   0.81487   0.00000  Uiso   1.00
O1815  O     0.16668   0.87293   0.81487   0.00000  Uiso   1.00
O1816  O     0.16666   0.79373   0.68513   0.00000  Uiso   1.00
N1817  N     0.23722   0.86495   0.88907   0.00000  Uiso   1.00
H1818  H     0.25272   0.88943   0.90785   0.00000  Uiso   1.00
C1819  C     0.26277   0.83781   0.86133   0.00000  Uiso   1.00
H1820  H     0.29343   0.83269   0.87738   0.00000  Uiso   1.00
H1821  H     0.26739   0.85734   0.83089   0.00000  Uiso   1.00
H1822  H     0.24917   0.80370   0.85354   0.00000  Uiso   1.00
N1823  N     0.09611   0.86495   0.61093   0.00000  Uiso   1.00
H1824  H     0.08061   0.88943   0.59215   0.00000  Uiso   1.00
C1825  C     0.07056   0.83781   0.63867   0.00000  Uiso   1.00
H1826  H     0.03991   0.83270   0.62262   0.00000  Uiso   1.00
H1827  H     0.06594   0.85734   0.66910   0.00000  Uiso   1.00
H1828  H     0.08417   0.80370   0.64646   0.00000  Uiso   1.00
N1829  N     0.10153   0.79290   0.88450   0.00000  Uiso   1.00
H1830  H     0.08902   0.76755   0.90359   0.00000  Uiso   1.00
C1831  C     0.07328   0.81346   0.85263   0.00000  Uiso   1.00
H1832  H     0.04237   0.81621   0.86600   0.00000  Uiso   1.00
H1833  H     0.07067   0.78985   0.82426   0.00000  Uiso   1.00
H1834  H     0.08345   0.84818   0.84222   0.00000  Uiso   1.00
N1835  N     0.23180   0.79290   0.61550   0.00000  Uiso   1.00
H1836  H     0.24432   0.76755   0.59641   0.00000  Uiso   1.00
C1837  C     0.26005   0.81346   0.64737   0.00000  Uiso   1.00
H1838  H     0.29097   0.81621   0.63400   0.00000  Uiso   1.00
H1839  H     0.26266   0.78985   0.67574   0.00000  Uiso   1.00
H1840  H     0.24989   0.84818   0.65778   0.00000  Uiso   1.00
N1841  N     0.05540   0.83461   0.94753   0.00000  Uiso   1.00
H1842  H     0.03270   0.81301   0.95738   0.00000  Uiso   1.00
C1843  C     0.04211   0.88137   0.93859   0.00000  Uiso   1.00
H1844  H     0.01431   0.88093   0.91647   0.00000  Uiso   1.00
H1845  H     0.06633   0.90076   0.92189   0.00000  Uiso   1.00
H1846  H     0.03485   0.89919   0.96967   0.00000  Uiso   1.00
N1847  N     0.27794   0.83461   0.55247   0.00000  Uiso   1.00
H1848  H     0.30063   0.81301   0.54262   0.00000  Uiso   1.00
C1849  C     0.29122   0.88137   0.56141   0.00000  Uiso   1.00
H1850  H     0.31903   0.88093   0.58353   0.00000  Uiso   1.00
H1851  H     0.26701   0.90076   0.57811   0.00000  Uiso   1.00
H1852  H     0.29849   0.89919   0.53032   0.00000  Uiso   1.00
N1853  N     0.05517   0.82282   0.54037   0.00000  Uiso   1.00
H1854  H     0.03000   0.83987   0.52729   0.00000  Uiso   1.00
C1855  C     0.04839   0.77418   0.54808   0.00000  Uiso   1.00
H1856  H     0.02183   0.76952   0.56914   0.00000  Uiso   1.00
H1857  H     0.07546   0.75855   0.56559   0.00000  Uiso   1.00
H1858  H     0.04229   0.75587   0.51638   0.00000  Uiso   1.00
N1859  N     0.27816   0.82282   0.95963   0.00000  Uiso   1.00
H1860  H     0.30334   0.83987   0.97271   0.00000  Uiso   1.00
C1861  C     0.28494   0.77418   0.95192   0.00000  Uiso   1.00
H1862  H     0.31151   0.76952   0.93086   0.00000  Uiso   1.00
H1863  H     0.25787   0.75855   0.93441   0.00000  Uiso   1.00
H1864  H     0.29105   0.75587   0.98362   0.00000  Uiso   1.00
N1865  N     0.11081   0.71278   0.69346   0.00000  Uiso   1.00
H1866  H     0.11282   0.74736   0.68922   0.00000  Uiso   1.00
C1867  C     0.06893   0.69706   0.69661   0.00000  Uiso   1.00
H1868  H     0.06297   0.99991   0.67540   0.00000  Uiso   1.00
H1869  H     0.04748   0.72427   0.68432   0.00000  Uiso   1.00
H1870  H     0.06220   0.68839   0.73120   0.00000  Uiso   1.00
N1871  N     0.20772   0.95250   0.81810   0.00000  Uiso   1.00
H1872  H     0.22439   0.92304   0.81370   0.00000  Uiso   1.00
C1873  C     0.19456   0.96386   0.86183   0.00000  Uiso   1.00
H1874  H     0.22166   0.97240   0.88341   0.00000  Uiso   1.00
H1875  H     0.17855   0.93410   0.87609   0.00000  Uiso   1.00
H1876  H     0.17328   0.99373   0.86133   0.00000  Uiso   1.00
N1877  N     0.22252   0.71278   0.80654   0.00000  Uiso   1.00
H1878  H     0.22051   0.74735   0.81077   0.00000  Uiso   1.00
C1879  C     0.26440   0.69705   0.80339   0.00000  Uiso   1.00
H1880  H     0.27036   0.99991   0.82460   0.00000  Uiso   1.00
H1881  H     0.28585   0.72426   0.81569   0.00000  Uiso   1.00
H1882  H     0.27113   0.68839   0.76880   0.00000  Uiso   1.00
N1883  N     0.12560   0.95250   0.68190   0.00000  Uiso   1.00
H1884  H     0.10895   0.92303   0.68631   0.00000  Uiso   1.00
C1885  C     0.13877   0.96386   0.63818   0.00000  Uiso   1.00
H1886  H     0.11167   0.97239   0.61659   0.00000  Uiso   1.00
H1887  H     0.15479   0.93411   0.62392   0.00000  Uiso   1.00
H1888  H     0.16004   0.99374   0.63866   0.00000  Uiso   1.00
C1889  C     0.42082   0.83346   0.74989   0.00000  Uiso   1.00
C1890  C     0.57918   0.83346   0.75011   0.00000  Uiso   1.00
C1891  C     0.42546   0.83232   0.51922   0.00000  Uiso   1.00
C1892  C     0.57454   0.83232   0.98078   0.00000  Uiso   1.00
C1893  C     0.35446   0.79242   0.75043   0.00000  Uiso   1.00
C1894  C     0.64542   0.87586   0.75012   0.00000  Uiso   1.00
C1895  C     0.64554   0.79242   0.74957   0.00000  Uiso   1.00
C1896  C     0.35458   0.87586   0.74988   0.00000  Uiso   1.00
C1897  C     0.62394   0.83397   0.74999   0.00000  Uiso   1.00
C1898  C     0.37606   0.83397   0.75001   0.00000  Uiso   1.00
C1899  C     0.47446   0.69088   0.72147   0.00000  Uiso   1.00
C1900  C     0.52179   0.97531   0.78152   0.00000  Uiso   1.00
C1901  C     0.52554   0.69088   0.77853   0.00000  Uiso   1.00
C1902  C     0.47821   0.97531   0.71848   0.00000  Uiso   1.00
C1903  C     0.49941   0.83326   0.66448   0.00000  Uiso   1.00
C1904  C     0.50059   0.83326   0.83552   0.00000  Uiso   1.00
C1905  C     0.53707   0.84287   0.90915   0.00000  Uiso   1.00
C1906  C     0.46294   0.84287   0.59085   0.00000  Uiso   1.00
C1907  C     0.50087   0.83291   0.88407   0.00000  Uiso   1.00
C1908  C     0.49913   0.83291   0.61593   0.00000  Uiso   1.00
C1909  C     0.46502   0.82151   0.90587   0.00000  Uiso   1.00
C1910  C     0.53498   0.82151   0.59413   0.00000  Uiso   1.00
C1911  C     0.46339   0.82980   0.95162   0.00000  Uiso   1.00
C1912  C     0.53661   0.82980   0.54838   0.00000  Uiso   1.00
C1913  C     0.50024   0.83401   0.97677   0.00000  Uiso   1.00
C1914  C     0.49976   0.83401   0.52323   0.00000  Uiso   1.00
C1915  C     0.53765   0.83646   0.95544   0.00000  Uiso   1.00
C1916  C     0.46235   0.83646   0.54456   0.00000  Uiso   1.00
C1917  C     0.42596   0.83130   0.97291   0.00000  Uiso   1.00
C1918  C     0.57404   0.83130   0.52709   0.00000  Uiso   1.00
Cu1919 Cu    0.50000   0.88022   0.75000   0.00000  Uiso   1.00
Cu1920 Cu    0.50000   0.78645   0.75000   0.00000  Uiso   1.00
H1921  H     0.37020   0.75985   0.75215   0.00000  Uiso   1.00
H1922  H     0.62950   0.90857   0.75030   0.00000  Uiso   1.00
H1923  H     0.62980   0.75985   0.74786   0.00000  Uiso   1.00
H1924  H     0.37050   0.90857   0.74969   0.00000  Uiso   1.00
N1925  N     0.50000   0.95069   0.75000   0.00000  Uiso   1.00
N1926  N     0.50000   0.71598   0.75000   0.00000  Uiso   1.00
O1927  O     0.43988   0.87291   0.74999   0.00000  Uiso   1.00
O1928  O     0.56012   0.79375   0.75000   0.00000  Uiso   1.00
O1929  O     0.56012   0.87291   0.75000   0.00000  Uiso   1.00
O1930  O     0.43988   0.79375   0.74999   0.00000  Uiso   1.00
O1931  O     0.49999   0.87293   0.68513   0.00000  Uiso   1.00
O1932  O     0.50001   0.79373   0.81487   0.00000  Uiso   1.00
O1933  O     0.50001   0.87293   0.81487   0.00000  Uiso   1.00
O1934  O     0.49999   0.79373   0.68513   0.00000  Uiso   1.00
N1935  N     0.57056   0.86495   0.88907   0.00000  Uiso   1.00
H1936  H     0.58605   0.88943   0.90785   0.00000  Uiso   1.00
C1937  C     0.59610   0.83781   0.86133   0.00000  Uiso   1.00
H1938  H     0.62676   0.83269   0.87738   0.00000  Uiso   1.00
H1939  H     0.60072   0.85734   0.83089   0.00000  Uiso   1.00
H1940  H     0.58250   0.80370   0.85354   0.00000  Uiso   1.00
N1941  N     0.42944   0.86495   0.61093   0.00000  Uiso   1.00
H1942  H     0.41395   0.88943   0.59215   0.00000  Uiso   1.00
C1943  C     0.40390   0.83781   0.63867   0.00000  Uiso   1.00
H1944  H     0.37324   0.83270   0.62262   0.00000  Uiso   1.00
H1945  H     0.39928   0.85734   0.66910   0.00000  Uiso   1.00
H1946  H     0.41750   0.80370   0.64646   0.00000  Uiso   1.00
N1947  N     0.43487   0.79290   0.88450   0.00000  Uiso   1.00
H1948  H     0.42235   0.76755   0.90359   0.00000  Uiso   1.00
C1949  C     0.40662   0.81346   0.85263   0.00000  Uiso   1.00
H1950  H     0.37570   0.81621   0.86600   0.00000  Uiso   1.00
H1951  H     0.40401   0.78985   0.82426   0.00000  Uiso   1.00
H1952  H     0.41678   0.84818   0.84222   0.00000  Uiso   1.00
N1953  N     0.56513   0.79290   0.61550   0.00000  Uiso   1.00
H1954  H     0.57765   0.76755   0.59641   0.00000  Uiso   1.00
C1955  C     0.59338   0.81346   0.64737   0.00000  Uiso   1.00
H1956  H     0.62430   0.81621   0.63400   0.00000  Uiso   1.00
H1957  H     0.59600   0.78985   0.67574   0.00000  Uiso   1.00
H1958  H     0.58322   0.84818   0.65778   0.00000  Uiso   1.00
N1959  N     0.38873   0.83461   0.94753   0.00000  Uiso   1.00
H1960  H     0.36603   0.81301   0.95738   0.00000  Uiso   1.00
C1961  C     0.37545   0.88137   0.93859   0.00000  Uiso   1.00
H1962  H     0.34764   0.88093   0.91647   0.00000  Uiso   1.00
H1963  H     0.39966   0.90076   0.92189   0.00000  Uiso   1.00
H1964  H     0.36818   0.89919   0.96967   0.00000  Uiso   1.00
N1965  N     0.61127   0.83461   0.55247   0.00000  Uiso   1.00
H1966  H     0.63397   0.81301   0.54262   0.00000  Uiso   1.00
C1967  C     0.62455   0.88137   0.56141   0.00000  Uiso   1.00
H1968  H     0.65236   0.88093   0.58353   0.00000  Uiso   1.00
H1969  H     0.60034   0.90076   0.57811   0.00000  Uiso   1.00
H1970  H     0.63182   0.89919   0.53032   0.00000  Uiso   1.00
N1971  N     0.38851   0.82282   0.54037   0.00000  Uiso   1.00
H1972  H     0.36333   0.83987   0.52729   0.00000  Uiso   1.00
C1973  C     0.38173   0.77418   0.54808   0.00000  Uiso   1.00
H1974  H     0.35516   0.76952   0.56914   0.00000  Uiso   1.00
H1975  H     0.40879   0.75855   0.56559   0.00000  Uiso   1.00
H1976  H     0.37562   0.75587   0.51638   0.00000  Uiso   1.00
N1977  N     0.61149   0.82282   0.95963   0.00000  Uiso   1.00
H1978  H     0.63667   0.83987   0.97271   0.00000  Uiso   1.00
C1979  C     0.61828   0.77418   0.95192   0.00000  Uiso   1.00
H1980  H     0.64484   0.76952   0.93086   0.00000  Uiso   1.00
H1981  H     0.59121   0.75855   0.93441   0.00000  Uiso   1.00
H1982  H     0.62438   0.75587   0.98362   0.00000  Uiso   1.00
N1983  N     0.44415   0.71278   0.69346   0.00000  Uiso   1.00
H1984  H     0.44615   0.74736   0.68922   0.00000  Uiso   1.00
C1985  C     0.40226   0.69706   0.69661   0.00000  Uiso   1.00
H1986  H     0.39631   0.99991   0.67540   0.00000  Uiso   1.00
H1987  H     0.38082   0.72427   0.68432   0.00000  Uiso   1.00
H1988  H     0.39553   0.68839   0.73120   0.00000  Uiso   1.00
N1989  N     0.54106   0.95250   0.81810   0.00000  Uiso   1.00
H1990  H     0.55772   0.92304   0.81370   0.00000  Uiso   1.00
C1991  C     0.52790   0.96386   0.86183   0.00000  Uiso   1.00
H1992  H     0.55499   0.97240   0.88341   0.00000  Uiso   1.00
H1993  H     0.51188   0.93410   0.87609   0.00000  Uiso   1.00
H1994  H     0.50661   0.99373   0.86133   0.00000  Uiso   1.00
N1995  N     0.55585   0.71278   0.80654   0.00000  Uiso   1.00
H1996  H     0.55385   0.74735   0.81077   0.00000  Uiso   1.00
C1997  C     0.59774   0.69705   0.80339   0.00000  Uiso   1.00
H1998  H     0.60369   0.99991   0.82460   0.00000  Uiso   1.00
H1999  H     0.61918   0.72426   0.81569   0.00000  Uiso   1.00
H2000  H     0.60447   0.68839   0.76880   0.00000  Uiso   1.00
N2001  N     0.45894   0.95250   0.68190   0.00000  Uiso   1.00
H2002  H     0.44229   0.92303   0.68631   0.00000  Uiso   1.00
C2003  C     0.47210   0.96386   0.63818   0.00000  Uiso   1.00
H2004  H     0.44500   0.97239   0.61659   0.00000  Uiso   1.00
H2005  H     0.48812   0.93411   0.62392   0.00000  Uiso   1.00
H2006  H     0.49337   0.99374   0.63866   0.00000  Uiso   1.00
C2007  C     0.75416   0.83346   0.74989   0.00000  Uiso   1.00
C2008  C     0.91251   0.83346   0.75011   0.00000  Uiso   1.00
C2009  C     0.75880   0.83232   0.51922   0.00000  Uiso   1.00
C2010  C     0.90787   0.83232   0.98078   0.00000  Uiso   1.00
C2011  C     0.68780   0.79242   0.75043   0.00000  Uiso   1.00
C2012  C     0.97876   0.87586   0.75012   0.00000  Uiso   1.00
C2013  C     0.97887   0.79242   0.74957   0.00000  Uiso   1.00
C2014  C     0.68791   0.87586   0.74988   0.00000  Uiso   1.00
C2015  C     0.95727   0.83397   0.74999   0.00000  Uiso   1.00
C2016  C     0.70939   0.83397   0.75001   0.00000  Uiso   1.00
C2017  C     0.80779   0.69088   0.72147   0.00000  Uiso   1.00
C2018  C     0.85513   0.97531   0.78152   0.00000  Uiso   1.00
C2019  C     0.85888   0.69088   0.77853   0.00000  Uiso   1.00
C2020  C     0.81154   0.97531   0.71848   0.00000  Uiso   1.00
C2021  C     0.83275   0.83326   0.66448   0.00000  Uiso   1.00
C2022  C     0.83392   0.83326   0.83552   0.00000  Uiso   1.00
C2023  C     0.87040   0.84287   0.90915   0.00000  Uiso   1.00
C2024  C     0.79627   0.84287   0.59085   0.00000  Uiso   1.00
C2025  C     0.83420   0.83291   0.88407   0.00000  Uiso   1.00
C2026  C     0.83247   0.83291   0.61593   0.00000  Uiso   1.00
C2027  C     0.79835   0.82151   0.90587   0.00000  Uiso   1.00
C2028  C     0.86831   0.82151   0.59413   0.00000  Uiso   1.00
C2029  C     0.79672   0.82980   0.95162   0.00000  Uiso   1.00
C2030  C     0.86995   0.82980   0.54838   0.00000  Uiso   1.00
C2031  C     0.83358   0.83401   0.97677   0.00000  Uiso   1.00
C2032  C     0.83309   0.83401   0.52323   0.00000  Uiso   1.00
C2033  C     0.87099   0.83646   0.95544   0.00000  Uiso   1.00
C2034  C     0.79568   0.83646   0.54456   0.00000  Uiso   1.00
C2035  C     0.75929   0.83130   0.97291   0.00000  Uiso   1.00
C2036  C     0.90737   0.83130   0.52709   0.00000  Uiso   1.00
Cu2037 Cu    0.83333   0.88022   0.75000   0.00000  Uiso   1.00
Cu2038 Cu    0.83333   0.78645   0.75000   0.00000  Uiso   1.00
H2039  H     0.70353   0.75985   0.75215   0.00000  Uiso   1.00
H2040  H     0.96283   0.90857   0.75030   0.00000  Uiso   1.00
H2041  H     0.96313   0.75985   0.74786   0.00000  Uiso   1.00
H2042  H     0.70383   0.90857   0.74969   0.00000  Uiso   1.00
N2043  N     0.83333   0.95069   0.75000   0.00000  Uiso   1.00
N2044  N     0.83333   0.71598   0.75000   0.00000  Uiso   1.00
O2045  O     0.77321   0.87291   0.74999   0.00000  Uiso   1.00
O2046  O     0.89345   0.79375   0.75000   0.00000  Uiso   1.00
O2047  O     0.89345   0.87291   0.75000   0.00000  Uiso   1.00
O2048  O     0.77321   0.79375   0.74999   0.00000  Uiso   1.00
O2049  O     0.83332   0.87293   0.68513   0.00000  Uiso   1.00
O2050  O     0.83334   0.79373   0.81487   0.00000  Uiso   1.00
O2051  O     0.83334   0.87293   0.81487   0.00000  Uiso   1.00
O2052  O     0.83332   0.79373   0.68513   0.00000  Uiso   1.00
N2053  N     0.90389   0.86495   0.88907   0.00000  Uiso   1.00
H2054  H     0.91939   0.88943   0.90785   0.00000  Uiso   1.00
C2055  C     0.92944   0.83781   0.86133   0.00000  Uiso   1.00
H2056  H     0.96009   0.83269   0.87738   0.00000  Uiso   1.00
H2057  H     0.93406   0.85734   0.83089   0.00000  Uiso   1.00
H2058  H     0.91583   0.80370   0.85354   0.00000  Uiso   1.00
N2059  N     0.76278   0.86495   0.61093   0.00000  Uiso   1.00
H2060  H     0.74728   0.88943   0.59215   0.00000  Uiso   1.00
C2061  C     0.73723   0.83781   0.63867   0.00000  Uiso   1.00
H2062  H     0.70657   0.83270   0.62262   0.00000  Uiso   1.00
H2063  H     0.73261   0.85734   0.66910   0.00000  Uiso   1.00
H2064  H     0.75083   0.80370   0.64646   0.00000  Uiso   1.00
N2065  N     0.76820   0.79290   0.88450   0.00000  Uiso   1.00
H2066  H     0.75568   0.76755   0.90359   0.00000  Uiso   1.00
C2067  C     0.73995   0.81346   0.85263   0.00000  Uiso   1.00
H2068  H     0.70903   0.81621   0.86600   0.00000  Uiso   1.00
H2069  H     0.73734   0.78985   0.82426   0.00000  Uiso   1.00
H2070  H     0.75011   0.84818   0.84222   0.00000  Uiso   1.00
N2071  N     0.89847   0.79290   0.61550   0.00000  Uiso   1.00
H2072  H     0.91098   0.76755   0.59641   0.00000  Uiso   1.00
C2073  C     0.92672   0.81346   0.64737   0.00000  Uiso   1.00
H2074  H     0.95763   0.81621   0.63400   0.00000  Uiso   1.00
H2075  H     0.92933   0.78985   0.67574   0.00000  Uiso   1.00
H2076  H     0.91656   0.84818   0.65778   0.00000  Uiso   1.00
N2077  N     0.72206   0.83461   0.94753   0.00000  Uiso   1.00
H2078  H     0.69937   0.81301   0.95738   0.00000  Uiso   1.00
C2079  C     0.70878   0.88137   0.93859   0.00000  Uiso   1.00
H2080  H     0.68097   0.88093   0.91647   0.00000  Uiso   1.00
H2081  H     0.73299   0.90076   0.92189   0.00000  Uiso   1.00
H2082  H     0.70151   0.89919   0.96967   0.00000  Uiso   1.00
N2083  N     0.94460   0.83461   0.55247   0.00000  Uiso   1.00
H2084  H     0.96730   0.81301   0.54262   0.00000  Uiso   1.00
C2085  C     0.95789   0.88137   0.56141   0.00000  Uiso   1.00
H2086  H     0.98569   0.88093   0.58353   0.00000  Uiso   1.00
H2087  H     0.93367   0.90076   0.57811   0.00000  Uiso   1.00
H2088  H     0.96515   0.89919   0.53032   0.00000  Uiso   1.00
N2089  N     0.72184   0.82282   0.54037   0.00000  Uiso   1.00
H2090  H     0.69666   0.83987   0.52729   0.00000  Uiso   1.00
C2091  C     0.71506   0.77418   0.54808   0.00000  Uiso   1.00
H2092  H     0.68850   0.76952   0.56914   0.00000  Uiso   1.00
H2093  H     0.74213   0.75855   0.56559   0.00000  Uiso   1.00
H2094  H     0.70895   0.75587   0.51638   0.00000  Uiso   1.00
N2095  N     0.94483   0.82282   0.95963   0.00000  Uiso   1.00
H2096  H     0.97000   0.83987   0.97271   0.00000  Uiso   1.00
C2097  C     0.95161   0.77418   0.95192   0.00000  Uiso   1.00
H2098  H     0.97817   0.76952   0.93086   0.00000  Uiso   1.00
H2099  H     0.92454   0.75855   0.93441   0.00000  Uiso   1.00
H2100  H     0.95771   0.75587   0.98362   0.00000  Uiso   1.00
N2101  N     0.77748   0.71278   0.69346   0.00000  Uiso   1.00
H2102  H     0.77949   0.74736   0.68922   0.00000  Uiso   1.00
C2103  C     0.73559   0.69706   0.69661   0.00000  Uiso   1.00
H2104  H     0.72964   0.99991   0.67540   0.00000  Uiso   1.00
H2105  H     0.71415   0.72427   0.68432   0.00000  Uiso   1.00
H2106  H     0.72887   0.68839   0.73120   0.00000  Uiso   1.00
N2107  N     0.87439   0.95250   0.81810   0.00000  Uiso   1.00
H2108  H     0.89106   0.92304   0.81370   0.00000  Uiso   1.00
C2109  C     0.86123   0.96386   0.86183   0.00000  Uiso   1.00
H2110  H     0.88832   0.97240   0.88341   0.00000  Uiso   1.00
H2111  H     0.84521   0.93410   0.87609   0.00000  Uiso   1.00
H2112  H     0.83995   0.99373   0.86133   0.00000  Uiso   1.00
N2113  N     0.88918   0.71278   0.80654   0.00000  Uiso   1.00
H2114  H     0.88718   0.74735   0.81077   0.00000  Uiso   1.00
C2115  C     0.93107   0.69705   0.80339   0.00000  Uiso   1.00
H2116  H     0.93702   0.99991   0.82460   0.00000  Uiso   1.00
H2117  H     0.95251   0.72426   0.81569   0.00000  Uiso   1.00
H2118  H     0.93780   0.68839   0.76880   0.00000  Uiso   1.00
N2119  N     0.79227   0.95250   0.68190   0.00000  Uiso   1.00
H2120  H     0.77562   0.92303   0.68631   0.00000  Uiso   1.00
C2121  C     0.80543   0.96386   0.63818   0.00000  Uiso   1.00
H2122  H     0.77834   0.97239   0.61659   0.00000  Uiso   1.00
H2123  H     0.82146   0.93411   0.62392   0.00000  Uiso   1.00
H2124  H     0.82670   0.99374   0.63866   0.00000  Uiso   1.00
loop_
_geom_bond_atom_site_label_1
_geom_bond_atom_site_label_2
_geom_bond_distance
_geom_bond_site_symmetry_2
_ccdc_geom_bond_type
C1     C10     1.466   .     S
C1     O39     1.304   .     A
C1     O42     1.310   .     A
C2     O41     1.304   .     A
C2     O40     1.310   .     A
C2     C9      1.466   .     S
C3     C28     1.411   .     A
C3     N83     1.420   .     S
C3     C1091   1.408   1_554 S
C4     C27     1.411   .     A
C4     N89     1.420   .     S
C4     C1092   1.408   .     S
C5     H33     1.077   .     S
C5     C10     1.398   .     A
C5     C243    1.383   1_455 S
C6     C9      1.404   .     A
C6     H34     1.083   .     S
C6     C126    1.391   .     S
C7     H35     1.077   .     S
C7     C9      1.398   .     A
C7     C123    1.383   .     S
C8     H36     1.083   .     S
C8     C10     1.404   .     A
C8     C242    1.391   1_455 S
C11    N38     1.387   .     A
C11    N95     1.430   .     S
C11    C722    1.427   1_545 S
C12    N37     1.372   .     A
C12    N101    1.420   .     S
C12    C367    1.427   .     S
C13    N107    1.430   .     S
C13    N38     1.387   .     A
C13    C720    1.427   1_545 S
C14    N113    1.420   .     S
C14    N37     1.372   .     A
C14    C365    1.427   .     S
C15    C20     1.475   .     S
C15    O43     1.311   .     A
C15    O46     1.307   .     A
C16    O44     1.307   .     A
C16    O45     1.311   .     A
C16    C19     1.475   .     S
C17    C27     1.418   .     A
C17    N47     1.428   .     S
C17    C19     1.413   .     A
C18    N53     1.428   .     S
C18    C28     1.418   .     A
C18    C20     1.413   .     A
C19    C21     1.410   .     A
C20    C22     1.410   .     A
C21    N59     1.426   .     S
C21    C23     1.414   .     A
C22    N65     1.426   .     S
C22    C24     1.414   .     A
C23    C29     1.409   .     A
C23    C25     1.407   .     A
C24    C26     1.407   .     A
C24    C30     1.409   .     A
C25    C27     1.411   .     A
C25    C1088   1.413   .     S
C26    C28     1.411   .     A
C26    C1087   1.413   1_554 S
C29    N71     1.419   .     S
C29    C1065   1.408   .     S
C30    N77     1.419   .     S
C30    C1066   1.408   1_554 S
Cu31   O43     1.983   .     S
Cu31   Cu32    2.721   .     S
Cu31   O41     1.980   .     S
Cu31   O39     1.980   .     S
Cu31   N37     2.045   .     S
Cu31   O45     1.983   .     S
Cu32   N38     2.045   .     S
Cu32   O44     1.983   .     S
Cu32   O46     1.983   .     S
Cu32   O40     1.980   .     S
Cu32   O42     1.980   .     S
N47    C49     1.445   .     S
N47    H48     1.032   .     S
C49    H51     1.100   .     S
C49    H52     1.107   .     S
C49    H50     1.108   .     S
N53    H54     1.032   .     S
N53    C55     1.445   .     S
C55    H56     1.108   .     S
C55    H57     1.100   .     S
C55    H58     1.107   .     S
N59    H60     1.032   .     S
N59    C61     1.441   .     S
C61    H63     1.102   .     S
C61    H64     1.111   .     S
C61    H62     1.109   .     S
N65    C67     1.441   .     S
N65    H66     1.032   .     S
C67    H68     1.109   .     S
C67    H69     1.102   .     S
C67    H70     1.111   .     S
N71    H72     1.026   .     S
N71    C73     1.447   .     S
C73    H74     1.110   .     S
C73    H75     1.111   .     S
C73    H76     1.111   .     S
N77    H78     1.026   .     S
N77    C79     1.447   .     S
C79    H81     1.111   .     S
C79    H82     1.111   .     S
C79    H80     1.110   .     S
N83    H84     1.027   .     S
N83    C85     1.449   .     S
C85    H87     1.112   .     S
C85    H86     1.109   .     S
C85    H88     1.111   .     S
N89    C91     1.449   .     S
N89    H90     1.027   .     S
C91    H92     1.109   .     S
C91    H93     1.112   .     S
C91    H94     1.111   .     S
N95    H96     1.014   .     S
N95    C97     1.452   .     S
C97    H99     1.111   .     S
C97    H100    1.111   .     S
C97    H806    1.107   1_545 S
H98    C451    1.107   .     S
N101   H102    1.026   .     S
N101   C103    1.451   .     S
C103   H105    1.108   .     S
C103   H106    1.112   .     S
C103   H104    1.110   .     S
N107   H108    1.014   .     S
N107   C109    1.452   .     S
C109   H111    1.111   .     S
C109   H112    1.111   .     S
C109   H818    1.107   1_545 S
H110   C463    1.107   .     S
N113   H114    1.026   .     S
N113   C115    1.451   .     S
C115   H117    1.108   .     S
C115   H116    1.110   .     S
C115   H118    1.112   .     S
C119   C128    1.466   .     S
C119   O157    1.304   .     A
C119   O160    1.310   .     A
C120   O159    1.304   .     A
C120   O158    1.310   .     A
C120   C127    1.466   .     S
C121   C146    1.411   .     A
C121   N201    1.420   .     S
C121   C1209   1.408   1_554 S
C122   C145    1.411   .     A
C122   N207    1.420   .     S
C122   C1210   1.408   .     S
C123   H151    1.077   .     S
C123   C128    1.398   .     A
C124   C127    1.404   .     A
C124   H152    1.083   .     S
C124   C244    1.391   .     S
C125   H153    1.077   .     S
C125   C127    1.398   .     A
C125   C241    1.383   .     S
C126   H154    1.083   .     S
C126   C128    1.404   .     A
C129   N156    1.387   .     A
C129   N213    1.430   .     S
C129   C840    1.427   1_545 S
C130   N155    1.372   .     A
C130   N219    1.420   .     S
C130   C485    1.427   .     S
C131   N225    1.430   .     S
C131   N156    1.387   .     A
C131   C838    1.427   1_545 S
C132   N231    1.420   .     S
C132   N155    1.372   .     A
C132   C483    1.427   .     S
C133   C138    1.475   .     S
C133   O161    1.311   .     A
C133   O164    1.307   .     A
C134   O162    1.307   .     A
C134   O163    1.311   .     A
C134   C137    1.475   .     S
C135   C145    1.418   .     A
C135   N165    1.428   .     S
C135   C137    1.413   .     A
C136   N171    1.428   .     S
C136   C146    1.418   .     A
C136   C138    1.413   .     A
C137   C139    1.410   .     A
C138   C140    1.410   .     A
C139   N177    1.426   .     S
C139   C141    1.414   .     A
C140   N183    1.426   .     S
C140   C142    1.414   .     A
C141   C147    1.409   .     A
C141   C143    1.407   .     A
C142   C144    1.407   .     A
C142   C148    1.409   .     A
C143   C145    1.411   .     A
C143   C1206   1.413   .     S
C144   C146    1.411   .     A
C144   C1205   1.413   1_554 S
C147   N189    1.419   .     S
C147   C1183   1.408   .     S
C148   N195    1.419   .     S
C148   C1184   1.408   1_554 S
Cu149  O161    1.983   .     S
Cu149  Cu150   2.721   .     S
Cu149  O159    1.980   .     S
Cu149  O157    1.980   .     S
Cu149  N155    2.045   .     S
Cu149  O163    1.983   .     S
Cu150  N156    2.045   .     S
Cu150  O162    1.983   .     S
Cu150  O164    1.983   .     S
Cu150  O158    1.980   .     S
Cu150  O160    1.980   .     S
N165   C167    1.445   .     S
N165   H166    1.032   .     S
C167   H169    1.100   .     S
C167   H170    1.107   .     S
C167   H168    1.108   .     S
N171   H172    1.032   .     S
N171   C173    1.445   .     S
C173   H174    1.108   .     S
C173   H175    1.100   .     S
C173   H176    1.107   .     S
N177   H178    1.032   .     S
N177   C179    1.441   .     S
C179   H181    1.102   .     S
C179   H182    1.111   .     S
C179   H180    1.109   .     S
N183   C185    1.441   .     S
N183   H184    1.032   .     S
C185   H186    1.109   .     S
C185   H187    1.102   .     S
C185   H188    1.111   .     S
N189   H190    1.026   .     S
N189   C191    1.447   .     S
C191   H192    1.110   .     S
C191   H193    1.111   .     S
C191   H194    1.111   .     S
N195   H196    1.026   .     S
N195   C197    1.447   .     S
C197   H199    1.111   .     S
C197   H200    1.111   .     S
C197   H198    1.110   .     S
N201   H202    1.027   .     S
N201   C203    1.449   .     S
C203   H205    1.112   .     S
C203   H204    1.109   .     S
C203   H206    1.111   .     S
N207   C209    1.449   .     S
N207   H208    1.027   .     S
C209   H210    1.109   .     S
C209   H211    1.112   .     S
C209   H212    1.111   .     S
N213   H214    1.014   .     S
N213   C215    1.452   .     S
C215   H217    1.111   .     S
C215   H218    1.111   .     S
C215   H924    1.107   1_545 S
H216   C569    1.107   .     S
N219   H220    1.026   .     S
N219   C221    1.451   .     S
C221   H223    1.108   .     S
C221   H224    1.112   .     S
C221   H222    1.110   .     S
N225   H226    1.014   .     S
N225   C227    1.452   .     S
C227   H229    1.111   .     S
C227   H230    1.111   .     S
C227   H936    1.107   1_545 S
H228   C581    1.107   .     S
N231   H232    1.026   .     S
N231   C233    1.451   .     S
C233   H235    1.108   .     S
C233   H234    1.110   .     S
C233   H236    1.112   .     S
C237   C246    1.466   .     S
C237   O275    1.304   .     A
C237   O278    1.310   .     A
C238   O277    1.304   .     A
C238   O276    1.310   .     A
C238   C245    1.466   .     S
C239   C264    1.411   .     A
C239   N319    1.420   .     S
C239   C1327   1.408   1_554 S
C240   C263    1.411   .     A
C240   N325    1.420   .     S
C240   C1328   1.408   .     S
C241   H269    1.077   .     S
C241   C246    1.398   .     A
C242   C245    1.404   .     A
C242   H270    1.083   .     S
C242   C8      1.391   1_655 S
C243   H271    1.077   .     S
C243   C245    1.398   .     A
C243   C5      1.383   1_655 S
C244   H272    1.083   .     S
C244   C246    1.404   .     A
C247   N274    1.387   .     A
C247   N331    1.430   .     S
C247   C958    1.427   1_545 S
C248   N273    1.372   .     A
C248   N337    1.420   .     S
C248   C603    1.427   .     S
C249   N343    1.430   .     S
C249   N274    1.387   .     A
C249   C956    1.427   1_545 S
C250   N349    1.420   .     S
C250   N273    1.372   .     A
C250   C601    1.427   .     S
C251   C256    1.475   .     S
C251   O279    1.311   .     A
C251   O282    1.307   .     A
C252   O280    1.307   .     A
C252   O281    1.311   .     A
C252   C255    1.475   .     S
C253   C263    1.418   .     A
C253   N283    1.428   .     S
C253   C255    1.413   .     A
C254   N289    1.428   .     S
C254   C264    1.418   .     A
C254   C256    1.413   .     A
C255   C257    1.410   .     A
C256   C258    1.410   .     A
C257   N295    1.426   .     S
C257   C259    1.414   .     A
C258   N301    1.426   .     S
C258   C260    1.414   .     A
C259   C265    1.409   .     A
C259   C261    1.407   .     A
C260   C262    1.407   .     A
C260   C266    1.409   .     A
C261   C263    1.411   .     A
C261   C1324   1.413   .     S
C262   C264    1.411   .     A
C262   C1323   1.413   1_554 S
C265   N307    1.419   .     S
C265   C1301   1.408   .     S
C266   N313    1.419   .     S
C266   C1302   1.408   1_554 S
Cu267  O279    1.983   .     S
Cu267  Cu268   2.721   .     S
Cu267  O277    1.980   .     S
Cu267  O275    1.980   .     S
Cu267  N273    2.045   .     S
Cu267  O281    1.983   .     S
Cu268  N274    2.045   .     S
Cu268  O280    1.983   .     S
Cu268  O282    1.983   .     S
Cu268  O276    1.980   .     S
Cu268  O278    1.980   .     S
N283   C285    1.445   .     S
N283   H284    1.032   .     S
C285   H287    1.100   .     S
C285   H288    1.107   .     S
C285   H286    1.108   .     S
N289   H290    1.032   .     S
N289   C291    1.445   .     S
C291   H292    1.108   .     S
C291   H293    1.100   .     S
C291   H294    1.107   .     S
N295   H296    1.032   .     S
N295   C297    1.441   .     S
C297   H299    1.102   .     S
C297   H300    1.111   .     S
C297   H298    1.109   .     S
N301   C303    1.441   .     S
N301   H302    1.032   .     S
C303   H304    1.109   .     S
C303   H305    1.102   .     S
C303   H306    1.111   .     S
N307   H308    1.026   .     S
N307   C309    1.447   .     S
C309   H310    1.110   .     S
C309   H311    1.111   .     S
C309   H312    1.111   .     S
N313   H314    1.026   .     S
N313   C315    1.447   .     S
C315   H317    1.111   .     S
C315   H318    1.111   .     S
C315   H316    1.110   .     S
N319   H320    1.027   .     S
N319   C321    1.449   .     S
C321   H323    1.112   .     S
C321   H322    1.109   .     S
C321   H324    1.111   .     S
N325   C327    1.449   .     S
N325   H326    1.027   .     S
C327   H328    1.109   .     S
C327   H329    1.112   .     S
C327   H330    1.111   .     S
N331   H332    1.014   .     S
N331   C333    1.452   .     S
C333   H335    1.111   .     S
C333   H336    1.111   .     S
C333   H1042   1.107   1_545 S
H334   C687    1.107   .     S
N337   H338    1.026   .     S
N337   C339    1.451   .     S
C339   H341    1.108   .     S
C339   H342    1.112   .     S
C339   H340    1.110   .     S
N343   H344    1.014   .     S
N343   C345    1.452   .     S
C345   H347    1.111   .     S
C345   H348    1.111   .     S
C345   H1054   1.107   1_545 S
H346   C699    1.107   .     S
N349   H350    1.026   .     S
N349   C351    1.451   .     S
C351   H353    1.108   .     S
C351   H352    1.110   .     S
C351   H354    1.112   .     S
C355   C364    1.466   .     S
C355   O393    1.304   .     A
C355   O396    1.310   .     A
C356   O395    1.304   .     A
C356   O394    1.310   .     A
C356   C363    1.466   .     S
C357   C382    1.411   .     A
C357   N437    1.420   .     S
C357   C1445   1.408   1_554 S
C358   C381    1.411   .     A
C358   N443    1.420   .     S
C358   C1446   1.408   .     S
C359   H387    1.077   .     S
C359   C364    1.398   .     A
C359   C597    1.383   1_455 S
C360   C363    1.404   .     A
C360   H388    1.083   .     S
C360   C480    1.391   .     S
C361   H389    1.077   .     S
C361   C363    1.398   .     A
C361   C477    1.383   .     S
C362   H390    1.083   .     S
C362   C364    1.404   .     A
C362   C596    1.391   1_455 S
C365   N392    1.387   .     A
C365   N449    1.430   .     S
C366   N391    1.372   .     A
C366   N455    1.420   .     S
C366   C721    1.427   .     S
C367   N461    1.430   .     S
C367   N392    1.387   .     A
C368   N467    1.420   .     S
C368   N391    1.372   .     A
C368   C719    1.427   .     S
C369   C374    1.475   .     S
C369   O397    1.311   .     A
C369   O400    1.307   .     A
C370   O398    1.307   .     A
C370   O399    1.311   .     A
C370   C373    1.475   .     S
C371   C381    1.418   .     A
C371   N401    1.428   .     S
C371   C373    1.413   .     A
C372   N407    1.428   .     S
C372   C382    1.418   .     A
C372   C374    1.413   .     A
C373   C375    1.410   .     A
C374   C376    1.410   .     A
C375   N413    1.426   .     S
C375   C377    1.414   .     A
C376   N419    1.426   .     S
C376   C378    1.414   .     A
C377   C383    1.409   .     A
C377   C379    1.407   .     A
C378   C380    1.407   .     A
C378   C384    1.409   .     A
C379   C381    1.411   .     A
C379   C1442   1.413   .     S
C380   C382    1.411   .     A
C380   C1441   1.413   1_554 S
C383   N425    1.419   .     S
C383   C1419   1.408   .     S
C384   N431    1.419   .     S
C384   C1420   1.408   1_554 S
Cu385  O397    1.983   .     S
Cu385  Cu386   2.721   .     S
Cu385  O395    1.980   .     S
Cu385  O393    1.980   .     S
Cu385  N391    2.045   .     S
Cu385  O399    1.983   .     S
Cu386  N392    2.045   .     S
Cu386  O398    1.983   .     S
Cu386  O400    1.983   .     S
Cu386  O394    1.980   .     S
Cu386  O396    1.980   .     S
N401   C403    1.445   .     S
N401   H402    1.032   .     S
C403   H405    1.100   .     S
C403   H406    1.107   .     S
C403   H404    1.108   .     S
N407   H408    1.032   .     S
N407   C409    1.445   .     S
C409   H410    1.108   .     S
C409   H411    1.100   .     S
C409   H412    1.107   .     S
N413   H414    1.032   .     S
N413   C415    1.441   .     S
C415   H417    1.102   .     S
C415   H418    1.111   .     S
C415   H416    1.109   .     S
N419   C421    1.441   .     S
N419   H420    1.032   .     S
C421   H422    1.109   .     S
C421   H423    1.102   .     S
C421   H424    1.111   .     S
N425   H426    1.026   .     S
N425   C427    1.447   .     S
C427   H428    1.110   .     S
C427   H429    1.111   .     S
C427   H430    1.111   .     S
N431   H432    1.026   .     S
N431   C433    1.447   .     S
C433   H435    1.111   .     S
C433   H436    1.111   .     S
C433   H434    1.110   .     S
N437   H438    1.027   .     S
N437   C439    1.449   .     S
C439   H441    1.112   .     S
C439   H440    1.109   .     S
C439   H442    1.111   .     S
N443   C445    1.449   .     S
N443   H444    1.027   .     S
C445   H446    1.109   .     S
C445   H447    1.112   .     S
C445   H448    1.111   .     S
N449   H450    1.014   .     S
N449   C451    1.452   .     S
C451   H453    1.111   .     S
C451   H454    1.111   .     S
H452   C805    1.107   .     S
N455   H456    1.026   .     S
N455   C457    1.451   .     S
C457   H459    1.108   .     S
C457   H460    1.112   .     S
C457   H458    1.110   .     S
N461   H462    1.014   .     S
N461   C463    1.452   .     S
C463   H465    1.111   .     S
C463   H466    1.111   .     S
H464   C817    1.107   .     S
N467   H468    1.026   .     S
N467   C469    1.451   .     S
C469   H471    1.108   .     S
C469   H470    1.110   .     S
C469   H472    1.112   .     S
C473   C482    1.466   .     S
C473   O511    1.304   .     A
C473   O514    1.310   .     A
C474   O513    1.304   .     A
C474   O512    1.310   .     A
C474   C481    1.466   .     S
C475   C500    1.411   .     A
C475   N555    1.420   .     S
C475   C1563   1.408   1_554 S
C476   C499    1.411   .     A
C476   N561    1.420   .     S
C476   C1564   1.408   .     S
C477   H505    1.077   .     S
C477   C482    1.398   .     A
C478   C481    1.404   .     A
C478   H506    1.083   .     S
C478   C598    1.391   .     S
C479   H507    1.077   .     S
C479   C481    1.398   .     A
C479   C595    1.383   .     S
C480   H508    1.083   .     S
C480   C482    1.404   .     A
C483   N510    1.387   .     A
C483   N567    1.430   .     S
C484   N509    1.372   .     A
C484   N573    1.420   .     S
C484   C839    1.427   .     S
C485   N579    1.430   .     S
C485   N510    1.387   .     A
C486   N585    1.420   .     S
C486   N509    1.372   .     A
C486   C837    1.427   .     S
C487   C492    1.475   .     S
C487   O515    1.311   .     A
C487   O518    1.307   .     A
C488   O516    1.307   .     A
C488   O517    1.311   .     A
C488   C491    1.475   .     S
C489   C499    1.418   .     A
C489   N519    1.428   .     S
C489   C491    1.413   .     A
C490   N525    1.428   .     S
C490   C500    1.418   .     A
C490   C492    1.413   .     A
C491   C493    1.410   .     A
C492   C494    1.410   .     A
C493   N531    1.426   .     S
C493   C495    1.414   .     A
C494   N537    1.426   .     S
C494   C496    1.414   .     A
C495   C501    1.409   .     A
C495   C497    1.407   .     A
C496   C498    1.407   .     A
C496   C502    1.409   .     A
C497   C499    1.411   .     A
C497   C1560   1.413   .     S
C498   C500    1.411   .     A
C498   C1559   1.413   1_554 S
C501   N543    1.419   .     S
C501   C1537   1.408   .     S
C502   N549    1.419   .     S
C502   C1538   1.408   1_554 S
Cu503  O515    1.983   .     S
Cu503  Cu504   2.721   .     S
Cu503  O513    1.980   .     S
Cu503  O511    1.980   .     S
Cu503  N509    2.045   .     S
Cu503  O517    1.983   .     S
Cu504  N510    2.045   .     S
Cu504  O516    1.983   .     S
Cu504  O518    1.983   .     S
Cu504  O512    1.980   .     S
Cu504  O514    1.980   .     S
N519   C521    1.445   .     S
N519   H520    1.032   .     S
C521   H523    1.100   .     S
C521   H524    1.107   .     S
C521   H522    1.108   .     S
N525   H526    1.032   .     S
N525   C527    1.445   .     S
C527   H528    1.108   .     S
C527   H529    1.100   .     S
C527   H530    1.107   .     S
N531   H532    1.032   .     S
N531   C533    1.441   .     S
C533   H535    1.102   .     S
C533   H536    1.111   .     S
C533   H534    1.109   .     S
N537   C539    1.441   .     S
N537   H538    1.032   .     S
C539   H540    1.109   .     S
C539   H541    1.102   .     S
C539   H542    1.111   .     S
N543   H544    1.026   .     S
N543   C545    1.447   .     S
C545   H546    1.110   .     S
C545   H547    1.111   .     S
C545   H548    1.111   .     S
N549   H550    1.026   .     S
N549   C551    1.447   .     S
C551   H553    1.111   .     S
C551   H554    1.111   .     S
C551   H552    1.110   .     S
N555   H556    1.027   .     S
N555   C557    1.449   .     S
C557   H559    1.112   .     S
C557   H558    1.109   .     S
C557   H560    1.111   .     S
N561   C563    1.449   .     S
N561   H562    1.027   .     S
C563   H564    1.109   .     S
C563   H565    1.112   .     S
C563   H566    1.111   .     S
N567   H568    1.014   .     S
N567   C569    1.452   .     S
C569   H571    1.111   .     S
C569   H572    1.111   .     S
H570   C923    1.107   .     S
N573   H574    1.026   .     S
N573   C575    1.451   .     S
C575   H577    1.108   .     S
C575   H578    1.112   .     S
C575   H576    1.110   .     S
N579   H580    1.014   .     S
N579   C581    1.452   .     S
C581   H583    1.111   .     S
C581   H584    1.111   .     S
H582   C935    1.107   .     S
N585   H586    1.026   .     S
N585   C587    1.451   .     S
C587   H589    1.108   .     S
C587   H588    1.110   .     S
C587   H590    1.112   .     S
C591   C600    1.466   .     S
C591   O629    1.304   .     A
C591   O632    1.310   .     A
C592   O631    1.304   .     A
C592   O630    1.310   .     A
C592   C599    1.466   .     S
C593   C618    1.411   .     A
C593   N673    1.420   .     S
C593   C1681   1.408   1_554 S
C594   C617    1.411   .     A
C594   N679    1.420   .     S
C594   C1682   1.408   .     S
C595   H623    1.077   .     S
C595   C600    1.398   .     A
C596   C599    1.404   .     A
C596   H624    1.083   .     S
C596   C362    1.391   1_655 S
C597   H625    1.077   .     S
C597   C599    1.398   .     A
C597   C359    1.383   1_655 S
C598   H626    1.083   .     S
C598   C600    1.404   .     A
C601   N628    1.387   .     A
C601   N685    1.430   .     S
C602   N627    1.372   .     A
C602   N691    1.420   .     S
C602   C957    1.427   .     S
C603   N697    1.430   .     S
C603   N628    1.387   .     A
C604   N703    1.420   .     S
C604   N627    1.372   .     A
C604   C955    1.427   .     S
C605   C610    1.475   .     S
C605   O633    1.311   .     A
C605   O636    1.307   .     A
C606   O634    1.307   .     A
C606   O635    1.311   .     A
C606   C609    1.475   .     S
C607   C617    1.418   .     A
C607   N637    1.428   .     S
C607   C609    1.413   .     A
C608   N643    1.428   .     S
C608   C618    1.418   .     A
C608   C610    1.413   .     A
C609   C611    1.410   .     A
C610   C612    1.410   .     A
C611   N649    1.426   .     S
C611   C613    1.414   .     A
C612   N655    1.426   .     S
C612   C614    1.414   .     A
C613   C619    1.409   .     A
C613   C615    1.407   .     A
C614   C616    1.407   .     A
C614   C620    1.409   .     A
C615   C617    1.411   .     A
C615   C1678   1.413   .     S
C616   C618    1.411   .     A
C616   C1677   1.413   1_554 S
C619   N661    1.419   .     S
C619   C1655   1.408   .     S
C620   N667    1.419   .     S
C620   C1656   1.408   1_554 S
Cu621  O633    1.983   .     S
Cu621  Cu622   2.721   .     S
Cu621  O631    1.980   .     S
Cu621  O629    1.980   .     S
Cu621  N627    2.045   .     S
Cu621  O635    1.983   .     S
Cu622  N628    2.045   .     S
Cu622  O634    1.983   .     S
Cu622  O636    1.983   .     S
Cu622  O630    1.980   .     S
Cu622  O632    1.980   .     S
N637   C639    1.445   .     S
N637   H638    1.032   .     S
C639   H641    1.100   .     S
C639   H642    1.107   .     S
C639   H640    1.108   .     S
N643   H644    1.032   .     S
N643   C645    1.445   .     S
C645   H646    1.108   .     S
C645   H647    1.100   .     S
C645   H648    1.107   .     S
N649   H650    1.032   .     S
N649   C651    1.441   .     S
C651   H653    1.102   .     S
C651   H654    1.111   .     S
C651   H652    1.109   .     S
N655   C657    1.441   .     S
N655   H656    1.032   .     S
C657   H658    1.109   .     S
C657   H659    1.102   .     S
C657   H660    1.111   .     S
N661   H662    1.026   .     S
N661   C663    1.447   .     S
C663   H664    1.110   .     S
C663   H665    1.111   .     S
C663   H666    1.111   .     S
N667   H668    1.026   .     S
N667   C669    1.447   .     S
C669   H671    1.111   .     S
C669   H672    1.111   .     S
C669   H670    1.110   .     S
N673   H674    1.027   .     S
N673   C675    1.449   .     S
C675   H677    1.112   .     S
C675   H676    1.109   .     S
C675   H678    1.111   .     S
N679   C681    1.449   .     S
N679   H680    1.027   .     S
C681   H682    1.109   .     S
C681   H683    1.112   .     S
C681   H684    1.111   .     S
N685   H686    1.014   .     S
N685   C687    1.452   .     S
C687   H689    1.111   .     S
C687   H690    1.111   .     S
H688   C1041   1.107   .     S
N691   H692    1.026   .     S
N691   C693    1.451   .     S
C693   H695    1.108   .     S
C693   H696    1.112   .     S
C693   H694    1.110   .     S
N697   H698    1.014   .     S
N697   C699    1.452   .     S
C699   H701    1.111   .     S
C699   H702    1.111   .     S
H700   C1053   1.107   .     S
N703   H704    1.026   .     S
N703   C705    1.451   .     S
C705   H707    1.108   .     S
C705   H706    1.110   .     S
C705   H708    1.112   .     S
C709   C718    1.466   .     S
C709   O747    1.304   .     A
C709   O750    1.310   .     A
C710   O749    1.304   .     A
C710   O748    1.310   .     A
C710   C717    1.466   .     S
C711   C736    1.411   .     A
C711   N791    1.420   .     S
C711   C1799   1.408   1_554 S
C712   C735    1.411   .     A
C712   N797    1.420   .     S
C712   C1800   1.408   .     S
C713   H741    1.077   .     S
C713   C718    1.398   .     A
C713   C951    1.383   1_455 S
C714   C717    1.404   .     A
C714   H742    1.083   .     S
C714   C834    1.391   .     S
C715   H743    1.077   .     S
C715   C717    1.398   .     A
C715   C831    1.383   .     S
C716   H744    1.083   .     S
C716   C718    1.404   .     A
C716   C950    1.391   1_455 S
C719   N746    1.387   .     A
C719   N803    1.430   .     S
C720   N745    1.372   .     A
C720   N809    1.420   .     S
C720   C13     1.427   1_565 S
C721   N815    1.430   .     S
C721   N746    1.387   .     A
C722   N821    1.420   .     S
C722   N745    1.372   .     A
C722   C11     1.427   1_565 S
C723   C728    1.475   .     S
C723   O751    1.311   .     A
C723   O754    1.307   .     A
C724   O752    1.307   .     A
C724   O753    1.311   .     A
C724   C727    1.475   .     S
C725   C735    1.418   .     A
C725   N755    1.428   .     S
C725   C727    1.413   .     A
C726   N761    1.428   .     S
C726   C736    1.418   .     A
C726   C728    1.413   .     A
C727   C729    1.410   .     A
C728   C730    1.410   .     A
C729   N767    1.426   .     S
C729   C731    1.414   .     A
C730   N773    1.426   .     S
C730   C732    1.414   .     A
C731   C737    1.409   .     A
C731   C733    1.407   .     A
C732   C734    1.407   .     A
C732   C738    1.409   .     A
C733   C735    1.411   .     A
C733   C1796   1.413   .     S
C734   C736    1.411   .     A
C734   C1795   1.413   1_554 S
C737   N779    1.419   .     S
C737   C1773   1.408   .     S
C738   N785    1.419   .     S
C738   C1774   1.408   1_554 S
Cu739  O751    1.983   .     S
Cu739  Cu740   2.721   .     S
Cu739  O749    1.980   .     S
Cu739  O747    1.980   .     S
Cu739  N745    2.045   .     S
Cu739  O753    1.983   .     S
Cu740  N746    2.045   .     S
Cu740  O752    1.983   .     S
Cu740  O754    1.983   .     S
Cu740  O748    1.980   .     S
Cu740  O750    1.980   .     S
N755   C757    1.445   .     S
N755   H756    1.032   .     S
C757   H759    1.100   .     S
C757   H760    1.107   .     S
C757   H758    1.108   .     S
N761   H762    1.032   .     S
N761   C763    1.445   .     S
C763   H764    1.108   .     S
C763   H765    1.100   .     S
C763   H766    1.107   .     S
N767   H768    1.032   .     S
N767   C769    1.441   .     S
C769   H771    1.102   .     S
C769   H772    1.111   .     S
C769   H770    1.109   .     S
N773   C775    1.441   .     S
N773   H774    1.032   .     S
C775   H776    1.109   .     S
C775   H777    1.102   .     S
C775   H778    1.111   .     S
N779   H780    1.026   .     S
N779   C781    1.447   .     S
C781   H782    1.110   .     S
C781   H783    1.111   .     S
C781   H784    1.111   .     S
N785   H786    1.026   .     S
N785   C787    1.447   .     S
C787   H789    1.111   .     S
C787   H790    1.111   .     S
C787   H788    1.110   .     S
N791   H792    1.027   .     S
N791   C793    1.449   .     S
C793   H795    1.112   .     S
C793   H794    1.109   .     S
C793   H796    1.111   .     S
N797   C799    1.449   .     S
N797   H798    1.027   .     S
C799   H800    1.109   .     S
C799   H801    1.112   .     S
C799   H802    1.111   .     S
N803   H804    1.014   .     S
N803   C805    1.452   .     S
C805   H807    1.111   .     S
C805   H808    1.111   .     S
H806   C97     1.107   1_565 S
N809   H810    1.026   .     S
N809   C811    1.451   .     S
C811   H813    1.108   .     S
C811   H814    1.112   .     S
C811   H812    1.110   .     S
N815   H816    1.014   .     S
N815   C817    1.452   .     S
C817   H819    1.111   .     S
C817   H820    1.111   .     S
H818   C109    1.107   1_565 S
N821   H822    1.026   .     S
N821   C823    1.451   .     S
C823   H825    1.108   .     S
C823   H824    1.110   .     S
C823   H826    1.112   .     S
C827   C836    1.466   .     S
C827   O865    1.304   .     A
C827   O868    1.310   .     A
C828   O867    1.304   .     A
C828   O866    1.310   .     A
C828   C835    1.466   .     S
C829   C854    1.411   .     A
C829   N909    1.420   .     S
C829   C1917   1.408   1_554 S
C830   C853    1.411   .     A
C830   N915    1.420   .     S
C830   C1918   1.408   .     S
C831   H859    1.077   .     S
C831   C836    1.398   .     A
C832   C835    1.404   .     A
C832   H860    1.083   .     S
C832   C952    1.391   .     S
C833   H861    1.077   .     S
C833   C835    1.398   .     A
C833   C949    1.383   .     S
C834   H862    1.083   .     S
C834   C836    1.404   .     A
C837   N864    1.387   .     A
C837   N921    1.430   .     S
C838   N863    1.372   .     A
C838   N927    1.420   .     S
C838   C131    1.427   1_565 S
C839   N933    1.430   .     S
C839   N864    1.387   .     A
C840   N939    1.420   .     S
C840   N863    1.372   .     A
C840   C129    1.427   1_565 S
C841   C846    1.475   .     S
C841   O869    1.311   .     A
C841   O872    1.307   .     A
C842   O870    1.307   .     A
C842   O871    1.311   .     A
C842   C845    1.475   .     S
C843   C853    1.418   .     A
C843   N873    1.428   .     S
C843   C845    1.413   .     A
C844   N879    1.428   .     S
C844   C854    1.418   .     A
C844   C846    1.413   .     A
C845   C847    1.410   .     A
C846   C848    1.410   .     A
C847   N885    1.426   .     S
C847   C849    1.414   .     A
C848   N891    1.426   .     S
C848   C850    1.414   .     A
C849   C855    1.409   .     A
C849   C851    1.407   .     A
C850   C852    1.407   .     A
C850   C856    1.409   .     A
C851   C853    1.411   .     A
C851   C1914   1.413   .     S
C852   C854    1.411   .     A
C852   C1913   1.413   1_554 S
C855   N897    1.419   .     S
C855   C1891   1.408   .     S
C856   N903    1.419   .     S
C856   C1892   1.408   1_554 S
Cu857  O869    1.983   .     S
Cu857  Cu858   2.721   .     S
Cu857  O867    1.980   .     S
Cu857  O865    1.980   .     S
Cu857  N863    2.045   .     S
Cu857  O871    1.983   .     S
Cu858  N864    2.045   .     S
Cu858  O870    1.983   .     S
Cu858  O872    1.983   .     S
Cu858  O866    1.980   .     S
Cu858  O868    1.980   .     S
N873   C875    1.445   .     S
N873   H874    1.032   .     S
C875   H877    1.100   .     S
C875   H878    1.107   .     S
C875   H876    1.108   .     S
N879   H880    1.032   .     S
N879   C881    1.445   .     S
C881   H882    1.108   .     S
C881   H883    1.100   .     S
C881   H884    1.107   .     S
N885   H886    1.032   .     S
N885   C887    1.441   .     S
C887   H889    1.102   .     S
C887   H890    1.111   .     S
C887   H888    1.109   .     S
N891   C893    1.441   .     S
N891   H892    1.032   .     S
C893   H894    1.109   .     S
C893   H895    1.102   .     S
C893   H896    1.111   .     S
N897   H898    1.026   .     S
N897   C899    1.447   .     S
C899   H900    1.110   .     S
C899   H901    1.111   .     S
C899   H902    1.111   .     S
N903   H904    1.026   .     S
N903   C905    1.447   .     S
C905   H907    1.111   .     S
C905   H908    1.111   .     S
C905   H906    1.110   .     S
N909   H910    1.027   .     S
N909   C911    1.449   .     S
C911   H913    1.112   .     S
C911   H912    1.109   .     S
C911   H914    1.111   .     S
N915   C917    1.449   .     S
N915   H916    1.027   .     S
C917   H918    1.109   .     S
C917   H919    1.112   .     S
C917   H920    1.111   .     S
N921   H922    1.014   .     S
N921   C923    1.452   .     S
C923   H925    1.111   .     S
C923   H926    1.111   .     S
H924   C215    1.107   1_565 S
N927   H928    1.026   .     S
N927   C929    1.451   .     S
C929   H931    1.108   .     S
C929   H932    1.112   .     S
C929   H930    1.110   .     S
N933   H934    1.014   .     S
N933   C935    1.452   .     S
C935   H937    1.111   .     S
C935   H938    1.111   .     S
H936   C227    1.107   1_565 S
N939   H940    1.026   .     S
N939   C941    1.451   .     S
C941   H943    1.108   .     S
C941   H942    1.110   .     S
C941   H944    1.112   .     S
C945   C954    1.466   .     S
C945   O983    1.304   .     A
C945   O986    1.310   .     A
C946   O985    1.304   .     A
C946   O984    1.310   .     A
C946   C953    1.466   .     S
C947   C972    1.411   .     A
C947   N1027   1.420   .     S
C947   C2035   1.408   1_554 S
C948   C971    1.411   .     A
C948   N1033   1.420   .     S
C948   C2036   1.408   .     S
C949   H977    1.077   .     S
C949   C954    1.398   .     A
C950   C953    1.404   .     A
C950   H978    1.083   .     S
C950   C716    1.391   1_655 S
C951   H979    1.077   .     S
C951   C953    1.398   .     A
C951   C713    1.383   1_655 S
C952   H980    1.083   .     S
C952   C954    1.404   .     A
C955   N982    1.387   .     A
C955   N1039   1.430   .     S
C956   N981    1.372   .     A
C956   N1045   1.420   .     S
C956   C249    1.427   1_565 S
C957   N1051   1.430   .     S
C957   N982    1.387   .     A
C958   N1057   1.420   .     S
C958   N981    1.372   .     A
C958   C247    1.427   1_565 S
C959   C964    1.475   .     S
C959   O987    1.311   .     A
C959   O990    1.307   .     A
C960   O988    1.307   .     A
C960   O989    1.311   .     A
C960   C963    1.475   .     S
C961   C971    1.418   .     A
C961   N991    1.428   .     S
C961   C963    1.413   .     A
C962   N997    1.428   .     S
C962   C972    1.418   .     A
C962   C964    1.413   .     A
C963   C965    1.410   .     A
C964   C966    1.410   .     A
C965   N1003   1.426   .     S
C965   C967    1.414   .     A
C966   N1009   1.426   .     S
C966   C968    1.414   .     A
C967   C973    1.409   .     A
C967   C969    1.407   .     A
C968   C970    1.407   .     A
C968   C974    1.409   .     A
C969   C971    1.411   .     A
C969   C2032   1.413   .     S
C970   C972    1.411   .     A
C970   C2031   1.413   1_554 S
C973   N1015   1.419   .     S
C973   C2009   1.408   .     S
C974   N1021   1.419   .     S
C974   C2010   1.408   1_554 S
Cu975  O987    1.983   .     S
Cu975  Cu976   2.721   .     S
Cu975  O985    1.980   .     S
Cu975  O983    1.980   .     S
Cu975  N981    2.045   .     S
Cu975  O989    1.983   .     S
Cu976  N982    2.045   .     S
Cu976  O988    1.983   .     S
Cu976  O990    1.983   .     S
Cu976  O984    1.980   .     S
Cu976  O986    1.980   .     S
N991   C993    1.445   .     S
N991   H992    1.032   .     S
C993   H995    1.100   .     S
C993   H996    1.107   .     S
C993   H994    1.108   .     S
N997   H998    1.032   .     S
N997   C999    1.445   .     S
C999   H1000   1.108   .     S
C999   H1001   1.100   .     S
C999   H1002   1.107   .     S
N1003  H1004   1.032   .     S
N1003  C1005   1.441   .     S
C1005  H1007   1.102   .     S
C1005  H1008   1.111   .     S
C1005  H1006   1.109   .     S
N1009  C1011   1.441   .     S
N1009  H1010   1.032   .     S
C1011  H1012   1.109   .     S
C1011  H1013   1.102   .     S
C1011  H1014   1.111   .     S
N1015  H1016   1.026   .     S
N1015  C1017   1.447   .     S
C1017  H1018   1.110   .     S
C1017  H1019   1.111   .     S
C1017  H1020   1.111   .     S
N1021  H1022   1.026   .     S
N1021  C1023   1.447   .     S
C1023  H1025   1.111   .     S
C1023  H1026   1.111   .     S
C1023  H1024   1.110   .     S
N1027  H1028   1.027   .     S
N1027  C1029   1.449   .     S
C1029  H1031   1.112   .     S
C1029  H1030   1.109   .     S
C1029  H1032   1.111   .     S
N1033  C1035   1.449   .     S
N1033  H1034   1.027   .     S
C1035  H1036   1.109   .     S
C1035  H1037   1.112   .     S
C1035  H1038   1.111   .     S
N1039  H1040   1.014   .     S
N1039  C1041   1.452   .     S
C1041  H1043   1.111   .     S
C1041  H1044   1.111   .     S
H1042  C333    1.107   1_565 S
N1045  H1046   1.026   .     S
N1045  C1047   1.451   .     S
C1047  H1049   1.108   .     S
C1047  H1050   1.112   .     S
C1047  H1048   1.110   .     S
N1051  H1052   1.014   .     S
N1051  C1053   1.452   .     S
C1053  H1055   1.111   .     S
C1053  H1056   1.111   .     S
H1054  C345    1.107   1_565 S
N1057  H1058   1.026   .     S
N1057  C1059   1.451   .     S
C1059  H1061   1.108   .     S
C1059  H1060   1.110   .     S
C1059  H1062   1.112   .     S
C1063  C1072   1.466   .     S
C1063  O1101   1.304   .     A
C1063  O1104   1.310   .     A
C1064  O1103   1.304   .     A
C1064  O1102   1.310   .     A
C1064  C1071   1.466   .     S
C1065  C1090   1.411   .     A
C1065  N1145   1.420   .     S
C1066  C1089   1.411   .     A
C1066  N1151   1.420   .     S
C1066  C30     1.408   1_556 S
C1067  H1095   1.077   .     S
C1067  C1072   1.398   .     A
C1067  C1305   1.383   1_455 S
C1068  C1071   1.404   .     A
C1068  H1096   1.083   .     S
C1068  C1188   1.391   .     S
C1069  H1097   1.077   .     S
C1069  C1071   1.398   .     A
C1069  C1185   1.383   .     S
C1070  H1098   1.083   .     S
C1070  C1072   1.404   .     A
C1070  C1304   1.391   1_455 S
C1073  N1100   1.387   .     A
C1073  N1157   1.430   .     S
C1073  C1784   1.427   1_545 S
C1074  N1099   1.372   .     A
C1074  N1163   1.420   .     S
C1074  C1429   1.427   .     S
C1075  N1169   1.430   .     S
C1075  N1100   1.387   .     A
C1075  C1782   1.427   1_545 S
C1076  N1175   1.420   .     S
C1076  N1099   1.372   .     A
C1076  C1427   1.427   .     S
C1077  C1082   1.475   .     S
C1077  O1105   1.311   .     A
C1077  O1108   1.307   .     A
C1078  O1106   1.307   .     A
C1078  O1107   1.311   .     A
C1078  C1081   1.475   .     S
C1079  C1089   1.418   .     A
C1079  N1109   1.428   .     S
C1079  C1081   1.413   .     A
C1080  N1115   1.428   .     S
C1080  C1090   1.418   .     A
C1080  C1082   1.413   .     A
C1081  C1083   1.410   .     A
C1082  C1084   1.410   .     A
C1083  N1121   1.426   .     S
C1083  C1085   1.414   .     A
C1084  N1127   1.426   .     S
C1084  C1086   1.414   .     A
C1085  C1091   1.409   .     A
C1085  C1087   1.407   .     A
C1086  C1088   1.407   .     A
C1086  C1092   1.409   .     A
C1087  C1089   1.411   .     A
C1087  C26     1.413   1_556 S
C1088  C1090   1.411   .     A
C1091  N1133   1.419   .     S
C1091  C3      1.408   1_556 S
C1092  N1139   1.419   .     S
Cu1093 O1105   1.983   .     S
Cu1093 Cu1094  2.721   .     S
Cu1093 O1103   1.980   .     S
Cu1093 O1101   1.980   .     S
Cu1093 N1099   2.045   .     S
Cu1093 O1107   1.983   .     S
Cu1094 N1100   2.045   .     S
Cu1094 O1106   1.983   .     S
Cu1094 O1108   1.983   .     S
Cu1094 O1102   1.980   .     S
Cu1094 O1104   1.980   .     S
N1109  C1111   1.445   .     S
N1109  H1110   1.032   .     S
C1111  H1113   1.100   .     S
C1111  H1114   1.107   .     S
C1111  H1112   1.108   .     S
N1115  H1116   1.032   .     S
N1115  C1117   1.445   .     S
C1117  H1118   1.108   .     S
C1117  H1119   1.100   .     S
C1117  H1120   1.107   .     S
N1121  H1122   1.032   .     S
N1121  C1123   1.441   .     S
C1123  H1125   1.102   .     S
C1123  H1126   1.111   .     S
C1123  H1124   1.109   .     S
N1127  C1129   1.441   .     S
N1127  H1128   1.032   .     S
C1129  H1130   1.109   .     S
C1129  H1131   1.102   .     S
C1129  H1132   1.111   .     S
N1133  H1134   1.026   .     S
N1133  C1135   1.447   .     S
C1135  H1136   1.110   .     S
C1135  H1137   1.111   .     S
C1135  H1138   1.111   .     S
N1139  H1140   1.026   .     S
N1139  C1141   1.447   .     S
C1141  H1143   1.111   .     S
C1141  H1144   1.111   .     S
C1141  H1142   1.110   .     S
N1145  H1146   1.027   .     S
N1145  C1147   1.449   .     S
C1147  H1149   1.112   .     S
C1147  H1148   1.109   .     S
C1147  H1150   1.111   .     S
N1151  C1153   1.449   .     S
N1151  H1152   1.027   .     S
C1153  H1154   1.109   .     S
C1153  H1155   1.112   .     S
C1153  H1156   1.111   .     S
N1157  H1158   1.014   .     S
N1157  C1159   1.452   .     S
C1159  H1161   1.111   .     S
C1159  H1162   1.111   .     S
C1159  H1868   1.107   1_545 S
H1160  C1513   1.107   .     S
N1163  H1164   1.026   .     S
N1163  C1165   1.451   .     S
C1165  H1167   1.108   .     S
C1165  H1168   1.112   .     S
C1165  H1166   1.110   .     S
N1169  H1170   1.014   .     S
N1169  C1171   1.452   .     S
C1171  H1173   1.111   .     S
C1171  H1174   1.111   .     S
C1171  H1880   1.107   1_545 S
H1172  C1525   1.107   .     S
N1175  H1176   1.026   .     S
N1175  C1177   1.451   .     S
C1177  H1179   1.108   .     S
C1177  H1178   1.110   .     S
C1177  H1180   1.112   .     S
C1181  C1190   1.466   .     S
C1181  O1219   1.304   .     A
C1181  O1222   1.310   .     A
C1182  O1221   1.304   .     A
C1182  O1220   1.310   .     A
C1182  C1189   1.466   .     S
C1183  C1208   1.411   .     A
C1183  N1263   1.420   .     S
C1184  C1207   1.411   .     A
C1184  N1269   1.420   .     S
C1184  C148    1.408   1_556 S
C1185  H1213   1.077   .     S
C1185  C1190   1.398   .     A
C1186  C1189   1.404   .     A
C1186  H1214   1.083   .     S
C1186  C1306   1.391   .     S
C1187  H1215   1.077   .     S
C1187  C1189   1.398   .     A
C1187  C1303   1.383   .     S
C1188  H1216   1.083   .     S
C1188  C1190   1.404   .     A
C1191  N1218   1.387   .     A
C1191  N1275   1.430   .     S
C1191  C1902   1.427   1_545 S
C1192  N1217   1.372   .     A
C1192  N1281   1.420   .     S
C1192  C1547   1.427   .     S
C1193  N1287   1.430   .     S
C1193  N1218   1.387   .     A
C1193  C1900   1.427   1_545 S
C1194  N1293   1.420   .     S
C1194  N1217   1.372   .     A
C1194  C1545   1.427   .     S
C1195  C1200   1.475   .     S
C1195  O1223   1.311   .     A
C1195  O1226   1.307   .     A
C1196  O1224   1.307   .     A
C1196  O1225   1.311   .     A
C1196  C1199   1.475   .     S
C1197  C1207   1.418   .     A
C1197  N1227   1.428   .     S
C1197  C1199   1.413   .     A
C1198  N1233   1.428   .     S
C1198  C1208   1.418   .     A
C1198  C1200   1.413   .     A
C1199  C1201   1.410   .     A
C1200  C1202   1.410   .     A
C1201  N1239   1.426   .     S
C1201  C1203   1.414   .     A
C1202  N1245   1.426   .     S
C1202  C1204   1.414   .     A
C1203  C1209   1.409   .     A
C1203  C1205   1.407   .     A
C1204  C1206   1.407   .     A
C1204  C1210   1.409   .     A
C1205  C1207   1.411   .     A
C1205  C144    1.413   1_556 S
C1206  C1208   1.411   .     A
C1209  N1251   1.419   .     S
C1209  C121    1.408   1_556 S
C1210  N1257   1.419   .     S
Cu1211 O1223   1.983   .     S
Cu1211 Cu1212  2.721   .     S
Cu1211 O1221   1.980   .     S
Cu1211 O1219   1.980   .     S
Cu1211 N1217   2.045   .     S
Cu1211 O1225   1.983   .     S
Cu1212 N1218   2.045   .     S
Cu1212 O1224   1.983   .     S
Cu1212 O1226   1.983   .     S
Cu1212 O1220   1.980   .     S
Cu1212 O1222   1.980   .     S
N1227  C1229   1.445   .     S
N1227  H1228   1.032   .     S
C1229  H1231   1.100   .     S
C1229  H1232   1.107   .     S
C1229  H1230   1.108   .     S
N1233  H1234   1.032   .     S
N1233  C1235   1.445   .     S
C1235  H1236   1.108   .     S
C1235  H1237   1.100   .     S
C1235  H1238   1.107   .     S
N1239  H1240   1.032   .     S
N1239  C1241   1.441   .     S
C1241  H1243   1.102   .     S
C1241  H1244   1.111   .     S
C1241  H1242   1.109   .     S
N1245  C1247   1.441   .     S
N1245  H1246   1.032   .     S
C1247  H1248   1.109   .     S
C1247  H1249   1.102   .     S
C1247  H1250   1.111   .     S
N1251  H1252   1.026   .     S
N1251  C1253   1.447   .     S
C1253  H1254   1.110   .     S
C1253  H1255   1.111   .     S
C1253  H1256   1.111   .     S
N1257  H1258   1.026   .     S
N1257  C1259   1.447   .     S
C1259  H1261   1.111   .     S
C1259  H1262   1.111   .     S
C1259  H1260   1.110   .     S
N1263  H1264   1.027   .     S
N1263  C1265   1.449   .     S
C1265  H1267   1.112   .     S
C1265  H1266   1.109   .     S
C1265  H1268   1.111   .     S
N1269  C1271   1.449   .     S
N1269  H1270   1.027   .     S
C1271  H1272   1.109   .     S
C1271  H1273   1.112   .     S
C1271  H1274   1.111   .     S
N1275  H1276   1.014   .     S
N1275  C1277   1.452   .     S
C1277  H1279   1.111   .     S
C1277  H1280   1.111   .     S
C1277  H1986   1.107   1_545 S
H1278  C1631   1.107   .     S
N1281  H1282   1.026   .     S
N1281  C1283   1.451   .     S
C1283  H1285   1.108   .     S
C1283  H1286   1.112   .     S
C1283  H1284   1.110   .     S
N1287  H1288   1.014   .     S
N1287  C1289   1.452   .     S
C1289  H1291   1.111   .     S
C1289  H1292   1.111   .     S
C1289  H1998   1.107   1_545 S
H1290  C1643   1.107   .     S
N1293  H1294   1.026   .     S
N1293  C1295   1.451   .     S
C1295  H1297   1.108   .     S
C1295  H1296   1.110   .     S
C1295  H1298   1.112   .     S
C1299  C1308   1.466   .     S
C1299  O1337   1.304   .     A
C1299  O1340   1.310   .     A
C1300  O1339   1.304   .     A
C1300  O1338   1.310   .     A
C1300  C1307   1.466   .     S
C1301  C1326   1.411   .     A
C1301  N1381   1.420   .     S
C1302  C1325   1.411   .     A
C1302  N1387   1.420   .     S
C1302  C266    1.408   1_556 S
C1303  H1331   1.077   .     S
C1303  C1308   1.398   .     A
C1304  C1307   1.404   .     A
C1304  H1332   1.083   .     S
C1304  C1070   1.391   1_655 S
C1305  H1333   1.077   .     S
C1305  C1307   1.398   .     A
C1305  C1067   1.383   1_655 S
C1306  H1334   1.083   .     S
C1306  C1308   1.404   .     A
C1309  N1336   1.387   .     A
C1309  N1393   1.430   .     S
C1309  C2020   1.427   1_545 S
C1310  N1335   1.372   .     A
C1310  N1399   1.420   .     S
C1310  C1665   1.427   .     S
C1311  N1405   1.430   .     S
C1311  N1336   1.387   .     A
C1311  C2018   1.427   1_545 S
C1312  N1411   1.420   .     S
C1312  N1335   1.372   .     A
C1312  C1663   1.427   .     S
C1313  C1318   1.475   .     S
C1313  O1341   1.311   .     A
C1313  O1344   1.307   .     A
C1314  O1342   1.307   .     A
C1314  O1343   1.311   .     A
C1314  C1317   1.475   .     S
C1315  C1325   1.418   .     A
C1315  N1345   1.428   .     S
C1315  C1317   1.413   .     A
C1316  N1351   1.428   .     S
C1316  C1326   1.418   .     A
C1316  C1318   1.413   .     A
C1317  C1319   1.410   .     A
C1318  C1320   1.410   .     A
C1319  N1357   1.426   .     S
C1319  C1321   1.414   .     A
C1320  N1363   1.426   .     S
C1320  C1322   1.414   .     A
C1321  C1327   1.409   .     A
C1321  C1323   1.407   .     A
C1322  C1324   1.407   .     A
C1322  C1328   1.409   .     A
C1323  C1325   1.411   .     A
C1323  C262    1.413   1_556 S
C1324  C1326   1.411   .     A
C1327  N1369   1.419   .     S
C1327  C239    1.408   1_556 S
C1328  N1375   1.419   .     S
Cu1329 O1341   1.983   .     S
Cu1329 Cu1330  2.721   .     S
Cu1329 O1339   1.980   .     S
Cu1329 O1337   1.980   .     S
Cu1329 N1335   2.045   .     S
Cu1329 O1343   1.983   .     S
Cu1330 N1336   2.045   .     S
Cu1330 O1342   1.983   .     S
Cu1330 O1344   1.983   .     S
Cu1330 O1338   1.980   .     S
Cu1330 O1340   1.980   .     S
N1345  C1347   1.445   .     S
N1345  H1346   1.032   .     S
C1347  H1349   1.100   .     S
C1347  H1350   1.107   .     S
C1347  H1348   1.108   .     S
N1351  H1352   1.032   .     S
N1351  C1353   1.445   .     S
C1353  H1354   1.108   .     S
C1353  H1355   1.100   .     S
C1353  H1356   1.107   .     S
N1357  H1358   1.032   .     S
N1357  C1359   1.441   .     S
C1359  H1361   1.102   .     S
C1359  H1362   1.111   .     S
C1359  H1360   1.109   .     S
N1363  C1365   1.441   .     S
N1363  H1364   1.032   .     S
C1365  H1366   1.109   .     S
C1365  H1367   1.102   .     S
C1365  H1368   1.111   .     S
N1369  H1370   1.026   .     S
N1369  C1371   1.447   .     S
C1371  H1372   1.110   .     S
C1371  H1373   1.111   .     S
C1371  H1374   1.111   .     S
N1375  H1376   1.026   .     S
N1375  C1377   1.447   .     S
C1377  H1379   1.111   .     S
C1377  H1380   1.111   .     S
C1377  H1378   1.110   .     S
N1381  H1382   1.027   .     S
N1381  C1383   1.449   .     S
C1383  H1385   1.112   .     S
C1383  H1384   1.109   .     S
C1383  H1386   1.111   .     S
N1387  C1389   1.449   .     S
N1387  H1388   1.027   .     S
C1389  H1390   1.109   .     S
C1389  H1391   1.112   .     S
C1389  H1392   1.111   .     S
N1393  H1394   1.014   .     S
N1393  C1395   1.452   .     S
C1395  H1397   1.111   .     S
C1395  H1398   1.111   .     S
C1395  H2104   1.107   1_545 S
H1396  C1749   1.107   .     S
N1399  H1400   1.026   .     S
N1399  C1401   1.451   .     S
C1401  H1403   1.108   .     S
C1401  H1404   1.112   .     S
C1401  H1402   1.110   .     S
N1405  H1406   1.014   .     S
N1405  C1407   1.452   .     S
C1407  H1409   1.111   .     S
C1407  H1410   1.111   .     S
C1407  H2116   1.107   1_545 S
H1408  C1761   1.107   .     S
N1411  H1412   1.026   .     S
N1411  C1413   1.451   .     S
C1413  H1415   1.108   .     S
C1413  H1414   1.110   .     S
C1413  H1416   1.112   .     S
C1417  C1426   1.466   .     S
C1417  O1455   1.304   .     A
C1417  O1458   1.310   .     A
C1418  O1457   1.304   .     A
C1418  O1456   1.310   .     A
C1418  C1425   1.466   .     S
C1419  C1444   1.411   .     A
C1419  N1499   1.420   .     S
C1420  C1443   1.411   .     A
C1420  N1505   1.420   .     S
C1420  C384    1.408   1_556 S
C1421  H1449   1.077   .     S
C1421  C1426   1.398   .     A
C1421  C1659   1.383   1_455 S
C1422  C1425   1.404   .     A
C1422  H1450   1.083   .     S
C1422  C1542   1.391   .     S
C1423  H1451   1.077   .     S
C1423  C1425   1.398   .     A
C1423  C1539   1.383   .     S
C1424  H1452   1.083   .     S
C1424  C1426   1.404   .     A
C1424  C1658   1.391   1_455 S
C1427  N1454   1.387   .     A
C1427  N1511   1.430   .     S
C1428  N1453   1.372   .     A
C1428  N1517   1.420   .     S
C1428  C1783   1.427   .     S
C1429  N1523   1.430   .     S
C1429  N1454   1.387   .     A
C1430  N1529   1.420   .     S
C1430  N1453   1.372   .     A
C1430  C1781   1.427   .     S
C1431  C1436   1.475   .     S
C1431  O1459   1.311   .     A
C1431  O1462   1.307   .     A
C1432  O1460   1.307   .     A
C1432  O1461   1.311   .     A
C1432  C1435   1.475   .     S
C1433  C1443   1.418   .     A
C1433  N1463   1.428   .     S
C1433  C1435   1.413   .     A
C1434  N1469   1.428   .     S
C1434  C1444   1.418   .     A
C1434  C1436   1.413   .     A
C1435  C1437   1.410   .     A
C1436  C1438   1.410   .     A
C1437  N1475   1.426   .     S
C1437  C1439   1.414   .     A
C1438  N1481   1.426   .     S
C1438  C1440   1.414   .     A
C1439  C1445   1.409   .     A
C1439  C1441   1.407   .     A
C1440  C1442   1.407   .     A
C1440  C1446   1.409   .     A
C1441  C1443   1.411   .     A
C1441  C380    1.413   1_556 S
C1442  C1444   1.411   .     A
C1445  N1487   1.419   .     S
C1445  C357    1.408   1_556 S
C1446  N1493   1.419   .     S
Cu1447 O1459   1.983   .     S
Cu1447 Cu1448  2.721   .     S
Cu1447 O1457   1.980   .     S
Cu1447 O1455   1.980   .     S
Cu1447 N1453   2.045   .     S
Cu1447 O1461   1.983   .     S
Cu1448 N1454   2.045   .     S
Cu1448 O1460   1.983   .     S
Cu1448 O1462   1.983   .     S
Cu1448 O1456   1.980   .     S
Cu1448 O1458   1.980   .     S
N1463  C1465   1.445   .     S
N1463  H1464   1.032   .     S
C1465  H1467   1.100   .     S
C1465  H1468   1.107   .     S
C1465  H1466   1.108   .     S
N1469  H1470   1.032   .     S
N1469  C1471   1.445   .     S
C1471  H1472   1.108   .     S
C1471  H1473   1.100   .     S
C1471  H1474   1.107   .     S
N1475  H1476   1.032   .     S
N1475  C1477   1.441   .     S
C1477  H1479   1.102   .     S
C1477  H1480   1.111   .     S
C1477  H1478   1.109   .     S
N1481  C1483   1.441   .     S
N1481  H1482   1.032   .     S
C1483  H1484   1.109   .     S
C1483  H1485   1.102   .     S
C1483  H1486   1.111   .     S
N1487  H1488   1.026   .     S
N1487  C1489   1.447   .     S
C1489  H1490   1.110   .     S
C1489  H1491   1.111   .     S
C1489  H1492   1.111   .     S
N1493  H1494   1.026   .     S
N1493  C1495   1.447   .     S
C1495  H1497   1.111   .     S
C1495  H1498   1.111   .     S
C1495  H1496   1.110   .     S
N1499  H1500   1.027   .     S
N1499  C1501   1.449   .     S
C1501  H1503   1.112   .     S
C1501  H1502   1.109   .     S
C1501  H1504   1.111   .     S
N1505  C1507   1.449   .     S
N1505  H1506   1.027   .     S
C1507  H1508   1.109   .     S
C1507  H1509   1.112   .     S
C1507  H1510   1.111   .     S
N1511  H1512   1.014   .     S
N1511  C1513   1.452   .     S
C1513  H1515   1.111   .     S
C1513  H1516   1.111   .     S
H1514  C1867   1.107   .     S
N1517  H1518   1.026   .     S
N1517  C1519   1.451   .     S
C1519  H1521   1.108   .     S
C1519  H1522   1.112   .     S
C1519  H1520   1.110   .     S
N1523  H1524   1.014   .     S
N1523  C1525   1.452   .     S
C1525  H1527   1.111   .     S
C1525  H1528   1.111   .     S
H1526  C1879   1.107   .     S
N1529  H1530   1.026   .     S
N1529  C1531   1.451   .     S
C1531  H1533   1.108   .     S
C1531  H1532   1.110   .     S
C1531  H1534   1.112   .     S
C1535  C1544   1.466   .     S
C1535  O1573   1.304   .     A
C1535  O1576   1.310   .     A
C1536  O1575   1.304   .     A
C1536  O1574   1.310   .     A
C1536  C1543   1.466   .     S
C1537  C1562   1.411   .     A
C1537  N1617   1.420   .     S
C1538  C1561   1.411   .     A
C1538  N1623   1.420   .     S
C1538  C502    1.408   1_556 S
C1539  H1567   1.077   .     S
C1539  C1544   1.398   .     A
C1540  C1543   1.404   .     A
C1540  H1568   1.083   .     S
C1540  C1660   1.391   .     S
C1541  H1569   1.077   .     S
C1541  C1543   1.398   .     A
C1541  C1657   1.383   .     S
C1542  H1570   1.083   .     S
C1542  C1544   1.404   .     A
C1545  N1572   1.387   .     A
C1545  N1629   1.430   .     S
C1546  N1571   1.372   .     A
C1546  N1635   1.420   .     S
C1546  C1901   1.427   .     S
C1547  N1641   1.430   .     S
C1547  N1572   1.387   .     A
C1548  N1647   1.420   .     S
C1548  N1571   1.372   .     A
C1548  C1899   1.427   .     S
C1549  C1554   1.475   .     S
C1549  O1577   1.311   .     A
C1549  O1580   1.307   .     A
C1550  O1578   1.307   .     A
C1550  O1579   1.311   .     A
C1550  C1553   1.475   .     S
C1551  C1561   1.418   .     A
C1551  N1581   1.428   .     S
C1551  C1553   1.413   .     A
C1552  N1587   1.428   .     S
C1552  C1562   1.418   .     A
C1552  C1554   1.413   .     A
C1553  C1555   1.410   .     A
C1554  C1556   1.410   .     A
C1555  N1593   1.426   .     S
C1555  C1557   1.414   .     A
C1556  N1599   1.426   .     S
C1556  C1558   1.414   .     A
C1557  C1563   1.409   .     A
C1557  C1559   1.407   .     A
C1558  C1560   1.407   .     A
C1558  C1564   1.409   .     A
C1559  C1561   1.411   .     A
C1559  C498    1.413   1_556 S
C1560  C1562   1.411   .     A
C1563  N1605   1.419   .     S
C1563  C475    1.408   1_556 S
C1564  N1611   1.419   .     S
Cu1565 O1577   1.983   .     S
Cu1565 Cu1566  2.721   .     S
Cu1565 O1575   1.980   .     S
Cu1565 O1573   1.980   .     S
Cu1565 N1571   2.045   .     S
Cu1565 O1579   1.983   .     S
Cu1566 N1572   2.045   .     S
Cu1566 O1578   1.983   .     S
Cu1566 O1580   1.983   .     S
Cu1566 O1574   1.980   .     S
Cu1566 O1576   1.980   .     S
N1581  C1583   1.445   .     S
N1581  H1582   1.032   .     S
C1583  H1585   1.100   .     S
C1583  H1586   1.107   .     S
C1583  H1584   1.108   .     S
N1587  H1588   1.032   .     S
N1587  C1589   1.445   .     S
C1589  H1590   1.108   .     S
C1589  H1591   1.100   .     S
C1589  H1592   1.107   .     S
N1593  H1594   1.032   .     S
N1593  C1595   1.441   .     S
C1595  H1597   1.102   .     S
C1595  H1598   1.111   .     S
C1595  H1596   1.109   .     S
N1599  C1601   1.441   .     S
N1599  H1600   1.032   .     S
C1601  H1602   1.109   .     S
C1601  H1603   1.102   .     S
C1601  H1604   1.111   .     S
N1605  H1606   1.026   .     S
N1605  C1607   1.447   .     S
C1607  H1608   1.110   .     S
C1607  H1609   1.111   .     S
C1607  H1610   1.111   .     S
N1611  H1612   1.026   .     S
N1611  C1613   1.447   .     S
C1613  H1615   1.111   .     S
C1613  H1616   1.111   .     S
C1613  H1614   1.110   .     S
N1617  H1618   1.027   .     S
N1617  C1619   1.449   .     S
C1619  H1621   1.112   .     S
C1619  H1620   1.109   .     S
C1619  H1622   1.111   .     S
N1623  C1625   1.449   .     S
N1623  H1624   1.027   .     S
C1625  H1626   1.109   .     S
C1625  H1627   1.112   .     S
C1625  H1628   1.111   .     S
N1629  H1630   1.014   .     S
N1629  C1631   1.452   .     S
C1631  H1633   1.111   .     S
C1631  H1634   1.111   .     S
H1632  C1985   1.107   .     S
N1635  H1636   1.026   .     S
N1635  C1637   1.451   .     S
C1637  H1639   1.108   .     S
C1637  H1640   1.112   .     S
C1637  H1638   1.110   .     S
N1641  H1642   1.014   .     S
N1641  C1643   1.452   .     S
C1643  H1645   1.111   .     S
C1643  H1646   1.111   .     S
H1644  C1997   1.107   .     S
N1647  H1648   1.026   .     S
N1647  C1649   1.451   .     S
C1649  H1651   1.108   .     S
C1649  H1650   1.110   .     S
C1649  H1652   1.112   .     S
C1653  C1662   1.466   .     S
C1653  O1691   1.304   .     A
C1653  O1694   1.310   .     A
C1654  O1693   1.304   .     A
C1654  O1692   1.310   .     A
C1654  C1661   1.466   .     S
C1655  C1680   1.411   .     A
C1655  N1735   1.420   .     S
C1656  C1679   1.411   .     A
C1656  N1741   1.420   .     S
C1656  C620    1.408   1_556 S
C1657  H1685   1.077   .     S
C1657  C1662   1.398   .     A
C1658  C1661   1.404   .     A
C1658  H1686   1.083   .     S
C1658  C1424   1.391   1_655 S
C1659  H1687   1.077   .     S
C1659  C1661   1.398   .     A
C1659  C1421   1.383   1_655 S
C1660  H1688   1.083   .     S
C1660  C1662   1.404   .     A
C1663  N1690   1.387   .     A
C1663  N1747   1.430   .     S
C1664  N1689   1.372   .     A
C1664  N1753   1.420   .     S
C1664  C2019   1.427   .     S
C1665  N1759   1.430   .     S
C1665  N1690   1.387   .     A
C1666  N1765   1.420   .     S
C1666  N1689   1.372   .     A
C1666  C2017   1.427   .     S
C1667  C1672   1.475   .     S
C1667  O1695   1.311   .     A
C1667  O1698   1.307   .     A
C1668  O1696   1.307   .     A
C1668  O1697   1.311   .     A
C1668  C1671   1.475   .     S
C1669  C1679   1.418   .     A
C1669  N1699   1.428   .     S
C1669  C1671   1.413   .     A
C1670  N1705   1.428   .     S
C1670  C1680   1.418   .     A
C1670  C1672   1.413   .     A
C1671  C1673   1.410   .     A
C1672  C1674   1.410   .     A
C1673  N1711   1.426   .     S
C1673  C1675   1.414   .     A
C1674  N1717   1.426   .     S
C1674  C1676   1.414   .     A
C1675  C1681   1.409   .     A
C1675  C1677   1.407   .     A
C1676  C1678   1.407   .     A
C1676  C1682   1.409   .     A
C1677  C1679   1.411   .     A
C1677  C616    1.413   1_556 S
C1678  C1680   1.411   .     A
C1681  N1723   1.419   .     S
C1681  C593    1.408   1_556 S
C1682  N1729   1.419   .     S
Cu1683 O1695   1.983   .     S
Cu1683 Cu1684  2.721   .     S
Cu1683 O1693   1.980   .     S
Cu1683 O1691   1.980   .     S
Cu1683 N1689   2.045   .     S
Cu1683 O1697   1.983   .     S
Cu1684 N1690   2.045   .     S
Cu1684 O1696   1.983   .     S
Cu1684 O1698   1.983   .     S
Cu1684 O1692   1.980   .     S
Cu1684 O1694   1.980   .     S
N1699  C1701   1.445   .     S
N1699  H1700   1.032   .     S
C1701  H1703   1.100   .     S
C1701  H1704   1.107   .     S
C1701  H1702   1.108   .     S
N1705  H1706   1.032   .     S
N1705  C1707   1.445   .     S
C1707  H1708   1.108   .     S
C1707  H1709   1.100   .     S
C1707  H1710   1.107   .     S
N1711  H1712   1.032   .     S
N1711  C1713   1.441   .     S
C1713  H1715   1.102   .     S
C1713  H1716   1.111   .     S
C1713  H1714   1.109   .     S
N1717  C1719   1.441   .     S
N1717  H1718   1.032   .     S
C1719  H1720   1.109   .     S
C1719  H1721   1.102   .     S
C1719  H1722   1.111   .     S
N1723  H1724   1.026   .     S
N1723  C1725   1.447   .     S
C1725  H1726   1.110   .     S
C1725  H1727   1.111   .     S
C1725  H1728   1.111   .     S
N1729  H1730   1.026   .     S
N1729  C1731   1.447   .     S
C1731  H1733   1.111   .     S
C1731  H1734   1.111   .     S
C1731  H1732   1.110   .     S
N1735  H1736   1.027   .     S
N1735  C1737   1.449   .     S
C1737  H1739   1.112   .     S
C1737  H1738   1.109   .     S
C1737  H1740   1.111   .     S
N1741  C1743   1.449   .     S
N1741  H1742   1.027   .     S
C1743  H1744   1.109   .     S
C1743  H1745   1.112   .     S
C1743  H1746   1.111   .     S
N1747  H1748   1.014   .     S
N1747  C1749   1.452   .     S
C1749  H1751   1.111   .     S
C1749  H1752   1.111   .     S
H1750  C2103   1.107   .     S
N1753  H1754   1.026   .     S
N1753  C1755   1.451   .     S
C1755  H1757   1.108   .     S
C1755  H1758   1.112   .     S
C1755  H1756   1.110   .     S
N1759  H1760   1.014   .     S
N1759  C1761   1.452   .     S
C1761  H1763   1.111   .     S
C1761  H1764   1.111   .     S
H1762  C2115   1.107   .     S
N1765  H1766   1.026   .     S
N1765  C1767   1.451   .     S
C1767  H1769   1.108   .     S
C1767  H1768   1.110   .     S
C1767  H1770   1.112   .     S
C1771  C1780   1.466   .     S
C1771  O1809   1.304   .     A
C1771  O1812   1.310   .     A
C1772  O1811   1.304   .     A
C1772  O1810   1.310   .     A
C1772  C1779   1.466   .     S
C1773  C1798   1.411   .     A
C1773  N1853   1.420   .     S
C1774  C1797   1.411   .     A
C1774  N1859   1.420   .     S
C1774  C738    1.408   1_556 S
C1775  H1803   1.077   .     S
C1775  C1780   1.398   .     A
C1775  C2013   1.383   1_455 S
C1776  C1779   1.404   .     A
C1776  H1804   1.083   .     S
C1776  C1896   1.391   .     S
C1777  H1805   1.077   .     S
C1777  C1779   1.398   .     A
C1777  C1893   1.383   .     S
C1778  H1806   1.083   .     S
C1778  C1780   1.404   .     A
C1778  C2012   1.391   1_455 S
C1781  N1808   1.387   .     A
C1781  N1865   1.430   .     S
C1782  N1807   1.372   .     A
C1782  N1871   1.420   .     S
C1782  C1075   1.427   1_565 S
C1783  N1877   1.430   .     S
C1783  N1808   1.387   .     A
C1784  N1883   1.420   .     S
C1784  N1807   1.372   .     A
C1784  C1073   1.427   1_565 S
C1785  C1790   1.475   .     S
C1785  O1813   1.311   .     A
C1785  O1816   1.307   .     A
C1786  O1814   1.307   .     A
C1786  O1815   1.311   .     A
C1786  C1789   1.475   .     S
C1787  C1797   1.418   .     A
C1787  N1817   1.428   .     S
C1787  C1789   1.413   .     A
C1788  N1823   1.428   .     S
C1788  C1798   1.418   .     A
C1788  C1790   1.413   .     A
C1789  C1791   1.410   .     A
C1790  C1792   1.410   .     A
C1791  N1829   1.426   .     S
C1791  C1793   1.414   .     A
C1792  N1835   1.426   .     S
C1792  C1794   1.414   .     A
C1793  C1799   1.409   .     A
C1793  C1795   1.407   .     A
C1794  C1796   1.407   .     A
C1794  C1800   1.409   .     A
C1795  C1797   1.411   .     A
C1795  C734    1.413   1_556 S
C1796  C1798   1.411   .     A
C1799  N1841   1.419   .     S
C1799  C711    1.408   1_556 S
C1800  N1847   1.419   .     S
Cu1801 O1813   1.983   .     S
Cu1801 Cu1802  2.721   .     S
Cu1801 O1811   1.980   .     S
Cu1801 O1809   1.980   .     S
Cu1801 N1807   2.045   .     S
Cu1801 O1815   1.983   .     S
Cu1802 N1808   2.045   .     S
Cu1802 O1814   1.983   .     S
Cu1802 O1816   1.983   .     S
Cu1802 O1810   1.980   .     S
Cu1802 O1812   1.980   .     S
N1817  C1819   1.445   .     S
N1817  H1818   1.032   .     S
C1819  H1821   1.100   .     S
C1819  H1822   1.107   .     S
C1819  H1820   1.108   .     S
N1823  H1824   1.032   .     S
N1823  C1825   1.445   .     S
C1825  H1826   1.108   .     S
C1825  H1827   1.100   .     S
C1825  H1828   1.107   .     S
N1829  H1830   1.032   .     S
N1829  C1831   1.441   .     S
C1831  H1833   1.102   .     S
C1831  H1834   1.111   .     S
C1831  H1832   1.109   .     S
N1835  C1837   1.441   .     S
N1835  H1836   1.032   .     S
C1837  H1838   1.109   .     S
C1837  H1839   1.102   .     S
C1837  H1840   1.111   .     S
N1841  H1842   1.026   .     S
N1841  C1843   1.447   .     S
C1843  H1844   1.110   .     S
C1843  H1845   1.111   .     S
C1843  H1846   1.111   .     S
N1847  H1848   1.026   .     S
N1847  C1849   1.447   .     S
C1849  H1851   1.111   .     S
C1849  H1852   1.111   .     S
C1849  H1850   1.110   .     S
N1853  H1854   1.027   .     S
N1853  C1855   1.449   .     S
C1855  H1857   1.112   .     S
C1855  H1856   1.109   .     S
C1855  H1858   1.111   .     S
N1859  C1861   1.449   .     S
N1859  H1860   1.027   .     S
C1861  H1862   1.109   .     S
C1861  H1863   1.112   .     S
C1861  H1864   1.111   .     S
N1865  H1866   1.014   .     S
N1865  C1867   1.452   .     S
C1867  H1869   1.111   .     S
C1867  H1870   1.111   .     S
H1868  C1159   1.107   1_565 S
N1871  H1872   1.026   .     S
N1871  C1873   1.451   .     S
C1873  H1875   1.108   .     S
C1873  H1876   1.112   .     S
C1873  H1874   1.110   .     S
N1877  H1878   1.014   .     S
N1877  C1879   1.452   .     S
C1879  H1881   1.111   .     S
C1879  H1882   1.111   .     S
H1880  C1171   1.107   1_565 S
N1883  H1884   1.026   .     S
N1883  C1885   1.451   .     S
C1885  H1887   1.108   .     S
C1885  H1886   1.110   .     S
C1885  H1888   1.112   .     S
C1889  C1898   1.466   .     S
C1889  O1927   1.304   .     A
C1889  O1930   1.310   .     A
C1890  O1929   1.304   .     A
C1890  O1928   1.310   .     A
C1890  C1897   1.466   .     S
C1891  C1916   1.411   .     A
C1891  N1971   1.420   .     S
C1892  C1915   1.411   .     A
C1892  N1977   1.420   .     S
C1892  C856    1.408   1_556 S
C1893  H1921   1.077   .     S
C1893  C1898   1.398   .     A
C1894  C1897   1.404   .     A
C1894  H1922   1.083   .     S
C1894  C2014   1.391   .     S
C1895  H1923   1.077   .     S
C1895  C1897   1.398   .     A
C1895  C2011   1.383   .     S
C1896  H1924   1.083   .     S
C1896  C1898   1.404   .     A
C1899  N1926   1.387   .     A
C1899  N1983   1.430   .     S
C1900  N1925   1.372   .     A
C1900  N1989   1.420   .     S
C1900  C1193   1.427   1_565 S
C1901  N1995   1.430   .     S
C1901  N1926   1.387   .     A
C1902  N2001   1.420   .     S
C1902  N1925   1.372   .     A
C1902  C1191   1.427   1_565 S
C1903  C1908   1.475   .     S
C1903  O1931   1.311   .     A
C1903  O1934   1.307   .     A
C1904  O1932   1.307   .     A
C1904  O1933   1.311   .     A
C1904  C1907   1.475   .     S
C1905  C1915   1.418   .     A
C1905  N1935   1.428   .     S
C1905  C1907   1.413   .     A
C1906  N1941   1.428   .     S
C1906  C1916   1.418   .     A
C1906  C1908   1.413   .     A
C1907  C1909   1.410   .     A
C1908  C1910   1.410   .     A
C1909  N1947   1.426   .     S
C1909  C1911   1.414   .     A
C1910  N1953   1.426   .     S
C1910  C1912   1.414   .     A
C1911  C1917   1.409   .     A
C1911  C1913   1.407   .     A
C1912  C1914   1.407   .     A
C1912  C1918   1.409   .     A
C1913  C1915   1.411   .     A
C1913  C852    1.413   1_556 S
C1914  C1916   1.411   .     A
C1917  N1959   1.419   .     S
C1917  C829    1.408   1_556 S
C1918  N1965   1.419   .     S
Cu1919 O1931   1.983   .     S
Cu1919 Cu1920  2.721   .     S
Cu1919 O1929   1.980   .     S
Cu1919 O1927   1.980   .     S
Cu1919 N1925   2.045   .     S
Cu1919 O1933   1.983   .     S
Cu1920 N1926   2.045   .     S
Cu1920 O1932   1.983   .     S
Cu1920 O1934   1.983   .     S
Cu1920 O1928   1.980   .     S
Cu1920 O1930   1.980   .     S
N1935  C1937   1.445   .     S
N1935  H1936   1.032   .     S
C1937  H1939   1.100   .     S
C1937  H1940   1.107   .     S
C1937  H1938   1.108   .     S
N1941  H1942   1.032   .     S
N1941  C1943   1.445   .     S
C1943  H1944   1.108   .     S
C1943  H1945   1.100   .     S
C1943  H1946   1.107   .     S
N1947  H1948   1.032   .     S
N1947  C1949   1.441   .     S
C1949  H1951   1.102   .     S
C1949  H1952   1.111   .     S
C1949  H1950   1.109   .     S
N1953  C1955   1.441   .     S
N1953  H1954   1.032   .     S
C1955  H1956   1.109   .     S
C1955  H1957   1.102   .     S
C1955  H1958   1.111   .     S
N1959  H1960   1.026   .     S
N1959  C1961   1.447   .     S
C1961  H1962   1.110   .     S
C1961  H1963   1.111   .     S
C1961  H1964   1.111   .     S
N1965  H1966   1.026   .     S
N1965  C1967   1.447   .     S
C1967  H1969   1.111   .     S
C1967  H1970   1.111   .     S
C1967  H1968   1.110   .     S
N1971  H1972   1.027   .     S
N1971  C1973   1.449   .     S
C1973  H1975   1.112   .     S
C1973  H1974   1.109   .     S
C1973  H1976   1.111   .     S
N1977  C1979   1.449   .     S
N1977  H1978   1.027   .     S
C1979  H1980   1.109   .     S
C1979  H1981   1.112   .     S
C1979  H1982   1.111   .     S
N1983  H1984   1.014   .     S
N1983  C1985   1.452   .     S
C1985  H1987   1.111   .     S
C1985  H1988   1.111   .     S
H1986  C1277   1.107   1_565 S
N1989  H1990   1.026   .     S
N1989  C1991   1.451   .     S
C1991  H1993   1.108   .     S
C1991  H1994   1.112   .     S
C1991  H1992   1.110   .     S
N1995  H1996   1.014   .     S
N1995  C1997   1.452   .     S
C1997  H1999   1.111   .     S
C1997  H2000   1.111   .     S
H1998  C1289   1.107   1_565 S
N2001  H2002   1.026   .     S
N2001  C2003   1.451   .     S
C2003  H2005   1.108   .     S
C2003  H2004   1.110   .     S
C2003  H2006   1.112   .     S
C2007  C2016   1.466   .     S
C2007  O2045   1.304   .     A
C2007  O2048   1.310   .     A
C2008  O2047   1.304   .     A
C2008  O2046   1.310   .     A
C2008  C2015   1.466   .     S
C2009  C2034   1.411   .     A
C2009  N2089   1.420   .     S
C2010  C2033   1.411   .     A
C2010  N2095   1.420   .     S
C2010  C974    1.408   1_556 S
C2011  H2039   1.077   .     S
C2011  C2016   1.398   .     A
C2012  C2015   1.404   .     A
C2012  H2040   1.083   .     S
C2012  C1778   1.391   1_655 S
C2013  H2041   1.077   .     S
C2013  C2015   1.398   .     A
C2013  C1775   1.383   1_655 S
C2014  H2042   1.083   .     S
C2014  C2016   1.404   .     A
C2017  N2044   1.387   .     A
C2017  N2101   1.430   .     S
C2018  N2043   1.372   .     A
C2018  N2107   1.420   .     S
C2018  C1311   1.427   1_565 S
C2019  N2113   1.430   .     S
C2019  N2044   1.387   .     A
C2020  N2119   1.420   .     S
C2020  N2043   1.372   .     A
C2020  C1309   1.427   1_565 S
C2021  C2026   1.475   .     S
C2021  O2049   1.311   .     A
C2021  O2052   1.307   .     A
C2022  O2050   1.307   .     A
C2022  O2051   1.311   .     A
C2022  C2025   1.475   .     S
C2023  C2033   1.418   .     A
C2023  N2053   1.428   .     S
C2023  C2025   1.413   .     A
C2024  N2059   1.428   .     S
C2024  C2034   1.418   .     A
C2024  C2026   1.413   .     A
C2025  C2027   1.410   .     A
C2026  C2028   1.410   .     A
C2027  N2065   1.426   .     S
C2027  C2029   1.414   .     A
C2028  N2071   1.426   .     S
C2028  C2030   1.414   .     A
C2029  C2035   1.409   .     A
C2029  C2031   1.407   .     A
C2030  C2032   1.407   .     A
C2030  C2036   1.409   .     A
C2031  C2033   1.411   .     A
C2031  C970    1.413   1_556 S
C2032  C2034   1.411   .     A
C2035  N2077   1.419   .     S
C2035  C947    1.408   1_556 S
C2036  N2083   1.419   .     S
Cu2037 O2049   1.983   .     S
Cu2037 Cu2038  2.721   .     S
Cu2037 O2047   1.980   .     S
Cu2037 O2045   1.980   .     S
Cu2037 N2043   2.045   .     S
Cu2037 O2051   1.983   .     S
Cu2038 N2044   2.045   .     S
Cu2038 O2050   1.983   .     S
Cu2038 O2052   1.983   .     S
Cu2038 O2046   1.980   .     S
Cu2038 O2048   1.980   .     S
N2053  C2055   1.445   .     S
N2053  H2054   1.032   .     S
C2055  H2057   1.100   .     S
C2055  H2058   1.107   .     S
C2055  H2056   1.108   .     S
N2059  H2060   1.032   .     S
N2059  C2061   1.445   .     S
C2061  H2062   1.108   .     S
C2061  H2063   1.100   .     S
C2061  H2064   1.107   .     S
N2065  H2066   1.032   .     S
N2065  C2067   1.441   .     S
C2067  H2069   1.102   .     S
C2067  H2070   1.111   .     S
C2067  H2068   1.109   .     S
N2071  C2073   1.441   .     S
N2071  H2072   1.032   .     S
C2073  H2074   1.109   .     S
C2073  H2075   1.102   .     S
C2073  H2076   1.111   .     S
N2077  H2078   1.026   .     S
N2077  C2079   1.447   .     S
C2079  H2080   1.110   .     S
C2079  H2081   1.111   .     S
C2079  H2082   1.111   .     S
N2083  H2084   1.026   .     S
N2083  C2085   1.447   .     S
C2085  H2087   1.111   .     S
C2085  H2088   1.111   .     S
C2085  H2086   1.110   .     S
N2089  H2090   1.027   .     S
N2089  C2091   1.449   .     S
C2091  H2093   1.112   .     S
C2091  H2092   1.109   .     S
C2091  H2094   1.111   .     S
N2095  C2097   1.449   .     S
N2095  H2096   1.027   .     S
C2097  H2098   1.109   .     S
C2097  H2099   1.112   .     S
C2097  H2100   1.111   .     S
N2101  H2102   1.014   .     S
N2101  C2103   1.452   .     S
C2103  H2105   1.111   .     S
C2103  H2106   1.111   .     S
H2104  C1395   1.107   1_565 S
N2107  H2108   1.026   .     S
N2107  C2109   1.451   .     S
C2109  H2111   1.108   .     S
C2109  H2112   1.112   .     S
C2109  H2110   1.110   .     S
N2113  H2114   1.014   .     S
N2113  C2115   1.452   .     S
C2115  H2117   1.111   .     S
C2115  H2118   1.111   .     S
H2116  C1407   1.107   1_565 S
N2119  H2120   1.026   .     S
N2119  C2121   1.451   .     S
C2121  H2123   1.108   .     S
C2121  H2122   1.110   .     S
C2121  H2124   1.112   .     S
