data_str_m2_o1_o17_pcu_sym.204
_audit_creation_date              2020-01-03
_audit_creation_method            'Materials Studio'
_symmetry_space_group_name_H-M    'P1'
_symmetry_Int_Tables_number       1
_symmetry_cell_setting            triclinic
loop_
_symmetry_equiv_pos_as_xyz
  x,y,z
_cell_length_a                    32.4939
_cell_length_b                    28.5101
_cell_length_c                    30.2164
_cell_angle_alpha                 89.6957
_cell_angle_beta                  89.9841
_cell_angle_gamma                 90.0529
loop_
_atom_site_label
_atom_site_type_symbol
_atom_site_fract_x
_atom_site_fract_y
_atom_site_fract_z
_atom_site_U_iso_or_equiv
_atom_site_adp_type
_atom_site_occupancy
C1     C     0.08734   0.16665   0.24991   0.00000  Uiso   1.00
C2     C     0.24599   0.16668   0.25009   0.00000  Uiso   1.00
C3     C     0.14136   0.24729   0.02185   0.00000  Uiso   1.00
C4     C     0.19197   0.08605   0.47815   0.00000  Uiso   1.00
C5     C     0.02125   0.12413   0.25288   0.00000  Uiso   1.00
C6     C     0.31209   0.20921   0.24712   0.00000  Uiso   1.00
C7     C     0.31201   0.12415   0.25304   0.00000  Uiso   1.00
C8     C     0.02133   0.20919   0.24696   0.00000  Uiso   1.00
C9     C     0.29060   0.16669   0.25012   0.00000  Uiso   1.00
C10    C     0.04273   0.16665   0.24988   0.00000  Uiso   1.00
C11    C     0.13933   0.02494   0.22456   0.00000  Uiso   1.00
C12    C     0.19400   0.30840   0.27544   0.00000  Uiso   1.00
C13    C     0.19402   0.02470   0.27539   0.00000  Uiso   1.00
C14    C     0.13931   0.30863   0.22461   0.00000  Uiso   1.00
C15    C     0.16576   0.16680   0.16431   0.00000  Uiso   1.00
C16    C     0.16757   0.16653   0.33569   0.00000  Uiso   1.00
C17    C     0.18322   0.12678   0.40774   0.00000  Uiso   1.00
C18    C     0.15012   0.20656   0.09226   0.00000  Uiso   1.00
C19    C     0.16905   0.16636   0.38410   0.00000  Uiso   1.00
C20    C     0.16429   0.16698   0.11590   0.00000  Uiso   1.00
C21    C     0.15617   0.20645   0.40673   0.00000  Uiso   1.00
C22    C     0.17716   0.12689   0.09327   0.00000  Uiso   1.00
C23    C     0.15558   0.20744   0.45289   0.00000  Uiso   1.00
C24    C     0.17776   0.12589   0.04711   0.00000  Uiso   1.00
C25    C     0.16743   0.16678   0.47673   0.00000  Uiso   1.00
C26    C     0.16590   0.16655   0.02327   0.00000  Uiso   1.00
C27    C     0.18092   0.12633   0.45411   0.00000  Uiso   1.00
C28    C     0.15241   0.20700   0.04589   0.00000  Uiso   1.00
C29    C     0.14293   0.24788   0.47584   0.00000  Uiso   1.00
C30    C     0.19041   0.08546   0.02416   0.00000  Uiso   1.00
Cu31   Cu    0.16667   0.21355   0.25000   0.00000  Uiso   1.00
Cu32   Cu    0.16667   0.11978   0.25000   0.00000  Uiso   1.00
H33    H     0.14594   0.23662   0.38790   0.00000  Uiso   1.00
H34    H     0.18739   0.09672   0.11210   0.00000  Uiso   1.00
H35    H     0.13152   0.27877   0.03872   0.00000  Uiso   1.00
H36    H     0.20182   0.05456   0.46128   0.00000  Uiso   1.00
H37    H     0.03724   0.09088   0.25524   0.00000  Uiso   1.00
H38    H     0.29609   0.24245   0.24476   0.00000  Uiso   1.00
H39    H     0.29595   0.09092   0.25553   0.00000  Uiso   1.00
H40    H     0.03739   0.24241   0.24447   0.00000  Uiso   1.00
H41    H     0.11747   0.04376   0.20416   0.00000  Uiso   1.00
H42    H     0.21587   0.28958   0.29584   0.00000  Uiso   1.00
H43    H     0.21597   0.04335   0.29559   0.00000  Uiso   1.00
H44    H     0.11736   0.28998   0.20441   0.00000  Uiso   1.00
N45    N     0.16667   0.28402   0.25000   0.00000  Uiso   1.00
N46    N     0.16667   0.04931   0.25000   0.00000  Uiso   1.00
O47    O     0.10655   0.20625   0.25000   0.00000  Uiso   1.00
O48    O     0.22679   0.12709   0.25001   0.00000  Uiso   1.00
O49    O     0.22679   0.20625   0.25001   0.00000  Uiso   1.00
O50    O     0.10655   0.12709   0.25000   0.00000  Uiso   1.00
O51    O     0.16666   0.20627   0.18513   0.00000  Uiso   1.00
O52    O     0.16668   0.12707   0.31487   0.00000  Uiso   1.00
O53    O     0.16668   0.20627   0.31487   0.00000  Uiso   1.00
O54    O     0.16666   0.12707   0.18513   0.00000  Uiso   1.00
O55    O     0.19837   0.08804   0.38560   0.00000  Uiso   1.00
C56    C     0.24104   0.09442   0.37913   0.00000  Uiso   1.00
H57    H     0.24725   0.12424   0.35616   0.00000  Uiso   1.00
H58    H     0.25383   0.06228   0.36388   0.00000  Uiso   1.00
H59    H     0.25752   0.09978   0.41101   0.00000  Uiso   1.00
O60    O     0.13496   0.24530   0.11440   0.00000  Uiso   1.00
C61    C     0.09229   0.23891   0.12088   0.00000  Uiso   1.00
H62    H     0.07951   0.27105   0.13612   0.00000  Uiso   1.00
H63    H     0.08608   0.20909   0.14384   0.00000  Uiso   1.00
H64    H     0.07581   0.23355   0.08899   0.00000  Uiso   1.00
Br65   Br    0.12768   0.30542   0.44662   0.00000  Uiso   1.00
Br66   Br    0.20566   0.02792   0.05338   0.00000  Uiso   1.00
C67    C     0.42067   0.16665   0.24991   0.00000  Uiso   1.00
C68    C     0.57933   0.16668   0.25009   0.00000  Uiso   1.00
C69    C     0.47470   0.24729   0.02185   0.00000  Uiso   1.00
C70    C     0.52530   0.08605   0.47815   0.00000  Uiso   1.00
C71    C     0.35458   0.12413   0.25288   0.00000  Uiso   1.00
C72    C     0.64542   0.20921   0.24712   0.00000  Uiso   1.00
C73    C     0.64534   0.12415   0.25304   0.00000  Uiso   1.00
C74    C     0.35466   0.20919   0.24696   0.00000  Uiso   1.00
C75    C     0.62393   0.16669   0.25012   0.00000  Uiso   1.00
C76    C     0.37607   0.16665   0.24988   0.00000  Uiso   1.00
C77    C     0.47267   0.02494   0.22456   0.00000  Uiso   1.00
C78    C     0.52733   0.30840   0.27544   0.00000  Uiso   1.00
C79    C     0.52735   0.02470   0.27539   0.00000  Uiso   1.00
C80    C     0.47265   0.30863   0.22461   0.00000  Uiso   1.00
C81    C     0.49909   0.16680   0.16431   0.00000  Uiso   1.00
C82    C     0.50091   0.16653   0.33569   0.00000  Uiso   1.00
C83    C     0.51655   0.12678   0.40774   0.00000  Uiso   1.00
C84    C     0.48345   0.20656   0.09226   0.00000  Uiso   1.00
C85    C     0.50238   0.16636   0.38410   0.00000  Uiso   1.00
C86    C     0.49762   0.16698   0.11590   0.00000  Uiso   1.00
C87    C     0.48950   0.20645   0.40673   0.00000  Uiso   1.00
C88    C     0.51050   0.12689   0.09327   0.00000  Uiso   1.00
C89    C     0.48891   0.20744   0.45289   0.00000  Uiso   1.00
C90    C     0.51109   0.12589   0.04711   0.00000  Uiso   1.00
C91    C     0.50076   0.16678   0.47673   0.00000  Uiso   1.00
C92    C     0.49924   0.16655   0.02327   0.00000  Uiso   1.00
C93    C     0.51426   0.12633   0.45411   0.00000  Uiso   1.00
C94    C     0.48574   0.20700   0.04589   0.00000  Uiso   1.00
C95    C     0.47626   0.24788   0.47584   0.00000  Uiso   1.00
C96    C     0.52374   0.08546   0.02416   0.00000  Uiso   1.00
Cu97   Cu    0.50000   0.21355   0.25000   0.00000  Uiso   1.00
Cu98   Cu    0.50000   0.11978   0.25000   0.00000  Uiso   1.00
H99    H     0.47927   0.23662   0.38790   0.00000  Uiso   1.00
H100   H     0.52073   0.09672   0.11210   0.00000  Uiso   1.00
H101   H     0.46485   0.27877   0.03872   0.00000  Uiso   1.00
H102   H     0.53515   0.05456   0.46128   0.00000  Uiso   1.00
H103   H     0.37057   0.09088   0.25524   0.00000  Uiso   1.00
H104   H     0.62943   0.24245   0.24476   0.00000  Uiso   1.00
H105   H     0.62928   0.09092   0.25553   0.00000  Uiso   1.00
H106   H     0.37072   0.24241   0.24447   0.00000  Uiso   1.00
H107   H     0.45080   0.04376   0.20416   0.00000  Uiso   1.00
H108   H     0.54920   0.28958   0.29584   0.00000  Uiso   1.00
H109   H     0.54930   0.04335   0.29559   0.00000  Uiso   1.00
H110   H     0.45070   0.28998   0.20441   0.00000  Uiso   1.00
N111   N     0.50000   0.28402   0.25000   0.00000  Uiso   1.00
N112   N     0.50000   0.04931   0.25000   0.00000  Uiso   1.00
O113   O     0.43988   0.20625   0.25000   0.00000  Uiso   1.00
O114   O     0.56012   0.12709   0.25001   0.00000  Uiso   1.00
O115   O     0.56012   0.20625   0.25001   0.00000  Uiso   1.00
O116   O     0.43988   0.12709   0.25000   0.00000  Uiso   1.00
O117   O     0.49999   0.20627   0.18513   0.00000  Uiso   1.00
O118   O     0.50001   0.12707   0.31487   0.00000  Uiso   1.00
O119   O     0.50001   0.20627   0.31487   0.00000  Uiso   1.00
O120   O     0.49999   0.12707   0.18513   0.00000  Uiso   1.00
O121   O     0.53171   0.08804   0.38560   0.00000  Uiso   1.00
C122   C     0.57437   0.09442   0.37913   0.00000  Uiso   1.00
H123   H     0.58058   0.12424   0.35616   0.00000  Uiso   1.00
H124   H     0.58716   0.06228   0.36388   0.00000  Uiso   1.00
H125   H     0.59085   0.09978   0.41101   0.00000  Uiso   1.00
O126   O     0.46829   0.24530   0.11440   0.00000  Uiso   1.00
C127   C     0.42563   0.23891   0.12088   0.00000  Uiso   1.00
H128   H     0.41284   0.27105   0.13612   0.00000  Uiso   1.00
H129   H     0.41942   0.20909   0.14384   0.00000  Uiso   1.00
H130   H     0.40914   0.23355   0.08899   0.00000  Uiso   1.00
Br131  Br    0.46101   0.30542   0.44662   0.00000  Uiso   1.00
Br132  Br    0.53899   0.02792   0.05338   0.00000  Uiso   1.00
C133   C     0.75401   0.16665   0.24991   0.00000  Uiso   1.00
C134   C     0.91266   0.16668   0.25009   0.00000  Uiso   1.00
C135   C     0.80803   0.24729   0.02185   0.00000  Uiso   1.00
C136   C     0.85864   0.08605   0.47815   0.00000  Uiso   1.00
C137   C     0.68791   0.12413   0.25288   0.00000  Uiso   1.00
C138   C     0.97875   0.20921   0.24712   0.00000  Uiso   1.00
C139   C     0.97867   0.12415   0.25304   0.00000  Uiso   1.00
C140   C     0.68799   0.20919   0.24696   0.00000  Uiso   1.00
C141   C     0.95726   0.16669   0.25012   0.00000  Uiso   1.00
C142   C     0.70940   0.16665   0.24988   0.00000  Uiso   1.00
C143   C     0.80600   0.02494   0.22456   0.00000  Uiso   1.00
C144   C     0.86067   0.30840   0.27544   0.00000  Uiso   1.00
C145   C     0.86069   0.02470   0.27539   0.00000  Uiso   1.00
C146   C     0.80598   0.30863   0.22461   0.00000  Uiso   1.00
C147   C     0.83243   0.16680   0.16431   0.00000  Uiso   1.00
C148   C     0.83424   0.16653   0.33569   0.00000  Uiso   1.00
C149   C     0.84988   0.12678   0.40774   0.00000  Uiso   1.00
C150   C     0.81678   0.20656   0.09226   0.00000  Uiso   1.00
C151   C     0.83571   0.16636   0.38410   0.00000  Uiso   1.00
C152   C     0.83095   0.16698   0.11590   0.00000  Uiso   1.00
C153   C     0.82283   0.20645   0.40673   0.00000  Uiso   1.00
C154   C     0.84383   0.12689   0.09327   0.00000  Uiso   1.00
C155   C     0.82224   0.20744   0.45289   0.00000  Uiso   1.00
C156   C     0.84442   0.12589   0.04711   0.00000  Uiso   1.00
C157   C     0.83410   0.16678   0.47673   0.00000  Uiso   1.00
C158   C     0.83257   0.16655   0.02327   0.00000  Uiso   1.00
C159   C     0.84759   0.12633   0.45411   0.00000  Uiso   1.00
C160   C     0.81908   0.20700   0.04589   0.00000  Uiso   1.00
C161   C     0.80959   0.24788   0.47584   0.00000  Uiso   1.00
C162   C     0.85707   0.08546   0.02416   0.00000  Uiso   1.00
Cu163  Cu    0.83333   0.21355   0.25000   0.00000  Uiso   1.00
Cu164  Cu    0.83333   0.11978   0.25000   0.00000  Uiso   1.00
H165   H     0.81260   0.23662   0.38790   0.00000  Uiso   1.00
H166   H     0.85406   0.09672   0.11210   0.00000  Uiso   1.00
H167   H     0.79818   0.27877   0.03872   0.00000  Uiso   1.00
H168   H     0.86848   0.05456   0.46128   0.00000  Uiso   1.00
H169   H     0.70391   0.09088   0.25524   0.00000  Uiso   1.00
H170   H     0.96276   0.24245   0.24476   0.00000  Uiso   1.00
H171   H     0.96261   0.09092   0.25553   0.00000  Uiso   1.00
H172   H     0.70405   0.24241   0.24447   0.00000  Uiso   1.00
H173   H     0.78413   0.04376   0.20416   0.00000  Uiso   1.00
H174   H     0.88253   0.28958   0.29584   0.00000  Uiso   1.00
H175   H     0.88264   0.04335   0.29559   0.00000  Uiso   1.00
H176   H     0.78403   0.28998   0.20441   0.00000  Uiso   1.00
N177   N     0.83333   0.28402   0.25000   0.00000  Uiso   1.00
N178   N     0.83333   0.04931   0.25000   0.00000  Uiso   1.00
O179   O     0.77321   0.20625   0.25000   0.00000  Uiso   1.00
O180   O     0.89345   0.12709   0.25001   0.00000  Uiso   1.00
O181   O     0.89345   0.20625   0.25001   0.00000  Uiso   1.00
O182   O     0.77321   0.12709   0.25000   0.00000  Uiso   1.00
O183   O     0.83332   0.20627   0.18513   0.00000  Uiso   1.00
O184   O     0.83334   0.12707   0.31487   0.00000  Uiso   1.00
O185   O     0.83334   0.20627   0.31487   0.00000  Uiso   1.00
O186   O     0.83332   0.12707   0.18513   0.00000  Uiso   1.00
O187   O     0.86504   0.08804   0.38560   0.00000  Uiso   1.00
C188   C     0.90771   0.09442   0.37913   0.00000  Uiso   1.00
H189   H     0.91392   0.12424   0.35616   0.00000  Uiso   1.00
H190   H     0.92049   0.06228   0.36388   0.00000  Uiso   1.00
H191   H     0.92419   0.09978   0.41101   0.00000  Uiso   1.00
O192   O     0.80163   0.24530   0.11440   0.00000  Uiso   1.00
C193   C     0.75896   0.23891   0.12088   0.00000  Uiso   1.00
H194   H     0.74617   0.27105   0.13612   0.00000  Uiso   1.00
H195   H     0.75275   0.20909   0.14384   0.00000  Uiso   1.00
H196   H     0.74248   0.23355   0.08899   0.00000  Uiso   1.00
Br197  Br    0.79434   0.30542   0.44662   0.00000  Uiso   1.00
Br198  Br    0.87232   0.02792   0.05338   0.00000  Uiso   1.00
C199   C     0.08734   0.49999   0.24991   0.00000  Uiso   1.00
C200   C     0.24599   0.50001   0.25009   0.00000  Uiso   1.00
C201   C     0.14136   0.58062   0.02185   0.00000  Uiso   1.00
C202   C     0.19197   0.41938   0.47815   0.00000  Uiso   1.00
C203   C     0.02125   0.45746   0.25288   0.00000  Uiso   1.00
C204   C     0.31209   0.54254   0.24712   0.00000  Uiso   1.00
C205   C     0.31201   0.45748   0.25304   0.00000  Uiso   1.00
C206   C     0.02133   0.54252   0.24696   0.00000  Uiso   1.00
C207   C     0.29060   0.50002   0.25012   0.00000  Uiso   1.00
C208   C     0.04273   0.49998   0.24988   0.00000  Uiso   1.00
C209   C     0.13933   0.35827   0.22456   0.00000  Uiso   1.00
C210   C     0.19400   0.64173   0.27544   0.00000  Uiso   1.00
C211   C     0.19402   0.35804   0.27539   0.00000  Uiso   1.00
C212   C     0.13931   0.64196   0.22461   0.00000  Uiso   1.00
C213   C     0.16576   0.50014   0.16431   0.00000  Uiso   1.00
C214   C     0.16757   0.49986   0.33569   0.00000  Uiso   1.00
C215   C     0.18322   0.46011   0.40774   0.00000  Uiso   1.00
C216   C     0.15012   0.53989   0.09226   0.00000  Uiso   1.00
C217   C     0.16905   0.49969   0.38410   0.00000  Uiso   1.00
C218   C     0.16429   0.50031   0.11590   0.00000  Uiso   1.00
C219   C     0.15617   0.53978   0.40673   0.00000  Uiso   1.00
C220   C     0.17716   0.46022   0.09327   0.00000  Uiso   1.00
C221   C     0.15558   0.54078   0.45289   0.00000  Uiso   1.00
C222   C     0.17776   0.45922   0.04711   0.00000  Uiso   1.00
C223   C     0.16743   0.50011   0.47673   0.00000  Uiso   1.00
C224   C     0.16590   0.49989   0.02327   0.00000  Uiso   1.00
C225   C     0.18092   0.45967   0.45411   0.00000  Uiso   1.00
C226   C     0.15241   0.54034   0.04589   0.00000  Uiso   1.00
C227   C     0.14293   0.58121   0.47584   0.00000  Uiso   1.00
C228   C     0.19041   0.41879   0.02416   0.00000  Uiso   1.00
Cu229  Cu    0.16667   0.54689   0.25000   0.00000  Uiso   1.00
Cu230  Cu    0.16667   0.45311   0.25000   0.00000  Uiso   1.00
H231   H     0.14594   0.56995   0.38790   0.00000  Uiso   1.00
H232   H     0.18739   0.43005   0.11210   0.00000  Uiso   1.00
H233   H     0.13152   0.61210   0.03872   0.00000  Uiso   1.00
H234   H     0.20182   0.38790   0.46128   0.00000  Uiso   1.00
H235   H     0.03724   0.42422   0.25524   0.00000  Uiso   1.00
H236   H     0.29609   0.57578   0.24476   0.00000  Uiso   1.00
H237   H     0.29595   0.42425   0.25553   0.00000  Uiso   1.00
H238   H     0.03739   0.57575   0.24447   0.00000  Uiso   1.00
H239   H     0.11747   0.37709   0.20416   0.00000  Uiso   1.00
H240   H     0.21587   0.62291   0.29584   0.00000  Uiso   1.00
H241   H     0.21597   0.37669   0.29559   0.00000  Uiso   1.00
H242   H     0.11736   0.62331   0.20441   0.00000  Uiso   1.00
N243   N     0.16667   0.61736   0.25000   0.00000  Uiso   1.00
N244   N     0.16667   0.38264   0.25000   0.00000  Uiso   1.00
O245   O     0.10655   0.53958   0.25000   0.00000  Uiso   1.00
O246   O     0.22679   0.46042   0.25001   0.00000  Uiso   1.00
O247   O     0.22679   0.53958   0.25001   0.00000  Uiso   1.00
O248   O     0.10655   0.46042   0.25000   0.00000  Uiso   1.00
O249   O     0.16666   0.53960   0.18513   0.00000  Uiso   1.00
O250   O     0.16668   0.46040   0.31487   0.00000  Uiso   1.00
O251   O     0.16668   0.53960   0.31487   0.00000  Uiso   1.00
O252   O     0.16666   0.46040   0.18513   0.00000  Uiso   1.00
O253   O     0.19837   0.42137   0.38560   0.00000  Uiso   1.00
C254   C     0.24104   0.42776   0.37913   0.00000  Uiso   1.00
H255   H     0.24725   0.45758   0.35616   0.00000  Uiso   1.00
H256   H     0.25383   0.39562   0.36388   0.00000  Uiso   1.00
H257   H     0.25752   0.43312   0.41101   0.00000  Uiso   1.00
O258   O     0.13496   0.57863   0.11440   0.00000  Uiso   1.00
C259   C     0.09229   0.57224   0.12088   0.00000  Uiso   1.00
H260   H     0.07951   0.60438   0.13612   0.00000  Uiso   1.00
H261   H     0.08608   0.54242   0.14384   0.00000  Uiso   1.00
H262   H     0.07581   0.56688   0.08899   0.00000  Uiso   1.00
Br263  Br    0.12768   0.63875   0.44662   0.00000  Uiso   1.00
Br264  Br    0.20566   0.36125   0.05338   0.00000  Uiso   1.00
C265   C     0.42067   0.49999   0.24991   0.00000  Uiso   1.00
C266   C     0.57933   0.50001   0.25009   0.00000  Uiso   1.00
C267   C     0.47470   0.58062   0.02185   0.00000  Uiso   1.00
C268   C     0.52530   0.41938   0.47815   0.00000  Uiso   1.00
C269   C     0.35458   0.45746   0.25288   0.00000  Uiso   1.00
C270   C     0.64542   0.54254   0.24712   0.00000  Uiso   1.00
C271   C     0.64534   0.45748   0.25304   0.00000  Uiso   1.00
C272   C     0.35466   0.54252   0.24696   0.00000  Uiso   1.00
C273   C     0.62393   0.50002   0.25012   0.00000  Uiso   1.00
C274   C     0.37607   0.49998   0.24988   0.00000  Uiso   1.00
C275   C     0.47267   0.35827   0.22456   0.00000  Uiso   1.00
C276   C     0.52733   0.64173   0.27544   0.00000  Uiso   1.00
C277   C     0.52735   0.35804   0.27539   0.00000  Uiso   1.00
C278   C     0.47265   0.64196   0.22461   0.00000  Uiso   1.00
C279   C     0.49909   0.50014   0.16431   0.00000  Uiso   1.00
C280   C     0.50091   0.49986   0.33569   0.00000  Uiso   1.00
C281   C     0.51655   0.46011   0.40774   0.00000  Uiso   1.00
C282   C     0.48345   0.53989   0.09226   0.00000  Uiso   1.00
C283   C     0.50238   0.49969   0.38410   0.00000  Uiso   1.00
C284   C     0.49762   0.50031   0.11590   0.00000  Uiso   1.00
C285   C     0.48950   0.53978   0.40673   0.00000  Uiso   1.00
C286   C     0.51050   0.46022   0.09327   0.00000  Uiso   1.00
C287   C     0.48891   0.54078   0.45289   0.00000  Uiso   1.00
C288   C     0.51109   0.45922   0.04711   0.00000  Uiso   1.00
C289   C     0.50076   0.50011   0.47673   0.00000  Uiso   1.00
C290   C     0.49924   0.49989   0.02327   0.00000  Uiso   1.00
C291   C     0.51426   0.45967   0.45411   0.00000  Uiso   1.00
C292   C     0.48574   0.54034   0.04589   0.00000  Uiso   1.00
C293   C     0.47626   0.58121   0.47584   0.00000  Uiso   1.00
C294   C     0.52374   0.41879   0.02416   0.00000  Uiso   1.00
Cu295  Cu    0.50000   0.54689   0.25000   0.00000  Uiso   1.00
Cu296  Cu    0.50000   0.45311   0.25000   0.00000  Uiso   1.00
H297   H     0.47927   0.56995   0.38790   0.00000  Uiso   1.00
H298   H     0.52073   0.43005   0.11210   0.00000  Uiso   1.00
H299   H     0.46485   0.61210   0.03872   0.00000  Uiso   1.00
H300   H     0.53515   0.38790   0.46128   0.00000  Uiso   1.00
H301   H     0.37057   0.42422   0.25524   0.00000  Uiso   1.00
H302   H     0.62943   0.57578   0.24476   0.00000  Uiso   1.00
H303   H     0.62928   0.42425   0.25553   0.00000  Uiso   1.00
H304   H     0.37072   0.57575   0.24447   0.00000  Uiso   1.00
H305   H     0.45080   0.37709   0.20416   0.00000  Uiso   1.00
H306   H     0.54920   0.62291   0.29584   0.00000  Uiso   1.00
H307   H     0.54930   0.37669   0.29559   0.00000  Uiso   1.00
H308   H     0.45070   0.62331   0.20441   0.00000  Uiso   1.00
N309   N     0.50000   0.61736   0.25000   0.00000  Uiso   1.00
N310   N     0.50000   0.38264   0.25000   0.00000  Uiso   1.00
O311   O     0.43988   0.53958   0.25000   0.00000  Uiso   1.00
O312   O     0.56012   0.46042   0.25001   0.00000  Uiso   1.00
O313   O     0.56012   0.53958   0.25001   0.00000  Uiso   1.00
O314   O     0.43988   0.46042   0.25000   0.00000  Uiso   1.00
O315   O     0.49999   0.53960   0.18513   0.00000  Uiso   1.00
O316   O     0.50001   0.46040   0.31487   0.00000  Uiso   1.00
O317   O     0.50001   0.53960   0.31487   0.00000  Uiso   1.00
O318   O     0.49999   0.46040   0.18513   0.00000  Uiso   1.00
O319   O     0.53171   0.42137   0.38560   0.00000  Uiso   1.00
C320   C     0.57437   0.42776   0.37913   0.00000  Uiso   1.00
H321   H     0.58058   0.45758   0.35616   0.00000  Uiso   1.00
H322   H     0.58716   0.39562   0.36388   0.00000  Uiso   1.00
H323   H     0.59085   0.43312   0.41101   0.00000  Uiso   1.00
O324   O     0.46829   0.57863   0.11440   0.00000  Uiso   1.00
C325   C     0.42563   0.57224   0.12088   0.00000  Uiso   1.00
H326   H     0.41284   0.60438   0.13612   0.00000  Uiso   1.00
H327   H     0.41942   0.54242   0.14384   0.00000  Uiso   1.00
H328   H     0.40914   0.56688   0.08899   0.00000  Uiso   1.00
Br329  Br    0.46101   0.63875   0.44662   0.00000  Uiso   1.00
Br330  Br    0.53899   0.36125   0.05338   0.00000  Uiso   1.00
C331   C     0.75401   0.49999   0.24991   0.00000  Uiso   1.00
C332   C     0.91266   0.50001   0.25009   0.00000  Uiso   1.00
C333   C     0.80803   0.58062   0.02185   0.00000  Uiso   1.00
C334   C     0.85864   0.41938   0.47815   0.00000  Uiso   1.00
C335   C     0.68791   0.45746   0.25288   0.00000  Uiso   1.00
C336   C     0.97875   0.54254   0.24712   0.00000  Uiso   1.00
C337   C     0.97867   0.45748   0.25304   0.00000  Uiso   1.00
C338   C     0.68799   0.54252   0.24696   0.00000  Uiso   1.00
C339   C     0.95726   0.50002   0.25012   0.00000  Uiso   1.00
C340   C     0.70940   0.49998   0.24988   0.00000  Uiso   1.00
C341   C     0.80600   0.35827   0.22456   0.00000  Uiso   1.00
C342   C     0.86067   0.64173   0.27544   0.00000  Uiso   1.00
C343   C     0.86069   0.35804   0.27539   0.00000  Uiso   1.00
C344   C     0.80598   0.64196   0.22461   0.00000  Uiso   1.00
C345   C     0.83243   0.50014   0.16431   0.00000  Uiso   1.00
C346   C     0.83424   0.49986   0.33569   0.00000  Uiso   1.00
C347   C     0.84988   0.46011   0.40774   0.00000  Uiso   1.00
C348   C     0.81678   0.53989   0.09226   0.00000  Uiso   1.00
C349   C     0.83571   0.49969   0.38410   0.00000  Uiso   1.00
C350   C     0.83095   0.50031   0.11590   0.00000  Uiso   1.00
C351   C     0.82283   0.53978   0.40673   0.00000  Uiso   1.00
C352   C     0.84383   0.46022   0.09327   0.00000  Uiso   1.00
C353   C     0.82224   0.54078   0.45289   0.00000  Uiso   1.00
C354   C     0.84442   0.45922   0.04711   0.00000  Uiso   1.00
C355   C     0.83410   0.50011   0.47673   0.00000  Uiso   1.00
C356   C     0.83257   0.49989   0.02327   0.00000  Uiso   1.00
C357   C     0.84759   0.45967   0.45411   0.00000  Uiso   1.00
C358   C     0.81908   0.54034   0.04589   0.00000  Uiso   1.00
C359   C     0.80959   0.58121   0.47584   0.00000  Uiso   1.00
C360   C     0.85707   0.41879   0.02416   0.00000  Uiso   1.00
Cu361  Cu    0.83333   0.54689   0.25000   0.00000  Uiso   1.00
Cu362  Cu    0.83333   0.45311   0.25000   0.00000  Uiso   1.00
H363   H     0.81260   0.56995   0.38790   0.00000  Uiso   1.00
H364   H     0.85406   0.43005   0.11210   0.00000  Uiso   1.00
H365   H     0.79818   0.61210   0.03872   0.00000  Uiso   1.00
H366   H     0.86848   0.38790   0.46128   0.00000  Uiso   1.00
H367   H     0.70391   0.42422   0.25524   0.00000  Uiso   1.00
H368   H     0.96276   0.57578   0.24476   0.00000  Uiso   1.00
H369   H     0.96261   0.42425   0.25553   0.00000  Uiso   1.00
H370   H     0.70405   0.57575   0.24447   0.00000  Uiso   1.00
H371   H     0.78413   0.37709   0.20416   0.00000  Uiso   1.00
H372   H     0.88253   0.62291   0.29584   0.00000  Uiso   1.00
H373   H     0.88264   0.37669   0.29559   0.00000  Uiso   1.00
H374   H     0.78403   0.62331   0.20441   0.00000  Uiso   1.00
N375   N     0.83333   0.61736   0.25000   0.00000  Uiso   1.00
N376   N     0.83333   0.38264   0.25000   0.00000  Uiso   1.00
O377   O     0.77321   0.53958   0.25000   0.00000  Uiso   1.00
O378   O     0.89345   0.46042   0.25001   0.00000  Uiso   1.00
O379   O     0.89345   0.53958   0.25001   0.00000  Uiso   1.00
O380   O     0.77321   0.46042   0.25000   0.00000  Uiso   1.00
O381   O     0.83332   0.53960   0.18513   0.00000  Uiso   1.00
O382   O     0.83334   0.46040   0.31487   0.00000  Uiso   1.00
O383   O     0.83334   0.53960   0.31487   0.00000  Uiso   1.00
O384   O     0.83332   0.46040   0.18513   0.00000  Uiso   1.00
O385   O     0.86504   0.42137   0.38560   0.00000  Uiso   1.00
C386   C     0.90771   0.42776   0.37913   0.00000  Uiso   1.00
H387   H     0.91392   0.45758   0.35616   0.00000  Uiso   1.00
H388   H     0.92049   0.39562   0.36388   0.00000  Uiso   1.00
H389   H     0.92419   0.43312   0.41101   0.00000  Uiso   1.00
O390   O     0.80163   0.57863   0.11440   0.00000  Uiso   1.00
C391   C     0.75896   0.57224   0.12088   0.00000  Uiso   1.00
H392   H     0.74617   0.60438   0.13612   0.00000  Uiso   1.00
H393   H     0.75275   0.54242   0.14384   0.00000  Uiso   1.00
H394   H     0.74248   0.56688   0.08899   0.00000  Uiso   1.00
Br395  Br    0.79434   0.63875   0.44662   0.00000  Uiso   1.00
Br396  Br    0.87232   0.36125   0.05338   0.00000  Uiso   1.00
C397   C     0.08734   0.83332   0.24991   0.00000  Uiso   1.00
C398   C     0.24599   0.83335   0.25009   0.00000  Uiso   1.00
C399   C     0.14136   0.91395   0.02185   0.00000  Uiso   1.00
C400   C     0.19197   0.75271   0.47815   0.00000  Uiso   1.00
C401   C     0.02125   0.79079   0.25288   0.00000  Uiso   1.00
C402   C     0.31209   0.87587   0.24712   0.00000  Uiso   1.00
C403   C     0.31201   0.79081   0.25304   0.00000  Uiso   1.00
C404   C     0.02133   0.87585   0.24696   0.00000  Uiso   1.00
C405   C     0.29060   0.83335   0.25012   0.00000  Uiso   1.00
C406   C     0.04273   0.83331   0.24988   0.00000  Uiso   1.00
C407   C     0.13933   0.69160   0.22456   0.00000  Uiso   1.00
C408   C     0.19400   0.97506   0.27544   0.00000  Uiso   1.00
C409   C     0.19402   0.69137   0.27539   0.00000  Uiso   1.00
C410   C     0.13931   0.97530   0.22461   0.00000  Uiso   1.00
C411   C     0.16576   0.83347   0.16431   0.00000  Uiso   1.00
C412   C     0.16757   0.83320   0.33569   0.00000  Uiso   1.00
C413   C     0.18322   0.79344   0.40774   0.00000  Uiso   1.00
C414   C     0.15012   0.87322   0.09226   0.00000  Uiso   1.00
C415   C     0.16905   0.83302   0.38410   0.00000  Uiso   1.00
C416   C     0.16429   0.83364   0.11590   0.00000  Uiso   1.00
C417   C     0.15617   0.87311   0.40673   0.00000  Uiso   1.00
C418   C     0.17716   0.79355   0.09327   0.00000  Uiso   1.00
C419   C     0.15558   0.87411   0.45289   0.00000  Uiso   1.00
C420   C     0.17776   0.79256   0.04711   0.00000  Uiso   1.00
C421   C     0.16743   0.83345   0.47673   0.00000  Uiso   1.00
C422   C     0.16590   0.83322   0.02327   0.00000  Uiso   1.00
C423   C     0.18092   0.79300   0.45411   0.00000  Uiso   1.00
C424   C     0.15241   0.87367   0.04589   0.00000  Uiso   1.00
C425   C     0.14293   0.91454   0.47584   0.00000  Uiso   1.00
C426   C     0.19041   0.75212   0.02416   0.00000  Uiso   1.00
Cu427  Cu    0.16667   0.88022   0.25000   0.00000  Uiso   1.00
Cu428  Cu    0.16667   0.78645   0.25000   0.00000  Uiso   1.00
H429   H     0.14594   0.90328   0.38790   0.00000  Uiso   1.00
H430   H     0.18739   0.76338   0.11210   0.00000  Uiso   1.00
H431   H     0.13152   0.94544   0.03872   0.00000  Uiso   1.00
H432   H     0.20182   0.72123   0.46128   0.00000  Uiso   1.00
H433   H     0.03724   0.75755   0.25524   0.00000  Uiso   1.00
H434   H     0.29609   0.90912   0.24476   0.00000  Uiso   1.00
H435   H     0.29595   0.75759   0.25553   0.00000  Uiso   1.00
H436   H     0.03739   0.90908   0.24447   0.00000  Uiso   1.00
H437   H     0.11747   0.71042   0.20416   0.00000  Uiso   1.00
H438   H     0.21587   0.95624   0.29584   0.00000  Uiso   1.00
H439   H     0.21597   0.71002   0.29559   0.00000  Uiso   1.00
H440   H     0.11736   0.95665   0.20441   0.00000  Uiso   1.00
N441   N     0.16667   0.95069   0.25000   0.00000  Uiso   1.00
N442   N     0.16667   0.71598   0.25000   0.00000  Uiso   1.00
O443   O     0.10655   0.87291   0.25000   0.00000  Uiso   1.00
O444   O     0.22679   0.79375   0.25001   0.00000  Uiso   1.00
O445   O     0.22679   0.87291   0.25001   0.00000  Uiso   1.00
O446   O     0.10655   0.79375   0.25000   0.00000  Uiso   1.00
O447   O     0.16666   0.87293   0.18513   0.00000  Uiso   1.00
O448   O     0.16668   0.79373   0.31487   0.00000  Uiso   1.00
O449   O     0.16668   0.87293   0.31487   0.00000  Uiso   1.00
O450   O     0.16666   0.79373   0.18513   0.00000  Uiso   1.00
O451   O     0.19837   0.75470   0.38560   0.00000  Uiso   1.00
C452   C     0.24104   0.76109   0.37913   0.00000  Uiso   1.00
H453   H     0.24725   0.79091   0.35616   0.00000  Uiso   1.00
H454   H     0.25383   0.72895   0.36388   0.00000  Uiso   1.00
H455   H     0.25752   0.76645   0.41101   0.00000  Uiso   1.00
O456   O     0.13496   0.91196   0.11440   0.00000  Uiso   1.00
C457   C     0.09229   0.90558   0.12088   0.00000  Uiso   1.00
H458   H     0.07951   0.93772   0.13612   0.00000  Uiso   1.00
H459   H     0.08608   0.87576   0.14384   0.00000  Uiso   1.00
H460   H     0.07581   0.90022   0.08899   0.00000  Uiso   1.00
Br461  Br    0.12768   0.97208   0.44662   0.00000  Uiso   1.00
Br462  Br    0.20566   0.69458   0.05338   0.00000  Uiso   1.00
C463   C     0.42067   0.83332   0.24991   0.00000  Uiso   1.00
C464   C     0.57933   0.83335   0.25009   0.00000  Uiso   1.00
C465   C     0.47470   0.91395   0.02185   0.00000  Uiso   1.00
C466   C     0.52530   0.75271   0.47815   0.00000  Uiso   1.00
C467   C     0.35458   0.79079   0.25288   0.00000  Uiso   1.00
C468   C     0.64542   0.87587   0.24712   0.00000  Uiso   1.00
C469   C     0.64534   0.79081   0.25304   0.00000  Uiso   1.00
C470   C     0.35466   0.87585   0.24696   0.00000  Uiso   1.00
C471   C     0.62393   0.83335   0.25012   0.00000  Uiso   1.00
C472   C     0.37607   0.83331   0.24988   0.00000  Uiso   1.00
C473   C     0.47267   0.69160   0.22456   0.00000  Uiso   1.00
C474   C     0.52733   0.97506   0.27544   0.00000  Uiso   1.00
C475   C     0.52735   0.69137   0.27539   0.00000  Uiso   1.00
C476   C     0.47265   0.97530   0.22461   0.00000  Uiso   1.00
C477   C     0.49909   0.83347   0.16431   0.00000  Uiso   1.00
C478   C     0.50091   0.83320   0.33569   0.00000  Uiso   1.00
C479   C     0.51655   0.79344   0.40774   0.00000  Uiso   1.00
C480   C     0.48345   0.87322   0.09226   0.00000  Uiso   1.00
C481   C     0.50238   0.83302   0.38410   0.00000  Uiso   1.00
C482   C     0.49762   0.83364   0.11590   0.00000  Uiso   1.00
C483   C     0.48950   0.87311   0.40673   0.00000  Uiso   1.00
C484   C     0.51050   0.79355   0.09327   0.00000  Uiso   1.00
C485   C     0.48891   0.87411   0.45289   0.00000  Uiso   1.00
C486   C     0.51109   0.79256   0.04711   0.00000  Uiso   1.00
C487   C     0.50076   0.83345   0.47673   0.00000  Uiso   1.00
C488   C     0.49924   0.83322   0.02327   0.00000  Uiso   1.00
C489   C     0.51426   0.79300   0.45411   0.00000  Uiso   1.00
C490   C     0.48574   0.87367   0.04589   0.00000  Uiso   1.00
C491   C     0.47626   0.91454   0.47584   0.00000  Uiso   1.00
C492   C     0.52374   0.75212   0.02416   0.00000  Uiso   1.00
Cu493  Cu    0.50000   0.88022   0.25000   0.00000  Uiso   1.00
Cu494  Cu    0.50000   0.78645   0.25000   0.00000  Uiso   1.00
H495   H     0.47927   0.90328   0.38790   0.00000  Uiso   1.00
H496   H     0.52073   0.76338   0.11210   0.00000  Uiso   1.00
H497   H     0.46485   0.94544   0.03872   0.00000  Uiso   1.00
H498   H     0.53515   0.72123   0.46128   0.00000  Uiso   1.00
H499   H     0.37057   0.75755   0.25524   0.00000  Uiso   1.00
H500   H     0.62943   0.90912   0.24476   0.00000  Uiso   1.00
H501   H     0.62928   0.75759   0.25553   0.00000  Uiso   1.00
H502   H     0.37072   0.90908   0.24447   0.00000  Uiso   1.00
H503   H     0.45080   0.71042   0.20416   0.00000  Uiso   1.00
H504   H     0.54920   0.95624   0.29584   0.00000  Uiso   1.00
H505   H     0.54930   0.71002   0.29559   0.00000  Uiso   1.00
H506   H     0.45070   0.95665   0.20441   0.00000  Uiso   1.00
N507   N     0.50000   0.95069   0.25000   0.00000  Uiso   1.00
N508   N     0.50000   0.71598   0.25000   0.00000  Uiso   1.00
O509   O     0.43988   0.87291   0.25000   0.00000  Uiso   1.00
O510   O     0.56012   0.79375   0.25001   0.00000  Uiso   1.00
O511   O     0.56012   0.87291   0.25001   0.00000  Uiso   1.00
O512   O     0.43988   0.79375   0.25000   0.00000  Uiso   1.00
O513   O     0.49999   0.87293   0.18513   0.00000  Uiso   1.00
O514   O     0.50001   0.79373   0.31487   0.00000  Uiso   1.00
O515   O     0.50001   0.87293   0.31487   0.00000  Uiso   1.00
O516   O     0.49999   0.79373   0.18513   0.00000  Uiso   1.00
O517   O     0.53171   0.75470   0.38560   0.00000  Uiso   1.00
C518   C     0.57437   0.76109   0.37913   0.00000  Uiso   1.00
H519   H     0.58058   0.79091   0.35616   0.00000  Uiso   1.00
H520   H     0.58716   0.72895   0.36388   0.00000  Uiso   1.00
H521   H     0.59085   0.76645   0.41101   0.00000  Uiso   1.00
O522   O     0.46829   0.91196   0.11440   0.00000  Uiso   1.00
C523   C     0.42563   0.90558   0.12088   0.00000  Uiso   1.00
H524   H     0.41284   0.93772   0.13612   0.00000  Uiso   1.00
H525   H     0.41942   0.87576   0.14384   0.00000  Uiso   1.00
H526   H     0.40914   0.90022   0.08899   0.00000  Uiso   1.00
Br527  Br    0.46101   0.97208   0.44662   0.00000  Uiso   1.00
Br528  Br    0.53899   0.69458   0.05338   0.00000  Uiso   1.00
C529   C     0.75401   0.83332   0.24991   0.00000  Uiso   1.00
C530   C     0.91266   0.83335   0.25009   0.00000  Uiso   1.00
C531   C     0.80803   0.91395   0.02185   0.00000  Uiso   1.00
C532   C     0.85864   0.75271   0.47815   0.00000  Uiso   1.00
C533   C     0.68791   0.79079   0.25288   0.00000  Uiso   1.00
C534   C     0.97875   0.87587   0.24712   0.00000  Uiso   1.00
C535   C     0.97867   0.79081   0.25304   0.00000  Uiso   1.00
C536   C     0.68799   0.87585   0.24696   0.00000  Uiso   1.00
C537   C     0.95726   0.83335   0.25012   0.00000  Uiso   1.00
C538   C     0.70940   0.83331   0.24988   0.00000  Uiso   1.00
C539   C     0.80600   0.69160   0.22456   0.00000  Uiso   1.00
C540   C     0.86067   0.97506   0.27544   0.00000  Uiso   1.00
C541   C     0.86069   0.69137   0.27539   0.00000  Uiso   1.00
C542   C     0.80598   0.97530   0.22461   0.00000  Uiso   1.00
C543   C     0.83243   0.83347   0.16431   0.00000  Uiso   1.00
C544   C     0.83424   0.83320   0.33569   0.00000  Uiso   1.00
C545   C     0.84988   0.79344   0.40774   0.00000  Uiso   1.00
C546   C     0.81678   0.87322   0.09226   0.00000  Uiso   1.00
C547   C     0.83571   0.83302   0.38410   0.00000  Uiso   1.00
C548   C     0.83095   0.83364   0.11590   0.00000  Uiso   1.00
C549   C     0.82283   0.87311   0.40673   0.00000  Uiso   1.00
C550   C     0.84383   0.79355   0.09327   0.00000  Uiso   1.00
C551   C     0.82224   0.87411   0.45289   0.00000  Uiso   1.00
C552   C     0.84442   0.79256   0.04711   0.00000  Uiso   1.00
C553   C     0.83410   0.83345   0.47673   0.00000  Uiso   1.00
C554   C     0.83257   0.83322   0.02327   0.00000  Uiso   1.00
C555   C     0.84759   0.79300   0.45411   0.00000  Uiso   1.00
C556   C     0.81908   0.87367   0.04589   0.00000  Uiso   1.00
C557   C     0.80959   0.91454   0.47584   0.00000  Uiso   1.00
C558   C     0.85707   0.75212   0.02416   0.00000  Uiso   1.00
Cu559  Cu    0.83333   0.88022   0.25000   0.00000  Uiso   1.00
Cu560  Cu    0.83333   0.78645   0.25000   0.00000  Uiso   1.00
H561   H     0.81260   0.90328   0.38790   0.00000  Uiso   1.00
H562   H     0.85406   0.76338   0.11210   0.00000  Uiso   1.00
H563   H     0.79818   0.94544   0.03872   0.00000  Uiso   1.00
H564   H     0.86848   0.72123   0.46128   0.00000  Uiso   1.00
H565   H     0.70391   0.75755   0.25524   0.00000  Uiso   1.00
H566   H     0.96276   0.90912   0.24476   0.00000  Uiso   1.00
H567   H     0.96261   0.75759   0.25553   0.00000  Uiso   1.00
H568   H     0.70405   0.90908   0.24447   0.00000  Uiso   1.00
H569   H     0.78413   0.71042   0.20416   0.00000  Uiso   1.00
H570   H     0.88253   0.95624   0.29584   0.00000  Uiso   1.00
H571   H     0.88264   0.71002   0.29559   0.00000  Uiso   1.00
H572   H     0.78403   0.95665   0.20441   0.00000  Uiso   1.00
N573   N     0.83333   0.95069   0.25000   0.00000  Uiso   1.00
N574   N     0.83333   0.71598   0.25000   0.00000  Uiso   1.00
O575   O     0.77321   0.87291   0.25000   0.00000  Uiso   1.00
O576   O     0.89345   0.79375   0.25001   0.00000  Uiso   1.00
O577   O     0.89345   0.87291   0.25001   0.00000  Uiso   1.00
O578   O     0.77321   0.79375   0.25000   0.00000  Uiso   1.00
O579   O     0.83332   0.87293   0.18513   0.00000  Uiso   1.00
O580   O     0.83334   0.79373   0.31487   0.00000  Uiso   1.00
O581   O     0.83334   0.87293   0.31487   0.00000  Uiso   1.00
O582   O     0.83332   0.79373   0.18513   0.00000  Uiso   1.00
O583   O     0.86504   0.75470   0.38560   0.00000  Uiso   1.00
C584   C     0.90771   0.76109   0.37913   0.00000  Uiso   1.00
H585   H     0.91392   0.79091   0.35616   0.00000  Uiso   1.00
H586   H     0.92049   0.72895   0.36388   0.00000  Uiso   1.00
H587   H     0.92419   0.76645   0.41101   0.00000  Uiso   1.00
O588   O     0.80163   0.91196   0.11440   0.00000  Uiso   1.00
C589   C     0.75896   0.90558   0.12088   0.00000  Uiso   1.00
H590   H     0.74617   0.93772   0.13612   0.00000  Uiso   1.00
H591   H     0.75275   0.87576   0.14384   0.00000  Uiso   1.00
H592   H     0.74248   0.90022   0.08899   0.00000  Uiso   1.00
Br593  Br    0.79434   0.97208   0.44662   0.00000  Uiso   1.00
Br594  Br    0.87232   0.69458   0.05338   0.00000  Uiso   1.00
C595   C     0.08734   0.16665   0.74991   0.00000  Uiso   1.00
C596   C     0.24599   0.16668   0.75009   0.00000  Uiso   1.00
C597   C     0.14136   0.24729   0.52185   0.00000  Uiso   1.00
C598   C     0.19197   0.08605   0.97815   0.00000  Uiso   1.00
C599   C     0.02125   0.12413   0.75288   0.00000  Uiso   1.00
C600   C     0.31209   0.20921   0.74712   0.00000  Uiso   1.00
C601   C     0.31201   0.12415   0.75304   0.00000  Uiso   1.00
C602   C     0.02133   0.20919   0.74696   0.00000  Uiso   1.00
C603   C     0.29060   0.16669   0.75012   0.00000  Uiso   1.00
C604   C     0.04273   0.16665   0.74988   0.00000  Uiso   1.00
C605   C     0.13933   0.02494   0.72456   0.00000  Uiso   1.00
C606   C     0.19400   0.30840   0.77544   0.00000  Uiso   1.00
C607   C     0.19402   0.02470   0.77539   0.00000  Uiso   1.00
C608   C     0.13931   0.30863   0.72461   0.00000  Uiso   1.00
C609   C     0.16576   0.16680   0.66431   0.00000  Uiso   1.00
C610   C     0.16757   0.16653   0.83569   0.00000  Uiso   1.00
C611   C     0.18322   0.12678   0.90774   0.00000  Uiso   1.00
C612   C     0.15012   0.20656   0.59226   0.00000  Uiso   1.00
C613   C     0.16905   0.16636   0.88410   0.00000  Uiso   1.00
C614   C     0.16429   0.16698   0.61590   0.00000  Uiso   1.00
C615   C     0.15617   0.20645   0.90673   0.00000  Uiso   1.00
C616   C     0.17716   0.12689   0.59327   0.00000  Uiso   1.00
C617   C     0.15558   0.20744   0.95289   0.00000  Uiso   1.00
C618   C     0.17776   0.12589   0.54711   0.00000  Uiso   1.00
C619   C     0.16743   0.16678   0.97673   0.00000  Uiso   1.00
C620   C     0.16590   0.16655   0.52327   0.00000  Uiso   1.00
C621   C     0.18092   0.12633   0.95411   0.00000  Uiso   1.00
C622   C     0.15241   0.20700   0.54589   0.00000  Uiso   1.00
C623   C     0.14293   0.24788   0.97584   0.00000  Uiso   1.00
C624   C     0.19041   0.08546   0.52416   0.00000  Uiso   1.00
Cu625  Cu    0.16667   0.21355   0.75000   0.00000  Uiso   1.00
Cu626  Cu    0.16667   0.11978   0.75000   0.00000  Uiso   1.00
H627   H     0.14594   0.23662   0.88790   0.00000  Uiso   1.00
H628   H     0.18739   0.09672   0.61210   0.00000  Uiso   1.00
H629   H     0.13152   0.27877   0.53872   0.00000  Uiso   1.00
H630   H     0.20182   0.05456   0.96128   0.00000  Uiso   1.00
H631   H     0.03724   0.09088   0.75524   0.00000  Uiso   1.00
H632   H     0.29609   0.24245   0.74476   0.00000  Uiso   1.00
H633   H     0.29595   0.09092   0.75553   0.00000  Uiso   1.00
H634   H     0.03739   0.24241   0.74447   0.00000  Uiso   1.00
H635   H     0.11747   0.04376   0.70416   0.00000  Uiso   1.00
H636   H     0.21587   0.28958   0.79584   0.00000  Uiso   1.00
H637   H     0.21597   0.04335   0.79559   0.00000  Uiso   1.00
H638   H     0.11736   0.28998   0.70441   0.00000  Uiso   1.00
N639   N     0.16667   0.28402   0.75000   0.00000  Uiso   1.00
N640   N     0.16667   0.04931   0.75000   0.00000  Uiso   1.00
O641   O     0.10655   0.20625   0.75000   0.00000  Uiso   1.00
O642   O     0.22679   0.12709   0.75001   0.00000  Uiso   1.00
O643   O     0.22679   0.20625   0.75001   0.00000  Uiso   1.00
O644   O     0.10655   0.12709   0.75000   0.00000  Uiso   1.00
O645   O     0.16666   0.20627   0.68513   0.00000  Uiso   1.00
O646   O     0.16668   0.12707   0.81487   0.00000  Uiso   1.00
O647   O     0.16668   0.20627   0.81487   0.00000  Uiso   1.00
O648   O     0.16666   0.12707   0.68513   0.00000  Uiso   1.00
O649   O     0.19837   0.08804   0.88560   0.00000  Uiso   1.00
C650   C     0.24104   0.09442   0.87913   0.00000  Uiso   1.00
H651   H     0.24725   0.12424   0.85616   0.00000  Uiso   1.00
H652   H     0.25383   0.06228   0.86388   0.00000  Uiso   1.00
H653   H     0.25752   0.09978   0.91101   0.00000  Uiso   1.00
O654   O     0.13496   0.24530   0.61440   0.00000  Uiso   1.00
C655   C     0.09229   0.23891   0.62088   0.00000  Uiso   1.00
H656   H     0.07951   0.27105   0.63612   0.00000  Uiso   1.00
H657   H     0.08608   0.20909   0.64384   0.00000  Uiso   1.00
H658   H     0.07581   0.23355   0.58899   0.00000  Uiso   1.00
Br659  Br    0.12768   0.30542   0.94662   0.00000  Uiso   1.00
Br660  Br    0.20566   0.02792   0.55338   0.00000  Uiso   1.00
C661   C     0.42067   0.16665   0.74991   0.00000  Uiso   1.00
C662   C     0.57933   0.16668   0.75009   0.00000  Uiso   1.00
C663   C     0.47470   0.24729   0.52185   0.00000  Uiso   1.00
C664   C     0.52530   0.08605   0.97815   0.00000  Uiso   1.00
C665   C     0.35458   0.12413   0.75288   0.00000  Uiso   1.00
C666   C     0.64542   0.20921   0.74712   0.00000  Uiso   1.00
C667   C     0.64534   0.12415   0.75304   0.00000  Uiso   1.00
C668   C     0.35466   0.20919   0.74696   0.00000  Uiso   1.00
C669   C     0.62393   0.16669   0.75012   0.00000  Uiso   1.00
C670   C     0.37607   0.16665   0.74988   0.00000  Uiso   1.00
C671   C     0.47267   0.02494   0.72456   0.00000  Uiso   1.00
C672   C     0.52733   0.30840   0.77544   0.00000  Uiso   1.00
C673   C     0.52735   0.02470   0.77539   0.00000  Uiso   1.00
C674   C     0.47265   0.30863   0.72461   0.00000  Uiso   1.00
C675   C     0.49909   0.16680   0.66431   0.00000  Uiso   1.00
C676   C     0.50091   0.16653   0.83569   0.00000  Uiso   1.00
C677   C     0.51655   0.12678   0.90774   0.00000  Uiso   1.00
C678   C     0.48345   0.20656   0.59226   0.00000  Uiso   1.00
C679   C     0.50238   0.16636   0.88410   0.00000  Uiso   1.00
C680   C     0.49762   0.16698   0.61590   0.00000  Uiso   1.00
C681   C     0.48950   0.20645   0.90673   0.00000  Uiso   1.00
C682   C     0.51050   0.12689   0.59327   0.00000  Uiso   1.00
C683   C     0.48891   0.20744   0.95289   0.00000  Uiso   1.00
C684   C     0.51109   0.12589   0.54711   0.00000  Uiso   1.00
C685   C     0.50076   0.16678   0.97673   0.00000  Uiso   1.00
C686   C     0.49924   0.16655   0.52327   0.00000  Uiso   1.00
C687   C     0.51426   0.12633   0.95411   0.00000  Uiso   1.00
C688   C     0.48574   0.20700   0.54589   0.00000  Uiso   1.00
C689   C     0.47626   0.24788   0.97584   0.00000  Uiso   1.00
C690   C     0.52374   0.08546   0.52416   0.00000  Uiso   1.00
Cu691  Cu    0.50000   0.21355   0.75000   0.00000  Uiso   1.00
Cu692  Cu    0.50000   0.11978   0.75000   0.00000  Uiso   1.00
H693   H     0.47927   0.23662   0.88790   0.00000  Uiso   1.00
H694   H     0.52073   0.09672   0.61210   0.00000  Uiso   1.00
H695   H     0.46485   0.27877   0.53872   0.00000  Uiso   1.00
H696   H     0.53515   0.05456   0.96128   0.00000  Uiso   1.00
H697   H     0.37057   0.09088   0.75524   0.00000  Uiso   1.00
H698   H     0.62943   0.24245   0.74476   0.00000  Uiso   1.00
H699   H     0.62928   0.09092   0.75553   0.00000  Uiso   1.00
H700   H     0.37072   0.24241   0.74447   0.00000  Uiso   1.00
H701   H     0.45080   0.04376   0.70416   0.00000  Uiso   1.00
H702   H     0.54920   0.28958   0.79584   0.00000  Uiso   1.00
H703   H     0.54930   0.04335   0.79559   0.00000  Uiso   1.00
H704   H     0.45070   0.28998   0.70441   0.00000  Uiso   1.00
N705   N     0.50000   0.28402   0.75000   0.00000  Uiso   1.00
N706   N     0.50000   0.04931   0.75000   0.00000  Uiso   1.00
O707   O     0.43988   0.20625   0.75000   0.00000  Uiso   1.00
O708   O     0.56012   0.12709   0.75001   0.00000  Uiso   1.00
O709   O     0.56012   0.20625   0.75001   0.00000  Uiso   1.00
O710   O     0.43988   0.12709   0.75000   0.00000  Uiso   1.00
O711   O     0.49999   0.20627   0.68513   0.00000  Uiso   1.00
O712   O     0.50001   0.12707   0.81487   0.00000  Uiso   1.00
O713   O     0.50001   0.20627   0.81487   0.00000  Uiso   1.00
O714   O     0.49999   0.12707   0.68513   0.00000  Uiso   1.00
O715   O     0.53171   0.08804   0.88560   0.00000  Uiso   1.00
C716   C     0.57437   0.09442   0.87913   0.00000  Uiso   1.00
H717   H     0.58058   0.12424   0.85616   0.00000  Uiso   1.00
H718   H     0.58716   0.06228   0.86388   0.00000  Uiso   1.00
H719   H     0.59085   0.09978   0.91101   0.00000  Uiso   1.00
O720   O     0.46829   0.24530   0.61440   0.00000  Uiso   1.00
C721   C     0.42563   0.23891   0.62088   0.00000  Uiso   1.00
H722   H     0.41284   0.27105   0.63612   0.00000  Uiso   1.00
H723   H     0.41942   0.20909   0.64384   0.00000  Uiso   1.00
H724   H     0.40914   0.23355   0.58899   0.00000  Uiso   1.00
Br725  Br    0.46101   0.30542   0.94662   0.00000  Uiso   1.00
Br726  Br    0.53899   0.02792   0.55338   0.00000  Uiso   1.00
C727   C     0.75401   0.16665   0.74991   0.00000  Uiso   1.00
C728   C     0.91266   0.16668   0.75009   0.00000  Uiso   1.00
C729   C     0.80803   0.24729   0.52185   0.00000  Uiso   1.00
C730   C     0.85864   0.08605   0.97815   0.00000  Uiso   1.00
C731   C     0.68791   0.12413   0.75288   0.00000  Uiso   1.00
C732   C     0.97875   0.20921   0.74712   0.00000  Uiso   1.00
C733   C     0.97867   0.12415   0.75304   0.00000  Uiso   1.00
C734   C     0.68799   0.20919   0.74696   0.00000  Uiso   1.00
C735   C     0.95726   0.16669   0.75012   0.00000  Uiso   1.00
C736   C     0.70940   0.16665   0.74988   0.00000  Uiso   1.00
C737   C     0.80600   0.02494   0.72456   0.00000  Uiso   1.00
C738   C     0.86067   0.30840   0.77544   0.00000  Uiso   1.00
C739   C     0.86069   0.02470   0.77539   0.00000  Uiso   1.00
C740   C     0.80598   0.30863   0.72461   0.00000  Uiso   1.00
C741   C     0.83243   0.16680   0.66431   0.00000  Uiso   1.00
C742   C     0.83424   0.16653   0.83569   0.00000  Uiso   1.00
C743   C     0.84988   0.12678   0.90774   0.00000  Uiso   1.00
C744   C     0.81678   0.20656   0.59226   0.00000  Uiso   1.00
C745   C     0.83571   0.16636   0.88410   0.00000  Uiso   1.00
C746   C     0.83095   0.16698   0.61590   0.00000  Uiso   1.00
C747   C     0.82283   0.20645   0.90673   0.00000  Uiso   1.00
C748   C     0.84383   0.12689   0.59327   0.00000  Uiso   1.00
C749   C     0.82224   0.20744   0.95289   0.00000  Uiso   1.00
C750   C     0.84442   0.12589   0.54711   0.00000  Uiso   1.00
C751   C     0.83410   0.16678   0.97673   0.00000  Uiso   1.00
C752   C     0.83257   0.16655   0.52327   0.00000  Uiso   1.00
C753   C     0.84759   0.12633   0.95411   0.00000  Uiso   1.00
C754   C     0.81908   0.20700   0.54589   0.00000  Uiso   1.00
C755   C     0.80959   0.24788   0.97584   0.00000  Uiso   1.00
C756   C     0.85707   0.08546   0.52416   0.00000  Uiso   1.00
Cu757  Cu    0.83333   0.21355   0.75000   0.00000  Uiso   1.00
Cu758  Cu    0.83333   0.11978   0.75000   0.00000  Uiso   1.00
H759   H     0.81260   0.23662   0.88790   0.00000  Uiso   1.00
H760   H     0.85406   0.09672   0.61210   0.00000  Uiso   1.00
H761   H     0.79818   0.27877   0.53872   0.00000  Uiso   1.00
H762   H     0.86848   0.05456   0.96128   0.00000  Uiso   1.00
H763   H     0.70391   0.09088   0.75524   0.00000  Uiso   1.00
H764   H     0.96276   0.24245   0.74476   0.00000  Uiso   1.00
H765   H     0.96261   0.09092   0.75553   0.00000  Uiso   1.00
H766   H     0.70405   0.24241   0.74447   0.00000  Uiso   1.00
H767   H     0.78413   0.04376   0.70416   0.00000  Uiso   1.00
H768   H     0.88253   0.28958   0.79584   0.00000  Uiso   1.00
H769   H     0.88264   0.04335   0.79559   0.00000  Uiso   1.00
H770   H     0.78403   0.28998   0.70441   0.00000  Uiso   1.00
N771   N     0.83333   0.28402   0.75000   0.00000  Uiso   1.00
N772   N     0.83333   0.04931   0.75000   0.00000  Uiso   1.00
O773   O     0.77321   0.20625   0.75000   0.00000  Uiso   1.00
O774   O     0.89345   0.12709   0.75001   0.00000  Uiso   1.00
O775   O     0.89345   0.20625   0.75001   0.00000  Uiso   1.00
O776   O     0.77321   0.12709   0.75000   0.00000  Uiso   1.00
O777   O     0.83332   0.20627   0.68513   0.00000  Uiso   1.00
O778   O     0.83334   0.12707   0.81487   0.00000  Uiso   1.00
O779   O     0.83334   0.20627   0.81487   0.00000  Uiso   1.00
O780   O     0.83332   0.12707   0.68513   0.00000  Uiso   1.00
O781   O     0.86504   0.08804   0.88560   0.00000  Uiso   1.00
C782   C     0.90771   0.09442   0.87913   0.00000  Uiso   1.00
H783   H     0.91392   0.12424   0.85616   0.00000  Uiso   1.00
H784   H     0.92049   0.06228   0.86388   0.00000  Uiso   1.00
H785   H     0.92419   0.09978   0.91101   0.00000  Uiso   1.00
O786   O     0.80163   0.24530   0.61440   0.00000  Uiso   1.00
C787   C     0.75896   0.23891   0.62088   0.00000  Uiso   1.00
H788   H     0.74617   0.27105   0.63612   0.00000  Uiso   1.00
H789   H     0.75275   0.20909   0.64384   0.00000  Uiso   1.00
H790   H     0.74248   0.23355   0.58899   0.00000  Uiso   1.00
Br791  Br    0.79434   0.30542   0.94662   0.00000  Uiso   1.00
Br792  Br    0.87232   0.02792   0.55338   0.00000  Uiso   1.00
C793   C     0.08734   0.49999   0.74991   0.00000  Uiso   1.00
C794   C     0.24599   0.50001   0.75009   0.00000  Uiso   1.00
C795   C     0.14136   0.58062   0.52185   0.00000  Uiso   1.00
C796   C     0.19197   0.41938   0.97815   0.00000  Uiso   1.00
C797   C     0.02125   0.45746   0.75288   0.00000  Uiso   1.00
C798   C     0.31209   0.54254   0.74712   0.00000  Uiso   1.00
C799   C     0.31201   0.45748   0.75304   0.00000  Uiso   1.00
C800   C     0.02133   0.54252   0.74696   0.00000  Uiso   1.00
C801   C     0.29060   0.50002   0.75012   0.00000  Uiso   1.00
C802   C     0.04273   0.49998   0.74988   0.00000  Uiso   1.00
C803   C     0.13933   0.35827   0.72456   0.00000  Uiso   1.00
C804   C     0.19400   0.64173   0.77544   0.00000  Uiso   1.00
C805   C     0.19402   0.35804   0.77539   0.00000  Uiso   1.00
C806   C     0.13931   0.64196   0.72461   0.00000  Uiso   1.00
C807   C     0.16576   0.50014   0.66431   0.00000  Uiso   1.00
C808   C     0.16757   0.49986   0.83569   0.00000  Uiso   1.00
C809   C     0.18322   0.46011   0.90774   0.00000  Uiso   1.00
C810   C     0.15012   0.53989   0.59226   0.00000  Uiso   1.00
C811   C     0.16905   0.49969   0.88410   0.00000  Uiso   1.00
C812   C     0.16429   0.50031   0.61590   0.00000  Uiso   1.00
C813   C     0.15617   0.53978   0.90673   0.00000  Uiso   1.00
C814   C     0.17716   0.46022   0.59327   0.00000  Uiso   1.00
C815   C     0.15558   0.54078   0.95289   0.00000  Uiso   1.00
C816   C     0.17776   0.45922   0.54711   0.00000  Uiso   1.00
C817   C     0.16743   0.50011   0.97673   0.00000  Uiso   1.00
C818   C     0.16590   0.49989   0.52327   0.00000  Uiso   1.00
C819   C     0.18092   0.45967   0.95411   0.00000  Uiso   1.00
C820   C     0.15241   0.54034   0.54589   0.00000  Uiso   1.00
C821   C     0.14293   0.58121   0.97584   0.00000  Uiso   1.00
C822   C     0.19041   0.41879   0.52416   0.00000  Uiso   1.00
Cu823  Cu    0.16667   0.54689   0.75000   0.00000  Uiso   1.00
Cu824  Cu    0.16667   0.45311   0.75000   0.00000  Uiso   1.00
H825   H     0.14594   0.56995   0.88790   0.00000  Uiso   1.00
H826   H     0.18739   0.43005   0.61210   0.00000  Uiso   1.00
H827   H     0.13152   0.61210   0.53872   0.00000  Uiso   1.00
H828   H     0.20182   0.38790   0.96128   0.00000  Uiso   1.00
H829   H     0.03724   0.42422   0.75524   0.00000  Uiso   1.00
H830   H     0.29609   0.57578   0.74476   0.00000  Uiso   1.00
H831   H     0.29595   0.42425   0.75553   0.00000  Uiso   1.00
H832   H     0.03739   0.57575   0.74447   0.00000  Uiso   1.00
H833   H     0.11747   0.37709   0.70416   0.00000  Uiso   1.00
H834   H     0.21587   0.62291   0.79584   0.00000  Uiso   1.00
H835   H     0.21597   0.37669   0.79559   0.00000  Uiso   1.00
H836   H     0.11736   0.62331   0.70441   0.00000  Uiso   1.00
N837   N     0.16667   0.61736   0.75000   0.00000  Uiso   1.00
N838   N     0.16667   0.38264   0.75000   0.00000  Uiso   1.00
O839   O     0.10655   0.53958   0.75000   0.00000  Uiso   1.00
O840   O     0.22679   0.46042   0.75001   0.00000  Uiso   1.00
O841   O     0.22679   0.53958   0.75001   0.00000  Uiso   1.00
O842   O     0.10655   0.46042   0.75000   0.00000  Uiso   1.00
O843   O     0.16666   0.53960   0.68513   0.00000  Uiso   1.00
O844   O     0.16668   0.46040   0.81487   0.00000  Uiso   1.00
O845   O     0.16668   0.53960   0.81487   0.00000  Uiso   1.00
O846   O     0.16666   0.46040   0.68513   0.00000  Uiso   1.00
O847   O     0.19837   0.42137   0.88560   0.00000  Uiso   1.00
C848   C     0.24104   0.42776   0.87913   0.00000  Uiso   1.00
H849   H     0.24725   0.45758   0.85616   0.00000  Uiso   1.00
H850   H     0.25383   0.39562   0.86388   0.00000  Uiso   1.00
H851   H     0.25752   0.43312   0.91101   0.00000  Uiso   1.00
O852   O     0.13496   0.57863   0.61440   0.00000  Uiso   1.00
C853   C     0.09229   0.57224   0.62088   0.00000  Uiso   1.00
H854   H     0.07951   0.60438   0.63612   0.00000  Uiso   1.00
H855   H     0.08608   0.54242   0.64384   0.00000  Uiso   1.00
H856   H     0.07581   0.56688   0.58899   0.00000  Uiso   1.00
Br857  Br    0.12768   0.63875   0.94662   0.00000  Uiso   1.00
Br858  Br    0.20566   0.36125   0.55338   0.00000  Uiso   1.00
C859   C     0.42067   0.49999   0.74991   0.00000  Uiso   1.00
C860   C     0.57933   0.50001   0.75009   0.00000  Uiso   1.00
C861   C     0.47470   0.58062   0.52185   0.00000  Uiso   1.00
C862   C     0.52530   0.41938   0.97815   0.00000  Uiso   1.00
C863   C     0.35458   0.45746   0.75288   0.00000  Uiso   1.00
C864   C     0.64542   0.54254   0.74712   0.00000  Uiso   1.00
C865   C     0.64534   0.45748   0.75304   0.00000  Uiso   1.00
C866   C     0.35466   0.54252   0.74696   0.00000  Uiso   1.00
C867   C     0.62393   0.50002   0.75012   0.00000  Uiso   1.00
C868   C     0.37607   0.49998   0.74988   0.00000  Uiso   1.00
C869   C     0.47267   0.35827   0.72456   0.00000  Uiso   1.00
C870   C     0.52733   0.64173   0.77544   0.00000  Uiso   1.00
C871   C     0.52735   0.35804   0.77539   0.00000  Uiso   1.00
C872   C     0.47265   0.64196   0.72461   0.00000  Uiso   1.00
C873   C     0.49909   0.50014   0.66431   0.00000  Uiso   1.00
C874   C     0.50091   0.49986   0.83569   0.00000  Uiso   1.00
C875   C     0.51655   0.46011   0.90774   0.00000  Uiso   1.00
C876   C     0.48345   0.53989   0.59226   0.00000  Uiso   1.00
C877   C     0.50238   0.49969   0.88410   0.00000  Uiso   1.00
C878   C     0.49762   0.50031   0.61590   0.00000  Uiso   1.00
C879   C     0.48950   0.53978   0.90673   0.00000  Uiso   1.00
C880   C     0.51050   0.46022   0.59327   0.00000  Uiso   1.00
C881   C     0.48891   0.54078   0.95289   0.00000  Uiso   1.00
C882   C     0.51109   0.45922   0.54711   0.00000  Uiso   1.00
C883   C     0.50076   0.50011   0.97673   0.00000  Uiso   1.00
C884   C     0.49924   0.49989   0.52327   0.00000  Uiso   1.00
C885   C     0.51426   0.45967   0.95411   0.00000  Uiso   1.00
C886   C     0.48574   0.54034   0.54589   0.00000  Uiso   1.00
C887   C     0.47626   0.58121   0.97584   0.00000  Uiso   1.00
C888   C     0.52374   0.41879   0.52416   0.00000  Uiso   1.00
Cu889  Cu    0.50000   0.54689   0.75000   0.00000  Uiso   1.00
Cu890  Cu    0.50000   0.45311   0.75000   0.00000  Uiso   1.00
H891   H     0.47927   0.56995   0.88790   0.00000  Uiso   1.00
H892   H     0.52073   0.43005   0.61210   0.00000  Uiso   1.00
H893   H     0.46485   0.61210   0.53872   0.00000  Uiso   1.00
H894   H     0.53515   0.38790   0.96128   0.00000  Uiso   1.00
H895   H     0.37057   0.42422   0.75524   0.00000  Uiso   1.00
H896   H     0.62943   0.57578   0.74476   0.00000  Uiso   1.00
H897   H     0.62928   0.42425   0.75553   0.00000  Uiso   1.00
H898   H     0.37072   0.57575   0.74447   0.00000  Uiso   1.00
H899   H     0.45080   0.37709   0.70416   0.00000  Uiso   1.00
H900   H     0.54920   0.62291   0.79584   0.00000  Uiso   1.00
H901   H     0.54930   0.37669   0.79559   0.00000  Uiso   1.00
H902   H     0.45070   0.62331   0.70441   0.00000  Uiso   1.00
N903   N     0.50000   0.61736   0.75000   0.00000  Uiso   1.00
N904   N     0.50000   0.38264   0.75000   0.00000  Uiso   1.00
O905   O     0.43988   0.53958   0.75000   0.00000  Uiso   1.00
O906   O     0.56012   0.46042   0.75001   0.00000  Uiso   1.00
O907   O     0.56012   0.53958   0.75001   0.00000  Uiso   1.00
O908   O     0.43988   0.46042   0.75000   0.00000  Uiso   1.00
O909   O     0.49999   0.53960   0.68513   0.00000  Uiso   1.00
O910   O     0.50001   0.46040   0.81487   0.00000  Uiso   1.00
O911   O     0.50001   0.53960   0.81487   0.00000  Uiso   1.00
O912   O     0.49999   0.46040   0.68513   0.00000  Uiso   1.00
O913   O     0.53171   0.42137   0.88560   0.00000  Uiso   1.00
C914   C     0.57437   0.42776   0.87913   0.00000  Uiso   1.00
H915   H     0.58058   0.45758   0.85616   0.00000  Uiso   1.00
H916   H     0.58716   0.39562   0.86388   0.00000  Uiso   1.00
H917   H     0.59085   0.43312   0.91101   0.00000  Uiso   1.00
O918   O     0.46829   0.57863   0.61440   0.00000  Uiso   1.00
C919   C     0.42563   0.57224   0.62088   0.00000  Uiso   1.00
H920   H     0.41284   0.60438   0.63612   0.00000  Uiso   1.00
H921   H     0.41942   0.54242   0.64384   0.00000  Uiso   1.00
H922   H     0.40914   0.56688   0.58899   0.00000  Uiso   1.00
Br923  Br    0.46101   0.63875   0.94662   0.00000  Uiso   1.00
Br924  Br    0.53899   0.36125   0.55338   0.00000  Uiso   1.00
C925   C     0.75401   0.49999   0.74991   0.00000  Uiso   1.00
C926   C     0.91266   0.50001   0.75009   0.00000  Uiso   1.00
C927   C     0.80803   0.58062   0.52185   0.00000  Uiso   1.00
C928   C     0.85864   0.41938   0.97815   0.00000  Uiso   1.00
C929   C     0.68791   0.45746   0.75288   0.00000  Uiso   1.00
C930   C     0.97875   0.54254   0.74712   0.00000  Uiso   1.00
C931   C     0.97867   0.45748   0.75304   0.00000  Uiso   1.00
C932   C     0.68799   0.54252   0.74696   0.00000  Uiso   1.00
C933   C     0.95726   0.50002   0.75012   0.00000  Uiso   1.00
C934   C     0.70940   0.49998   0.74988   0.00000  Uiso   1.00
C935   C     0.80600   0.35827   0.72456   0.00000  Uiso   1.00
C936   C     0.86067   0.64173   0.77544   0.00000  Uiso   1.00
C937   C     0.86069   0.35804   0.77539   0.00000  Uiso   1.00
C938   C     0.80598   0.64196   0.72461   0.00000  Uiso   1.00
C939   C     0.83243   0.50014   0.66431   0.00000  Uiso   1.00
C940   C     0.83424   0.49986   0.83569   0.00000  Uiso   1.00
C941   C     0.84988   0.46011   0.90774   0.00000  Uiso   1.00
C942   C     0.81678   0.53989   0.59226   0.00000  Uiso   1.00
C943   C     0.83571   0.49969   0.88410   0.00000  Uiso   1.00
C944   C     0.83095   0.50031   0.61590   0.00000  Uiso   1.00
C945   C     0.82283   0.53978   0.90673   0.00000  Uiso   1.00
C946   C     0.84383   0.46022   0.59327   0.00000  Uiso   1.00
C947   C     0.82224   0.54078   0.95289   0.00000  Uiso   1.00
C948   C     0.84442   0.45922   0.54711   0.00000  Uiso   1.00
C949   C     0.83410   0.50011   0.97673   0.00000  Uiso   1.00
C950   C     0.83257   0.49989   0.52327   0.00000  Uiso   1.00
C951   C     0.84759   0.45967   0.95411   0.00000  Uiso   1.00
C952   C     0.81908   0.54034   0.54589   0.00000  Uiso   1.00
C953   C     0.80959   0.58121   0.97584   0.00000  Uiso   1.00
C954   C     0.85707   0.41879   0.52416   0.00000  Uiso   1.00
Cu955  Cu    0.83333   0.54689   0.75000   0.00000  Uiso   1.00
Cu956  Cu    0.83333   0.45311   0.75000   0.00000  Uiso   1.00
H957   H     0.81260   0.56995   0.88790   0.00000  Uiso   1.00
H958   H     0.85406   0.43005   0.61210   0.00000  Uiso   1.00
H959   H     0.79818   0.61210   0.53872   0.00000  Uiso   1.00
H960   H     0.86848   0.38790   0.96128   0.00000  Uiso   1.00
H961   H     0.70391   0.42422   0.75524   0.00000  Uiso   1.00
H962   H     0.96276   0.57578   0.74476   0.00000  Uiso   1.00
H963   H     0.96261   0.42425   0.75553   0.00000  Uiso   1.00
H964   H     0.70405   0.57575   0.74447   0.00000  Uiso   1.00
H965   H     0.78413   0.37709   0.70416   0.00000  Uiso   1.00
H966   H     0.88253   0.62291   0.79584   0.00000  Uiso   1.00
H967   H     0.88264   0.37669   0.79559   0.00000  Uiso   1.00
H968   H     0.78403   0.62331   0.70441   0.00000  Uiso   1.00
N969   N     0.83333   0.61736   0.75000   0.00000  Uiso   1.00
N970   N     0.83333   0.38264   0.75000   0.00000  Uiso   1.00
O971   O     0.77321   0.53958   0.75000   0.00000  Uiso   1.00
O972   O     0.89345   0.46042   0.75001   0.00000  Uiso   1.00
O973   O     0.89345   0.53958   0.75001   0.00000  Uiso   1.00
O974   O     0.77321   0.46042   0.75000   0.00000  Uiso   1.00
O975   O     0.83332   0.53960   0.68513   0.00000  Uiso   1.00
O976   O     0.83334   0.46040   0.81487   0.00000  Uiso   1.00
O977   O     0.83334   0.53960   0.81487   0.00000  Uiso   1.00
O978   O     0.83332   0.46040   0.68513   0.00000  Uiso   1.00
O979   O     0.86504   0.42137   0.88560   0.00000  Uiso   1.00
C980   C     0.90771   0.42776   0.87913   0.00000  Uiso   1.00
H981   H     0.91392   0.45758   0.85616   0.00000  Uiso   1.00
H982   H     0.92049   0.39562   0.86388   0.00000  Uiso   1.00
H983   H     0.92419   0.43312   0.91101   0.00000  Uiso   1.00
O984   O     0.80163   0.57863   0.61440   0.00000  Uiso   1.00
C985   C     0.75896   0.57224   0.62088   0.00000  Uiso   1.00
H986   H     0.74617   0.60438   0.63612   0.00000  Uiso   1.00
H987   H     0.75275   0.54242   0.64384   0.00000  Uiso   1.00
H988   H     0.74248   0.56688   0.58899   0.00000  Uiso   1.00
Br989  Br    0.79434   0.63875   0.94662   0.00000  Uiso   1.00
Br990  Br    0.87232   0.36125   0.55338   0.00000  Uiso   1.00
C991   C     0.08734   0.83332   0.74991   0.00000  Uiso   1.00
C992   C     0.24599   0.83335   0.75009   0.00000  Uiso   1.00
C993   C     0.14136   0.91395   0.52185   0.00000  Uiso   1.00
C994   C     0.19197   0.75271   0.97815   0.00000  Uiso   1.00
C995   C     0.02125   0.79079   0.75288   0.00000  Uiso   1.00
C996   C     0.31209   0.87587   0.74712   0.00000  Uiso   1.00
C997   C     0.31201   0.79081   0.75304   0.00000  Uiso   1.00
C998   C     0.02133   0.87585   0.74696   0.00000  Uiso   1.00
C999   C     0.29060   0.83335   0.75012   0.00000  Uiso   1.00
C1000  C     0.04273   0.83331   0.74988   0.00000  Uiso   1.00
C1001  C     0.13933   0.69160   0.72456   0.00000  Uiso   1.00
C1002  C     0.19400   0.97506   0.77544   0.00000  Uiso   1.00
C1003  C     0.19402   0.69137   0.77539   0.00000  Uiso   1.00
C1004  C     0.13931   0.97530   0.72461   0.00000  Uiso   1.00
C1005  C     0.16576   0.83347   0.66431   0.00000  Uiso   1.00
C1006  C     0.16757   0.83320   0.83569   0.00000  Uiso   1.00
C1007  C     0.18322   0.79344   0.90774   0.00000  Uiso   1.00
C1008  C     0.15012   0.87322   0.59226   0.00000  Uiso   1.00
C1009  C     0.16905   0.83302   0.88410   0.00000  Uiso   1.00
C1010  C     0.16429   0.83364   0.61590   0.00000  Uiso   1.00
C1011  C     0.15617   0.87311   0.90673   0.00000  Uiso   1.00
C1012  C     0.17716   0.79355   0.59327   0.00000  Uiso   1.00
C1013  C     0.15558   0.87411   0.95289   0.00000  Uiso   1.00
C1014  C     0.17776   0.79256   0.54711   0.00000  Uiso   1.00
C1015  C     0.16743   0.83345   0.97673   0.00000  Uiso   1.00
C1016  C     0.16590   0.83322   0.52327   0.00000  Uiso   1.00
C1017  C     0.18092   0.79300   0.95411   0.00000  Uiso   1.00
C1018  C     0.15241   0.87367   0.54589   0.00000  Uiso   1.00
C1019  C     0.14293   0.91454   0.97584   0.00000  Uiso   1.00
C1020  C     0.19041   0.75212   0.52416   0.00000  Uiso   1.00
Cu1021 Cu    0.16667   0.88022   0.75000   0.00000  Uiso   1.00
Cu1022 Cu    0.16667   0.78645   0.75000   0.00000  Uiso   1.00
H1023  H     0.14594   0.90328   0.88790   0.00000  Uiso   1.00
H1024  H     0.18739   0.76338   0.61210   0.00000  Uiso   1.00
H1025  H     0.13152   0.94544   0.53872   0.00000  Uiso   1.00
H1026  H     0.20182   0.72123   0.96128   0.00000  Uiso   1.00
H1027  H     0.03724   0.75755   0.75524   0.00000  Uiso   1.00
H1028  H     0.29609   0.90912   0.74476   0.00000  Uiso   1.00
H1029  H     0.29595   0.75759   0.75553   0.00000  Uiso   1.00
H1030  H     0.03739   0.90908   0.74447   0.00000  Uiso   1.00
H1031  H     0.11747   0.71042   0.70416   0.00000  Uiso   1.00
H1032  H     0.21587   0.95624   0.79584   0.00000  Uiso   1.00
H1033  H     0.21597   0.71002   0.79559   0.00000  Uiso   1.00
H1034  H     0.11736   0.95665   0.70441   0.00000  Uiso   1.00
N1035  N     0.16667   0.95069   0.75000   0.00000  Uiso   1.00
N1036  N     0.16667   0.71598   0.75000   0.00000  Uiso   1.00
O1037  O     0.10655   0.87291   0.75000   0.00000  Uiso   1.00
O1038  O     0.22679   0.79375   0.75001   0.00000  Uiso   1.00
O1039  O     0.22679   0.87291   0.75001   0.00000  Uiso   1.00
O1040  O     0.10655   0.79375   0.75000   0.00000  Uiso   1.00
O1041  O     0.16666   0.87293   0.68513   0.00000  Uiso   1.00
O1042  O     0.16668   0.79373   0.81487   0.00000  Uiso   1.00
O1043  O     0.16668   0.87293   0.81487   0.00000  Uiso   1.00
O1044  O     0.16666   0.79373   0.68513   0.00000  Uiso   1.00
O1045  O     0.19837   0.75470   0.88560   0.00000  Uiso   1.00
C1046  C     0.24104   0.76109   0.87913   0.00000  Uiso   1.00
H1047  H     0.24725   0.79091   0.85616   0.00000  Uiso   1.00
H1048  H     0.25383   0.72895   0.86388   0.00000  Uiso   1.00
H1049  H     0.25752   0.76645   0.91101   0.00000  Uiso   1.00
O1050  O     0.13496   0.91196   0.61440   0.00000  Uiso   1.00
C1051  C     0.09229   0.90558   0.62088   0.00000  Uiso   1.00
H1052  H     0.07951   0.93772   0.63612   0.00000  Uiso   1.00
H1053  H     0.08608   0.87576   0.64384   0.00000  Uiso   1.00
H1054  H     0.07581   0.90022   0.58899   0.00000  Uiso   1.00
Br1055 Br    0.12768   0.97208   0.94662   0.00000  Uiso   1.00
Br1056 Br    0.20566   0.69458   0.55338   0.00000  Uiso   1.00
C1057  C     0.42067   0.83332   0.74991   0.00000  Uiso   1.00
C1058  C     0.57933   0.83335   0.75009   0.00000  Uiso   1.00
C1059  C     0.47470   0.91395   0.52185   0.00000  Uiso   1.00
C1060  C     0.52530   0.75271   0.97815   0.00000  Uiso   1.00
C1061  C     0.35458   0.79079   0.75288   0.00000  Uiso   1.00
C1062  C     0.64542   0.87587   0.74712   0.00000  Uiso   1.00
C1063  C     0.64534   0.79081   0.75304   0.00000  Uiso   1.00
C1064  C     0.35466   0.87585   0.74696   0.00000  Uiso   1.00
C1065  C     0.62393   0.83335   0.75012   0.00000  Uiso   1.00
C1066  C     0.37607   0.83331   0.74988   0.00000  Uiso   1.00
C1067  C     0.47267   0.69160   0.72456   0.00000  Uiso   1.00
C1068  C     0.52733   0.97506   0.77544   0.00000  Uiso   1.00
C1069  C     0.52735   0.69137   0.77539   0.00000  Uiso   1.00
C1070  C     0.47265   0.97530   0.72461   0.00000  Uiso   1.00
C1071  C     0.49909   0.83347   0.66431   0.00000  Uiso   1.00
C1072  C     0.50091   0.83320   0.83569   0.00000  Uiso   1.00
C1073  C     0.51655   0.79344   0.90774   0.00000  Uiso   1.00
C1074  C     0.48345   0.87322   0.59226   0.00000  Uiso   1.00
C1075  C     0.50238   0.83302   0.88410   0.00000  Uiso   1.00
C1076  C     0.49762   0.83364   0.61590   0.00000  Uiso   1.00
C1077  C     0.48950   0.87311   0.90673   0.00000  Uiso   1.00
C1078  C     0.51050   0.79355   0.59327   0.00000  Uiso   1.00
C1079  C     0.48891   0.87411   0.95289   0.00000  Uiso   1.00
C1080  C     0.51109   0.79256   0.54711   0.00000  Uiso   1.00
C1081  C     0.50076   0.83345   0.97673   0.00000  Uiso   1.00
C1082  C     0.49924   0.83322   0.52327   0.00000  Uiso   1.00
C1083  C     0.51426   0.79300   0.95411   0.00000  Uiso   1.00
C1084  C     0.48574   0.87367   0.54589   0.00000  Uiso   1.00
C1085  C     0.47626   0.91454   0.97584   0.00000  Uiso   1.00
C1086  C     0.52374   0.75212   0.52416   0.00000  Uiso   1.00
Cu1087 Cu    0.50000   0.88022   0.75000   0.00000  Uiso   1.00
Cu1088 Cu    0.50000   0.78645   0.75000   0.00000  Uiso   1.00
H1089  H     0.47927   0.90328   0.88790   0.00000  Uiso   1.00
H1090  H     0.52073   0.76338   0.61210   0.00000  Uiso   1.00
H1091  H     0.46485   0.94544   0.53872   0.00000  Uiso   1.00
H1092  H     0.53515   0.72123   0.96128   0.00000  Uiso   1.00
H1093  H     0.37057   0.75755   0.75524   0.00000  Uiso   1.00
H1094  H     0.62943   0.90912   0.74476   0.00000  Uiso   1.00
H1095  H     0.62928   0.75759   0.75553   0.00000  Uiso   1.00
H1096  H     0.37072   0.90908   0.74447   0.00000  Uiso   1.00
H1097  H     0.45080   0.71042   0.70416   0.00000  Uiso   1.00
H1098  H     0.54920   0.95624   0.79584   0.00000  Uiso   1.00
H1099  H     0.54930   0.71002   0.79559   0.00000  Uiso   1.00
H1100  H     0.45070   0.95665   0.70441   0.00000  Uiso   1.00
N1101  N     0.50000   0.95069   0.75000   0.00000  Uiso   1.00
N1102  N     0.50000   0.71598   0.75000   0.00000  Uiso   1.00
O1103  O     0.43988   0.87291   0.75000   0.00000  Uiso   1.00
O1104  O     0.56012   0.79375   0.75001   0.00000  Uiso   1.00
O1105  O     0.56012   0.87291   0.75001   0.00000  Uiso   1.00
O1106  O     0.43988   0.79375   0.75000   0.00000  Uiso   1.00
O1107  O     0.49999   0.87293   0.68513   0.00000  Uiso   1.00
O1108  O     0.50001   0.79373   0.81487   0.00000  Uiso   1.00
O1109  O     0.50001   0.87293   0.81487   0.00000  Uiso   1.00
O1110  O     0.49999   0.79373   0.68513   0.00000  Uiso   1.00
O1111  O     0.53171   0.75470   0.88560   0.00000  Uiso   1.00
C1112  C     0.57437   0.76109   0.87913   0.00000  Uiso   1.00
H1113  H     0.58058   0.79091   0.85616   0.00000  Uiso   1.00
H1114  H     0.58716   0.72895   0.86388   0.00000  Uiso   1.00
H1115  H     0.59085   0.76645   0.91101   0.00000  Uiso   1.00
O1116  O     0.46829   0.91196   0.61440   0.00000  Uiso   1.00
C1117  C     0.42563   0.90558   0.62088   0.00000  Uiso   1.00
H1118  H     0.41284   0.93772   0.63612   0.00000  Uiso   1.00
H1119  H     0.41942   0.87576   0.64384   0.00000  Uiso   1.00
H1120  H     0.40914   0.90022   0.58899   0.00000  Uiso   1.00
Br1121 Br    0.46101   0.97208   0.94662   0.00000  Uiso   1.00
Br1122 Br    0.53899   0.69458   0.55338   0.00000  Uiso   1.00
C1123  C     0.75401   0.83332   0.74991   0.00000  Uiso   1.00
C1124  C     0.91266   0.83335   0.75009   0.00000  Uiso   1.00
C1125  C     0.80803   0.91395   0.52185   0.00000  Uiso   1.00
C1126  C     0.85864   0.75271   0.97815   0.00000  Uiso   1.00
C1127  C     0.68791   0.79079   0.75288   0.00000  Uiso   1.00
C1128  C     0.97875   0.87587   0.74712   0.00000  Uiso   1.00
C1129  C     0.97867   0.79081   0.75304   0.00000  Uiso   1.00
C1130  C     0.68799   0.87585   0.74696   0.00000  Uiso   1.00
C1131  C     0.95726   0.83335   0.75012   0.00000  Uiso   1.00
C1132  C     0.70940   0.83331   0.74988   0.00000  Uiso   1.00
C1133  C     0.80600   0.69160   0.72456   0.00000  Uiso   1.00
C1134  C     0.86067   0.97506   0.77544   0.00000  Uiso   1.00
C1135  C     0.86069   0.69137   0.77539   0.00000  Uiso   1.00
C1136  C     0.80598   0.97530   0.72461   0.00000  Uiso   1.00
C1137  C     0.83243   0.83347   0.66431   0.00000  Uiso   1.00
C1138  C     0.83424   0.83320   0.83569   0.00000  Uiso   1.00
C1139  C     0.84988   0.79344   0.90774   0.00000  Uiso   1.00
C1140  C     0.81678   0.87322   0.59226   0.00000  Uiso   1.00
C1141  C     0.83571   0.83302   0.88410   0.00000  Uiso   1.00
C1142  C     0.83095   0.83364   0.61590   0.00000  Uiso   1.00
C1143  C     0.82283   0.87311   0.90673   0.00000  Uiso   1.00
C1144  C     0.84383   0.79355   0.59327   0.00000  Uiso   1.00
C1145  C     0.82224   0.87411   0.95289   0.00000  Uiso   1.00
C1146  C     0.84442   0.79256   0.54711   0.00000  Uiso   1.00
C1147  C     0.83410   0.83345   0.97673   0.00000  Uiso   1.00
C1148  C     0.83257   0.83322   0.52327   0.00000  Uiso   1.00
C1149  C     0.84759   0.79300   0.95411   0.00000  Uiso   1.00
C1150  C     0.81908   0.87367   0.54589   0.00000  Uiso   1.00
C1151  C     0.80959   0.91454   0.97584   0.00000  Uiso   1.00
C1152  C     0.85707   0.75212   0.52416   0.00000  Uiso   1.00
Cu1153 Cu    0.83333   0.88022   0.75000   0.00000  Uiso   1.00
Cu1154 Cu    0.83333   0.78645   0.75000   0.00000  Uiso   1.00
H1155  H     0.81260   0.90328   0.88790   0.00000  Uiso   1.00
H1156  H     0.85406   0.76338   0.61210   0.00000  Uiso   1.00
H1157  H     0.79818   0.94544   0.53872   0.00000  Uiso   1.00
H1158  H     0.86848   0.72123   0.96128   0.00000  Uiso   1.00
H1159  H     0.70391   0.75755   0.75524   0.00000  Uiso   1.00
H1160  H     0.96276   0.90912   0.74476   0.00000  Uiso   1.00
H1161  H     0.96261   0.75759   0.75553   0.00000  Uiso   1.00
H1162  H     0.70405   0.90908   0.74447   0.00000  Uiso   1.00
H1163  H     0.78413   0.71042   0.70416   0.00000  Uiso   1.00
H1164  H     0.88253   0.95624   0.79584   0.00000  Uiso   1.00
H1165  H     0.88264   0.71002   0.79559   0.00000  Uiso   1.00
H1166  H     0.78403   0.95665   0.70441   0.00000  Uiso   1.00
N1167  N     0.83333   0.95069   0.75000   0.00000  Uiso   1.00
N1168  N     0.83333   0.71598   0.75000   0.00000  Uiso   1.00
O1169  O     0.77321   0.87291   0.75000   0.00000  Uiso   1.00
O1170  O     0.89345   0.79375   0.75001   0.00000  Uiso   1.00
O1171  O     0.89345   0.87291   0.75001   0.00000  Uiso   1.00
O1172  O     0.77321   0.79375   0.75000   0.00000  Uiso   1.00
O1173  O     0.83332   0.87293   0.68513   0.00000  Uiso   1.00
O1174  O     0.83334   0.79373   0.81487   0.00000  Uiso   1.00
O1175  O     0.83334   0.87293   0.81487   0.00000  Uiso   1.00
O1176  O     0.83332   0.79373   0.68513   0.00000  Uiso   1.00
O1177  O     0.86504   0.75470   0.88560   0.00000  Uiso   1.00
C1178  C     0.90771   0.76109   0.87913   0.00000  Uiso   1.00
H1179  H     0.91392   0.79091   0.85616   0.00000  Uiso   1.00
H1180  H     0.92049   0.72895   0.86388   0.00000  Uiso   1.00
H1181  H     0.92419   0.76645   0.91101   0.00000  Uiso   1.00
O1182  O     0.80163   0.91196   0.61440   0.00000  Uiso   1.00
C1183  C     0.75896   0.90558   0.62088   0.00000  Uiso   1.00
H1184  H     0.74617   0.93772   0.63612   0.00000  Uiso   1.00
H1185  H     0.75275   0.87576   0.64384   0.00000  Uiso   1.00
H1186  H     0.74248   0.90022   0.58899   0.00000  Uiso   1.00
Br1187 Br    0.79434   0.97208   0.94662   0.00000  Uiso   1.00
Br1188 Br    0.87232   0.69458   0.55338   0.00000  Uiso   1.00
loop_
_geom_bond_atom_site_label_1
_geom_bond_atom_site_label_2
_geom_bond_distance
_geom_bond_site_symmetry_2
_ccdc_geom_bond_type
C1     O50     1.290   .     A
C1     O47     1.289   .     A
C1     C10     1.449   .     S
C2     O49     1.290   .     A
C2     O48     1.289   .     A
C2     C9      1.449   .     S
C3     H35     1.083   .     S
C3     C28     1.403   .     A
C3     C623    1.391   1_554 S
C4     H36     1.083   .     S
C4     C27     1.403   .     A
C4     C624    1.391   .     S
C5     H37     1.083   .     S
C5     C10     1.401   .     A
C5     C139    1.383   1_455 S
C6     H38     1.083   .     S
C6     C9      1.401   .     A
C6     C74     1.383   .     S
C7     C9      1.401   .     A
C7     H39     1.083   .     S
C7     C71     1.383   .     S
C8     H40     1.083   .     S
C8     C10     1.401   .     A
C8     C138    1.383   1_455 S
C11    H41     1.082   .     S
C11    N46     1.367   .     A
C11    C410    1.415   1_545 S
C12    H42     1.082   .     S
C12    N45     1.367   .     A
C12    C211    1.415   .     S
C13    H43     1.080   .     S
C13    N46     1.366   .     A
C13    C408    1.415   1_545 S
C14    H44     1.080   .     S
C14    N45     1.366   .     A
C14    C209    1.415   .     S
C15    O51     1.292   .     A
C15    C20     1.464   .     S
C15    O54     1.293   .     A
C16    C19     1.464   .     S
C16    O53     1.293   .     A
C16    O52     1.292   .     A
C17    O55     1.385   .     S
C17    C19     1.410   .     A
C17    C27     1.403   .     A
C18    O60     1.385   .     S
C18    C20     1.410   .     A
C18    C28     1.403   .     A
C19    C21     1.399   .     A
C20    C22     1.399   .     A
C21    C23     1.396   .     A
C21    H33     1.081   .     S
C22    H34     1.081   .     S
C22    C24     1.396   .     A
C23    C29     1.410   .     A
C23    C25     1.415   .     A
C24    C26     1.415   .     A
C24    C30     1.410   .     A
C25    C27     1.414   .     A
C25    C620    1.407   .     S
C26    C28     1.414   .     A
C26    C619    1.407   1_554 S
C29    Br65    1.924   .     S
C29    C597    1.391   .     S
C30    Br66    1.924   .     S
C30    C598    1.391   1_554 S
Cu31   Cu32    2.673   .     S
Cu31   O47     1.964   .     S
Cu31   O53     1.970   .     S
Cu31   O49     1.965   .     S
Cu31   N45     2.009   .     S
Cu31   O51     1.972   .     S
Cu32   O48     1.964   .     S
Cu32   O50     1.965   .     S
Cu32   O54     1.970   .     S
Cu32   N46     2.009   .     S
Cu32   O52     1.972   .     S
O55    C56     1.412   .     S
C56    H59     1.114   .     S
C56    H58     1.109   .     S
C56    H57     1.113   .     S
O60    C61     1.412   .     S
C61    H64     1.114   .     S
C61    H62     1.109   .     S
C61    H63     1.113   .     S
C67    O116    1.290   .     A
C67    O113    1.289   .     A
C67    C76     1.449   .     S
C68    O115    1.290   .     A
C68    O114    1.289   .     A
C68    C75     1.449   .     S
C69    H101    1.083   .     S
C69    C94     1.403   .     A
C69    C689    1.391   1_554 S
C70    H102    1.083   .     S
C70    C93     1.403   .     A
C70    C690    1.391   .     S
C71    H103    1.083   .     S
C71    C76     1.401   .     A
C72    H104    1.083   .     S
C72    C75     1.401   .     A
C72    C140    1.383   .     S
C73    C75     1.401   .     A
C73    H105    1.083   .     S
C73    C137    1.383   .     S
C74    H106    1.083   .     S
C74    C76     1.401   .     A
C77    H107    1.082   .     S
C77    N112    1.367   .     A
C77    C476    1.415   1_545 S
C78    H108    1.082   .     S
C78    N111    1.367   .     A
C78    C277    1.415   .     S
C79    H109    1.080   .     S
C79    N112    1.366   .     A
C79    C474    1.415   1_545 S
C80    H110    1.080   .     S
C80    N111    1.366   .     A
C80    C275    1.415   .     S
C81    O117    1.292   .     A
C81    C86     1.464   .     S
C81    O120    1.293   .     A
C82    C85     1.464   .     S
C82    O119    1.293   .     A
C82    O118    1.292   .     A
C83    O121    1.385   .     S
C83    C85     1.410   .     A
C83    C93     1.403   .     A
C84    O126    1.385   .     S
C84    C86     1.410   .     A
C84    C94     1.403   .     A
C85    C87     1.399   .     A
C86    C88     1.399   .     A
C87    C89     1.396   .     A
C87    H99     1.081   .     S
C88    H100    1.081   .     S
C88    C90     1.396   .     A
C89    C95     1.410   .     A
C89    C91     1.415   .     A
C90    C92     1.415   .     A
C90    C96     1.410   .     A
C91    C93     1.414   .     A
C91    C686    1.407   .     S
C92    C94     1.414   .     A
C92    C685    1.407   1_554 S
C95    Br131   1.924   .     S
C95    C663    1.391   .     S
C96    Br132   1.924   .     S
C96    C664    1.391   1_554 S
Cu97   Cu98    2.673   .     S
Cu97   O113    1.964   .     S
Cu97   O119    1.970   .     S
Cu97   O115    1.965   .     S
Cu97   N111    2.009   .     S
Cu97   O117    1.972   .     S
Cu98   O114    1.964   .     S
Cu98   O116    1.965   .     S
Cu98   O120    1.970   .     S
Cu98   N112    2.009   .     S
Cu98   O118    1.972   .     S
O121   C122    1.412   .     S
C122   H125    1.114   .     S
C122   H124    1.109   .     S
C122   H123    1.113   .     S
O126   C127    1.412   .     S
C127   H130    1.114   .     S
C127   H128    1.109   .     S
C127   H129    1.113   .     S
C133   O182    1.290   .     A
C133   O179    1.289   .     A
C133   C142    1.449   .     S
C134   O181    1.290   .     A
C134   O180    1.289   .     A
C134   C141    1.449   .     S
C135   H167    1.083   .     S
C135   C160    1.403   .     A
C135   C755    1.391   1_554 S
C136   H168    1.083   .     S
C136   C159    1.403   .     A
C136   C756    1.391   .     S
C137   H169    1.083   .     S
C137   C142    1.401   .     A
C138   H170    1.083   .     S
C138   C141    1.401   .     A
C138   C8      1.383   1_655 S
C139   C141    1.401   .     A
C139   H171    1.083   .     S
C139   C5      1.383   1_655 S
C140   H172    1.083   .     S
C140   C142    1.401   .     A
C143   H173    1.082   .     S
C143   N178    1.367   .     A
C143   C542    1.415   1_545 S
C144   H174    1.082   .     S
C144   N177    1.367   .     A
C144   C343    1.415   .     S
C145   H175    1.080   .     S
C145   N178    1.366   .     A
C145   C540    1.415   1_545 S
C146   H176    1.080   .     S
C146   N177    1.366   .     A
C146   C341    1.415   .     S
C147   O183    1.292   .     A
C147   C152    1.464   .     S
C147   O186    1.293   .     A
C148   C151    1.464   .     S
C148   O185    1.293   .     A
C148   O184    1.292   .     A
C149   O187    1.385   .     S
C149   C151    1.410   .     A
C149   C159    1.403   .     A
C150   O192    1.385   .     S
C150   C152    1.410   .     A
C150   C160    1.403   .     A
C151   C153    1.399   .     A
C152   C154    1.399   .     A
C153   C155    1.396   .     A
C153   H165    1.081   .     S
C154   H166    1.081   .     S
C154   C156    1.396   .     A
C155   C161    1.410   .     A
C155   C157    1.415   .     A
C156   C158    1.415   .     A
C156   C162    1.410   .     A
C157   C159    1.414   .     A
C157   C752    1.407   .     S
C158   C160    1.414   .     A
C158   C751    1.407   1_554 S
C161   Br197   1.924   .     S
C161   C729    1.391   .     S
C162   Br198   1.924   .     S
C162   C730    1.391   1_554 S
Cu163  Cu164   2.673   .     S
Cu163  O179    1.964   .     S
Cu163  O185    1.970   .     S
Cu163  O181    1.965   .     S
Cu163  N177    2.009   .     S
Cu163  O183    1.972   .     S
Cu164  O180    1.964   .     S
Cu164  O182    1.965   .     S
Cu164  O186    1.970   .     S
Cu164  N178    2.009   .     S
Cu164  O184    1.972   .     S
O187   C188    1.412   .     S
C188   H191    1.114   .     S
C188   H190    1.109   .     S
C188   H189    1.113   .     S
O192   C193    1.412   .     S
C193   H196    1.114   .     S
C193   H194    1.109   .     S
C193   H195    1.113   .     S
C199   O248    1.290   .     A
C199   O245    1.289   .     A
C199   C208    1.449   .     S
C200   O247    1.290   .     A
C200   O246    1.289   .     A
C200   C207    1.449   .     S
C201   H233    1.083   .     S
C201   C226    1.403   .     A
C201   C821    1.391   1_554 S
C202   H234    1.083   .     S
C202   C225    1.403   .     A
C202   C822    1.391   .     S
C203   H235    1.083   .     S
C203   C208    1.401   .     A
C203   C337    1.383   1_455 S
C204   H236    1.083   .     S
C204   C207    1.401   .     A
C204   C272    1.383   .     S
C205   C207    1.401   .     A
C205   H237    1.083   .     S
C205   C269    1.383   .     S
C206   H238    1.083   .     S
C206   C208    1.401   .     A
C206   C336    1.383   1_455 S
C209   H239    1.082   .     S
C209   N244    1.367   .     A
C210   H240    1.082   .     S
C210   N243    1.367   .     A
C210   C409    1.415   .     S
C211   H241    1.080   .     S
C211   N244    1.366   .     A
C212   H242    1.080   .     S
C212   N243    1.366   .     A
C212   C407    1.415   .     S
C213   O249    1.292   .     A
C213   C218    1.464   .     S
C213   O252    1.293   .     A
C214   C217    1.464   .     S
C214   O251    1.293   .     A
C214   O250    1.292   .     A
C215   O253    1.385   .     S
C215   C217    1.410   .     A
C215   C225    1.403   .     A
C216   O258    1.385   .     S
C216   C218    1.410   .     A
C216   C226    1.403   .     A
C217   C219    1.399   .     A
C218   C220    1.399   .     A
C219   C221    1.396   .     A
C219   H231    1.081   .     S
C220   H232    1.081   .     S
C220   C222    1.396   .     A
C221   C227    1.410   .     A
C221   C223    1.415   .     A
C222   C224    1.415   .     A
C222   C228    1.410   .     A
C223   C225    1.414   .     A
C223   C818    1.407   .     S
C224   C226    1.414   .     A
C224   C817    1.407   1_554 S
C227   Br263   1.924   .     S
C227   C795    1.391   .     S
C228   Br264   1.924   .     S
C228   C796    1.391   1_554 S
Cu229  Cu230   2.673   .     S
Cu229  O245    1.964   .     S
Cu229  O251    1.970   .     S
Cu229  O247    1.965   .     S
Cu229  N243    2.009   .     S
Cu229  O249    1.972   .     S
Cu230  O246    1.964   .     S
Cu230  O248    1.965   .     S
Cu230  O252    1.970   .     S
Cu230  N244    2.009   .     S
Cu230  O250    1.972   .     S
O253   C254    1.412   .     S
C254   H257    1.114   .     S
C254   H256    1.109   .     S
C254   H255    1.113   .     S
O258   C259    1.412   .     S
C259   H262    1.114   .     S
C259   H260    1.109   .     S
C259   H261    1.113   .     S
C265   O314    1.290   .     A
C265   O311    1.289   .     A
C265   C274    1.449   .     S
C266   O313    1.290   .     A
C266   O312    1.289   .     A
C266   C273    1.449   .     S
C267   H299    1.083   .     S
C267   C292    1.403   .     A
C267   C887    1.391   1_554 S
C268   H300    1.083   .     S
C268   C291    1.403   .     A
C268   C888    1.391   .     S
C269   H301    1.083   .     S
C269   C274    1.401   .     A
C270   H302    1.083   .     S
C270   C273    1.401   .     A
C270   C338    1.383   .     S
C271   C273    1.401   .     A
C271   H303    1.083   .     S
C271   C335    1.383   .     S
C272   H304    1.083   .     S
C272   C274    1.401   .     A
C275   H305    1.082   .     S
C275   N310    1.367   .     A
C276   H306    1.082   .     S
C276   N309    1.367   .     A
C276   C475    1.415   .     S
C277   H307    1.080   .     S
C277   N310    1.366   .     A
C278   H308    1.080   .     S
C278   N309    1.366   .     A
C278   C473    1.415   .     S
C279   O315    1.292   .     A
C279   C284    1.464   .     S
C279   O318    1.293   .     A
C280   C283    1.464   .     S
C280   O317    1.293   .     A
C280   O316    1.292   .     A
C281   O319    1.385   .     S
C281   C283    1.410   .     A
C281   C291    1.403   .     A
C282   O324    1.385   .     S
C282   C284    1.410   .     A
C282   C292    1.403   .     A
C283   C285    1.399   .     A
C284   C286    1.399   .     A
C285   C287    1.396   .     A
C285   H297    1.081   .     S
C286   H298    1.081   .     S
C286   C288    1.396   .     A
C287   C293    1.410   .     A
C287   C289    1.415   .     A
C288   C290    1.415   .     A
C288   C294    1.410   .     A
C289   C291    1.414   .     A
C289   C884    1.407   .     S
C290   C292    1.414   .     A
C290   C883    1.407   1_554 S
C293   Br329   1.924   .     S
C293   C861    1.391   .     S
C294   Br330   1.924   .     S
C294   C862    1.391   1_554 S
Cu295  Cu296   2.673   .     S
Cu295  O311    1.964   .     S
Cu295  O317    1.970   .     S
Cu295  O313    1.965   .     S
Cu295  N309    2.009   .     S
Cu295  O315    1.972   .     S
Cu296  O312    1.964   .     S
Cu296  O314    1.965   .     S
Cu296  O318    1.970   .     S
Cu296  N310    2.009   .     S
Cu296  O316    1.972   .     S
O319   C320    1.412   .     S
C320   H323    1.114   .     S
C320   H322    1.109   .     S
C320   H321    1.113   .     S
O324   C325    1.412   .     S
C325   H328    1.114   .     S
C325   H326    1.109   .     S
C325   H327    1.113   .     S
C331   O380    1.290   .     A
C331   O377    1.289   .     A
C331   C340    1.449   .     S
C332   O379    1.290   .     A
C332   O378    1.289   .     A
C332   C339    1.449   .     S
C333   H365    1.083   .     S
C333   C358    1.403   .     A
C333   C953    1.391   1_554 S
C334   H366    1.083   .     S
C334   C357    1.403   .     A
C334   C954    1.391   .     S
C335   H367    1.083   .     S
C335   C340    1.401   .     A
C336   H368    1.083   .     S
C336   C339    1.401   .     A
C336   C206    1.383   1_655 S
C337   C339    1.401   .     A
C337   H369    1.083   .     S
C337   C203    1.383   1_655 S
C338   H370    1.083   .     S
C338   C340    1.401   .     A
C341   H371    1.082   .     S
C341   N376    1.367   .     A
C342   H372    1.082   .     S
C342   N375    1.367   .     A
C342   C541    1.415   .     S
C343   H373    1.080   .     S
C343   N376    1.366   .     A
C344   H374    1.080   .     S
C344   N375    1.366   .     A
C344   C539    1.415   .     S
C345   O381    1.292   .     A
C345   C350    1.464   .     S
C345   O384    1.293   .     A
C346   C349    1.464   .     S
C346   O383    1.293   .     A
C346   O382    1.292   .     A
C347   O385    1.385   .     S
C347   C349    1.410   .     A
C347   C357    1.403   .     A
C348   O390    1.385   .     S
C348   C350    1.410   .     A
C348   C358    1.403   .     A
C349   C351    1.399   .     A
C350   C352    1.399   .     A
C351   C353    1.396   .     A
C351   H363    1.081   .     S
C352   H364    1.081   .     S
C352   C354    1.396   .     A
C353   C359    1.410   .     A
C353   C355    1.415   .     A
C354   C356    1.415   .     A
C354   C360    1.410   .     A
C355   C357    1.414   .     A
C355   C950    1.407   .     S
C356   C358    1.414   .     A
C356   C949    1.407   1_554 S
C359   Br395   1.924   .     S
C359   C927    1.391   .     S
C360   Br396   1.924   .     S
C360   C928    1.391   1_554 S
Cu361  Cu362   2.673   .     S
Cu361  O377    1.964   .     S
Cu361  O383    1.970   .     S
Cu361  O379    1.965   .     S
Cu361  N375    2.009   .     S
Cu361  O381    1.972   .     S
Cu362  O378    1.964   .     S
Cu362  O380    1.965   .     S
Cu362  O384    1.970   .     S
Cu362  N376    2.009   .     S
Cu362  O382    1.972   .     S
O385   C386    1.412   .     S
C386   H389    1.114   .     S
C386   H388    1.109   .     S
C386   H387    1.113   .     S
O390   C391    1.412   .     S
C391   H394    1.114   .     S
C391   H392    1.109   .     S
C391   H393    1.113   .     S
C397   O446    1.290   .     A
C397   O443    1.289   .     A
C397   C406    1.449   .     S
C398   O445    1.290   .     A
C398   O444    1.289   .     A
C398   C405    1.449   .     S
C399   H431    1.083   .     S
C399   C424    1.403   .     A
C399   C1019   1.391   1_554 S
C400   H432    1.083   .     S
C400   C423    1.403   .     A
C400   C1020   1.391   .     S
C401   H433    1.083   .     S
C401   C406    1.401   .     A
C401   C535    1.383   1_455 S
C402   H434    1.083   .     S
C402   C405    1.401   .     A
C402   C470    1.383   .     S
C403   C405    1.401   .     A
C403   H435    1.083   .     S
C403   C467    1.383   .     S
C404   H436    1.083   .     S
C404   C406    1.401   .     A
C404   C534    1.383   1_455 S
C407   H437    1.082   .     S
C407   N442    1.367   .     A
C408   H438    1.082   .     S
C408   N441    1.367   .     A
C408   C13     1.415   1_565 S
C409   H439    1.080   .     S
C409   N442    1.366   .     A
C410   H440    1.080   .     S
C410   N441    1.366   .     A
C410   C11     1.415   1_565 S
C411   O447    1.292   .     A
C411   C416    1.464   .     S
C411   O450    1.293   .     A
C412   C415    1.464   .     S
C412   O449    1.293   .     A
C412   O448    1.292   .     A
C413   O451    1.385   .     S
C413   C415    1.410   .     A
C413   C423    1.403   .     A
C414   O456    1.385   .     S
C414   C416    1.410   .     A
C414   C424    1.403   .     A
C415   C417    1.399   .     A
C416   C418    1.399   .     A
C417   C419    1.396   .     A
C417   H429    1.081   .     S
C418   H430    1.081   .     S
C418   C420    1.396   .     A
C419   C425    1.410   .     A
C419   C421    1.415   .     A
C420   C422    1.415   .     A
C420   C426    1.410   .     A
C421   C423    1.414   .     A
C421   C1016   1.407   .     S
C422   C424    1.414   .     A
C422   C1015   1.407   1_554 S
C425   Br461   1.924   .     S
C425   C993    1.391   .     S
C426   Br462   1.924   .     S
C426   C994    1.391   1_554 S
Cu427  Cu428   2.673   .     S
Cu427  O443    1.964   .     S
Cu427  O449    1.970   .     S
Cu427  O445    1.965   .     S
Cu427  N441    2.009   .     S
Cu427  O447    1.972   .     S
Cu428  O444    1.964   .     S
Cu428  O446    1.965   .     S
Cu428  O450    1.970   .     S
Cu428  N442    2.009   .     S
Cu428  O448    1.972   .     S
O451   C452    1.412   .     S
C452   H455    1.114   .     S
C452   H454    1.109   .     S
C452   H453    1.113   .     S
O456   C457    1.412   .     S
C457   H460    1.114   .     S
C457   H458    1.109   .     S
C457   H459    1.113   .     S
C463   O512    1.290   .     A
C463   O509    1.289   .     A
C463   C472    1.449   .     S
C464   O511    1.290   .     A
C464   O510    1.289   .     A
C464   C471    1.449   .     S
C465   H497    1.083   .     S
C465   C490    1.403   .     A
C465   C1085   1.391   1_554 S
C466   H498    1.083   .     S
C466   C489    1.403   .     A
C466   C1086   1.391   .     S
C467   H499    1.083   .     S
C467   C472    1.401   .     A
C468   H500    1.083   .     S
C468   C471    1.401   .     A
C468   C536    1.383   .     S
C469   C471    1.401   .     A
C469   H501    1.083   .     S
C469   C533    1.383   .     S
C470   H502    1.083   .     S
C470   C472    1.401   .     A
C473   H503    1.082   .     S
C473   N508    1.367   .     A
C474   H504    1.082   .     S
C474   N507    1.367   .     A
C474   C79     1.415   1_565 S
C475   H505    1.080   .     S
C475   N508    1.366   .     A
C476   H506    1.080   .     S
C476   N507    1.366   .     A
C476   C77     1.415   1_565 S
C477   O513    1.292   .     A
C477   C482    1.464   .     S
C477   O516    1.293   .     A
C478   C481    1.464   .     S
C478   O515    1.293   .     A
C478   O514    1.292   .     A
C479   O517    1.385   .     S
C479   C481    1.410   .     A
C479   C489    1.403   .     A
C480   O522    1.385   .     S
C480   C482    1.410   .     A
C480   C490    1.403   .     A
C481   C483    1.399   .     A
C482   C484    1.399   .     A
C483   C485    1.396   .     A
C483   H495    1.081   .     S
C484   H496    1.081   .     S
C484   C486    1.396   .     A
C485   C491    1.410   .     A
C485   C487    1.415   .     A
C486   C488    1.415   .     A
C486   C492    1.410   .     A
C487   C489    1.414   .     A
C487   C1082   1.407   .     S
C488   C490    1.414   .     A
C488   C1081   1.407   1_554 S
C491   Br527   1.924   .     S
C491   C1059   1.391   .     S
C492   Br528   1.924   .     S
C492   C1060   1.391   1_554 S
Cu493  Cu494   2.673   .     S
Cu493  O509    1.964   .     S
Cu493  O515    1.970   .     S
Cu493  O511    1.965   .     S
Cu493  N507    2.009   .     S
Cu493  O513    1.972   .     S
Cu494  O510    1.964   .     S
Cu494  O512    1.965   .     S
Cu494  O516    1.970   .     S
Cu494  N508    2.009   .     S
Cu494  O514    1.972   .     S
O517   C518    1.412   .     S
C518   H521    1.114   .     S
C518   H520    1.109   .     S
C518   H519    1.113   .     S
O522   C523    1.412   .     S
C523   H526    1.114   .     S
C523   H524    1.109   .     S
C523   H525    1.113   .     S
C529   O578    1.290   .     A
C529   O575    1.289   .     A
C529   C538    1.449   .     S
C530   O577    1.290   .     A
C530   O576    1.289   .     A
C530   C537    1.449   .     S
C531   H563    1.083   .     S
C531   C556    1.403   .     A
C531   C1151   1.391   1_554 S
C532   H564    1.083   .     S
C532   C555    1.403   .     A
C532   C1152   1.391   .     S
C533   H565    1.083   .     S
C533   C538    1.401   .     A
C534   H566    1.083   .     S
C534   C537    1.401   .     A
C534   C404    1.383   1_655 S
C535   C537    1.401   .     A
C535   H567    1.083   .     S
C535   C401    1.383   1_655 S
C536   H568    1.083   .     S
C536   C538    1.401   .     A
C539   H569    1.082   .     S
C539   N574    1.367   .     A
C540   H570    1.082   .     S
C540   N573    1.367   .     A
C540   C145    1.415   1_565 S
C541   H571    1.080   .     S
C541   N574    1.366   .     A
C542   H572    1.080   .     S
C542   N573    1.366   .     A
C542   C143    1.415   1_565 S
C543   O579    1.292   .     A
C543   C548    1.464   .     S
C543   O582    1.293   .     A
C544   C547    1.464   .     S
C544   O581    1.293   .     A
C544   O580    1.292   .     A
C545   O583    1.385   .     S
C545   C547    1.410   .     A
C545   C555    1.403   .     A
C546   O588    1.385   .     S
C546   C548    1.410   .     A
C546   C556    1.403   .     A
C547   C549    1.399   .     A
C548   C550    1.399   .     A
C549   C551    1.396   .     A
C549   H561    1.081   .     S
C550   H562    1.081   .     S
C550   C552    1.396   .     A
C551   C557    1.410   .     A
C551   C553    1.415   .     A
C552   C554    1.415   .     A
C552   C558    1.410   .     A
C553   C555    1.414   .     A
C553   C1148   1.407   .     S
C554   C556    1.414   .     A
C554   C1147   1.407   1_554 S
C557   Br593   1.924   .     S
C557   C1125   1.391   .     S
C558   Br594   1.924   .     S
C558   C1126   1.391   1_554 S
Cu559  Cu560   2.673   .     S
Cu559  O575    1.964   .     S
Cu559  O581    1.970   .     S
Cu559  O577    1.965   .     S
Cu559  N573    2.009   .     S
Cu559  O579    1.972   .     S
Cu560  O576    1.964   .     S
Cu560  O578    1.965   .     S
Cu560  O582    1.970   .     S
Cu560  N574    2.009   .     S
Cu560  O580    1.972   .     S
O583   C584    1.412   .     S
C584   H587    1.114   .     S
C584   H586    1.109   .     S
C584   H585    1.113   .     S
O588   C589    1.412   .     S
C589   H592    1.114   .     S
C589   H590    1.109   .     S
C589   H591    1.113   .     S
C595   O644    1.290   .     A
C595   O641    1.289   .     A
C595   C604    1.449   .     S
C596   O643    1.290   .     A
C596   O642    1.289   .     A
C596   C603    1.449   .     S
C597   H629    1.083   .     S
C597   C622    1.403   .     A
C598   H630    1.083   .     S
C598   C621    1.403   .     A
C598   C30     1.391   1_556 S
C599   H631    1.083   .     S
C599   C604    1.401   .     A
C599   C733    1.383   1_455 S
C600   H632    1.083   .     S
C600   C603    1.401   .     A
C600   C668    1.383   .     S
C601   C603    1.401   .     A
C601   H633    1.083   .     S
C601   C665    1.383   .     S
C602   H634    1.083   .     S
C602   C604    1.401   .     A
C602   C732    1.383   1_455 S
C605   H635    1.082   .     S
C605   N640    1.367   .     A
C605   C1004   1.415   1_545 S
C606   H636    1.082   .     S
C606   N639    1.367   .     A
C606   C805    1.415   .     S
C607   H637    1.080   .     S
C607   N640    1.366   .     A
C607   C1002   1.415   1_545 S
C608   H638    1.080   .     S
C608   N639    1.366   .     A
C608   C803    1.415   .     S
C609   O645    1.292   .     A
C609   C614    1.464   .     S
C609   O648    1.293   .     A
C610   C613    1.464   .     S
C610   O647    1.293   .     A
C610   O646    1.292   .     A
C611   O649    1.385   .     S
C611   C613    1.410   .     A
C611   C621    1.403   .     A
C612   O654    1.385   .     S
C612   C614    1.410   .     A
C612   C622    1.403   .     A
C613   C615    1.399   .     A
C614   C616    1.399   .     A
C615   C617    1.396   .     A
C615   H627    1.081   .     S
C616   H628    1.081   .     S
C616   C618    1.396   .     A
C617   C623    1.410   .     A
C617   C619    1.415   .     A
C618   C620    1.415   .     A
C618   C624    1.410   .     A
C619   C621    1.414   .     A
C619   C26     1.407   1_556 S
C620   C622    1.414   .     A
C623   Br659   1.924   .     S
C623   C3      1.391   1_556 S
C624   Br660   1.924   .     S
Cu625  Cu626   2.673   .     S
Cu625  O641    1.964   .     S
Cu625  O647    1.970   .     S
Cu625  O643    1.965   .     S
Cu625  N639    2.009   .     S
Cu625  O645    1.972   .     S
Cu626  O642    1.964   .     S
Cu626  O644    1.965   .     S
Cu626  O648    1.970   .     S
Cu626  N640    2.009   .     S
Cu626  O646    1.972   .     S
O649   C650    1.412   .     S
C650   H653    1.114   .     S
C650   H652    1.109   .     S
C650   H651    1.113   .     S
O654   C655    1.412   .     S
C655   H658    1.114   .     S
C655   H656    1.109   .     S
C655   H657    1.113   .     S
C661   O710    1.290   .     A
C661   O707    1.289   .     A
C661   C670    1.449   .     S
C662   O709    1.290   .     A
C662   O708    1.289   .     A
C662   C669    1.449   .     S
C663   H695    1.083   .     S
C663   C688    1.403   .     A
C664   H696    1.083   .     S
C664   C687    1.403   .     A
C664   C96     1.391   1_556 S
C665   H697    1.083   .     S
C665   C670    1.401   .     A
C666   H698    1.083   .     S
C666   C669    1.401   .     A
C666   C734    1.383   .     S
C667   C669    1.401   .     A
C667   H699    1.083   .     S
C667   C731    1.383   .     S
C668   H700    1.083   .     S
C668   C670    1.401   .     A
C671   H701    1.082   .     S
C671   N706    1.367   .     A
C671   C1070   1.415   1_545 S
C672   H702    1.082   .     S
C672   N705    1.367   .     A
C672   C871    1.415   .     S
C673   H703    1.080   .     S
C673   N706    1.366   .     A
C673   C1068   1.415   1_545 S
C674   H704    1.080   .     S
C674   N705    1.366   .     A
C674   C869    1.415   .     S
C675   O711    1.292   .     A
C675   C680    1.464   .     S
C675   O714    1.293   .     A
C676   C679    1.464   .     S
C676   O713    1.293   .     A
C676   O712    1.292   .     A
C677   O715    1.385   .     S
C677   C679    1.410   .     A
C677   C687    1.403   .     A
C678   O720    1.385   .     S
C678   C680    1.410   .     A
C678   C688    1.403   .     A
C679   C681    1.399   .     A
C680   C682    1.399   .     A
C681   C683    1.396   .     A
C681   H693    1.081   .     S
C682   H694    1.081   .     S
C682   C684    1.396   .     A
C683   C689    1.410   .     A
C683   C685    1.415   .     A
C684   C686    1.415   .     A
C684   C690    1.410   .     A
C685   C687    1.414   .     A
C685   C92     1.407   1_556 S
C686   C688    1.414   .     A
C689   Br725   1.924   .     S
C689   C69     1.391   1_556 S
C690   Br726   1.924   .     S
Cu691  Cu692   2.673   .     S
Cu691  O707    1.964   .     S
Cu691  O713    1.970   .     S
Cu691  O709    1.965   .     S
Cu691  N705    2.009   .     S
Cu691  O711    1.972   .     S
Cu692  O708    1.964   .     S
Cu692  O710    1.965   .     S
Cu692  O714    1.970   .     S
Cu692  N706    2.009   .     S
Cu692  O712    1.972   .     S
O715   C716    1.412   .     S
C716   H719    1.114   .     S
C716   H718    1.109   .     S
C716   H717    1.113   .     S
O720   C721    1.412   .     S
C721   H724    1.114   .     S
C721   H722    1.109   .     S
C721   H723    1.113   .     S
C727   O776    1.290   .     A
C727   O773    1.289   .     A
C727   C736    1.449   .     S
C728   O775    1.290   .     A
C728   O774    1.289   .     A
C728   C735    1.449   .     S
C729   H761    1.083   .     S
C729   C754    1.403   .     A
C730   H762    1.083   .     S
C730   C753    1.403   .     A
C730   C162    1.391   1_556 S
C731   H763    1.083   .     S
C731   C736    1.401   .     A
C732   H764    1.083   .     S
C732   C735    1.401   .     A
C732   C602    1.383   1_655 S
C733   C735    1.401   .     A
C733   H765    1.083   .     S
C733   C599    1.383   1_655 S
C734   H766    1.083   .     S
C734   C736    1.401   .     A
C737   H767    1.082   .     S
C737   N772    1.367   .     A
C737   C1136   1.415   1_545 S
C738   H768    1.082   .     S
C738   N771    1.367   .     A
C738   C937    1.415   .     S
C739   H769    1.080   .     S
C739   N772    1.366   .     A
C739   C1134   1.415   1_545 S
C740   H770    1.080   .     S
C740   N771    1.366   .     A
C740   C935    1.415   .     S
C741   O777    1.292   .     A
C741   C746    1.464   .     S
C741   O780    1.293   .     A
C742   C745    1.464   .     S
C742   O779    1.293   .     A
C742   O778    1.292   .     A
C743   O781    1.385   .     S
C743   C745    1.410   .     A
C743   C753    1.403   .     A
C744   O786    1.385   .     S
C744   C746    1.410   .     A
C744   C754    1.403   .     A
C745   C747    1.399   .     A
C746   C748    1.399   .     A
C747   C749    1.396   .     A
C747   H759    1.081   .     S
C748   H760    1.081   .     S
C748   C750    1.396   .     A
C749   C755    1.410   .     A
C749   C751    1.415   .     A
C750   C752    1.415   .     A
C750   C756    1.410   .     A
C751   C753    1.414   .     A
C751   C158    1.407   1_556 S
C752   C754    1.414   .     A
C755   Br791   1.924   .     S
C755   C135    1.391   1_556 S
C756   Br792   1.924   .     S
Cu757  Cu758   2.673   .     S
Cu757  O773    1.964   .     S
Cu757  O779    1.970   .     S
Cu757  O775    1.965   .     S
Cu757  N771    2.009   .     S
Cu757  O777    1.972   .     S
Cu758  O774    1.964   .     S
Cu758  O776    1.965   .     S
Cu758  O780    1.970   .     S
Cu758  N772    2.009   .     S
Cu758  O778    1.972   .     S
O781   C782    1.412   .     S
C782   H785    1.114   .     S
C782   H784    1.109   .     S
C782   H783    1.113   .     S
O786   C787    1.412   .     S
C787   H790    1.114   .     S
C787   H788    1.109   .     S
C787   H789    1.113   .     S
C793   O842    1.290   .     A
C793   O839    1.289   .     A
C793   C802    1.449   .     S
C794   O841    1.290   .     A
C794   O840    1.289   .     A
C794   C801    1.449   .     S
C795   H827    1.083   .     S
C795   C820    1.403   .     A
C796   H828    1.083   .     S
C796   C819    1.403   .     A
C796   C228    1.391   1_556 S
C797   H829    1.083   .     S
C797   C802    1.401   .     A
C797   C931    1.383   1_455 S
C798   H830    1.083   .     S
C798   C801    1.401   .     A
C798   C866    1.383   .     S
C799   C801    1.401   .     A
C799   H831    1.083   .     S
C799   C863    1.383   .     S
C800   H832    1.083   .     S
C800   C802    1.401   .     A
C800   C930    1.383   1_455 S
C803   H833    1.082   .     S
C803   N838    1.367   .     A
C804   H834    1.082   .     S
C804   N837    1.367   .     A
C804   C1003   1.415   .     S
C805   H835    1.080   .     S
C805   N838    1.366   .     A
C806   H836    1.080   .     S
C806   N837    1.366   .     A
C806   C1001   1.415   .     S
C807   O843    1.292   .     A
C807   C812    1.464   .     S
C807   O846    1.293   .     A
C808   C811    1.464   .     S
C808   O845    1.293   .     A
C808   O844    1.292   .     A
C809   O847    1.385   .     S
C809   C811    1.410   .     A
C809   C819    1.403   .     A
C810   O852    1.385   .     S
C810   C812    1.410   .     A
C810   C820    1.403   .     A
C811   C813    1.399   .     A
C812   C814    1.399   .     A
C813   C815    1.396   .     A
C813   H825    1.081   .     S
C814   H826    1.081   .     S
C814   C816    1.396   .     A
C815   C821    1.410   .     A
C815   C817    1.415   .     A
C816   C818    1.415   .     A
C816   C822    1.410   .     A
C817   C819    1.414   .     A
C817   C224    1.407   1_556 S
C818   C820    1.414   .     A
C821   Br857   1.924   .     S
C821   C201    1.391   1_556 S
C822   Br858   1.924   .     S
Cu823  Cu824   2.673   .     S
Cu823  O839    1.964   .     S
Cu823  O845    1.970   .     S
Cu823  O841    1.965   .     S
Cu823  N837    2.009   .     S
Cu823  O843    1.972   .     S
Cu824  O840    1.964   .     S
Cu824  O842    1.965   .     S
Cu824  O846    1.970   .     S
Cu824  N838    2.009   .     S
Cu824  O844    1.972   .     S
O847   C848    1.412   .     S
C848   H851    1.114   .     S
C848   H850    1.109   .     S
C848   H849    1.113   .     S
O852   C853    1.412   .     S
C853   H856    1.114   .     S
C853   H854    1.109   .     S
C853   H855    1.113   .     S
C859   O908    1.290   .     A
C859   O905    1.289   .     A
C859   C868    1.449   .     S
C860   O907    1.290   .     A
C860   O906    1.289   .     A
C860   C867    1.449   .     S
C861   H893    1.083   .     S
C861   C886    1.403   .     A
C862   H894    1.083   .     S
C862   C885    1.403   .     A
C862   C294    1.391   1_556 S
C863   H895    1.083   .     S
C863   C868    1.401   .     A
C864   H896    1.083   .     S
C864   C867    1.401   .     A
C864   C932    1.383   .     S
C865   C867    1.401   .     A
C865   H897    1.083   .     S
C865   C929    1.383   .     S
C866   H898    1.083   .     S
C866   C868    1.401   .     A
C869   H899    1.082   .     S
C869   N904    1.367   .     A
C870   H900    1.082   .     S
C870   N903    1.367   .     A
C870   C1069   1.415   .     S
C871   H901    1.080   .     S
C871   N904    1.366   .     A
C872   H902    1.080   .     S
C872   N903    1.366   .     A
C872   C1067   1.415   .     S
C873   O909    1.292   .     A
C873   C878    1.464   .     S
C873   O912    1.293   .     A
C874   C877    1.464   .     S
C874   O911    1.293   .     A
C874   O910    1.292   .     A
C875   O913    1.385   .     S
C875   C877    1.410   .     A
C875   C885    1.403   .     A
C876   O918    1.385   .     S
C876   C878    1.410   .     A
C876   C886    1.403   .     A
C877   C879    1.399   .     A
C878   C880    1.399   .     A
C879   C881    1.396   .     A
C879   H891    1.081   .     S
C880   H892    1.081   .     S
C880   C882    1.396   .     A
C881   C887    1.410   .     A
C881   C883    1.415   .     A
C882   C884    1.415   .     A
C882   C888    1.410   .     A
C883   C885    1.414   .     A
C883   C290    1.407   1_556 S
C884   C886    1.414   .     A
C887   Br923   1.924   .     S
C887   C267    1.391   1_556 S
C888   Br924   1.924   .     S
Cu889  Cu890   2.673   .     S
Cu889  O905    1.964   .     S
Cu889  O911    1.970   .     S
Cu889  O907    1.965   .     S
Cu889  N903    2.009   .     S
Cu889  O909    1.972   .     S
Cu890  O906    1.964   .     S
Cu890  O908    1.965   .     S
Cu890  O912    1.970   .     S
Cu890  N904    2.009   .     S
Cu890  O910    1.972   .     S
O913   C914    1.412   .     S
C914   H917    1.114   .     S
C914   H916    1.109   .     S
C914   H915    1.113   .     S
O918   C919    1.412   .     S
C919   H922    1.114   .     S
C919   H920    1.109   .     S
C919   H921    1.113   .     S
C925   O974    1.290   .     A
C925   O971    1.289   .     A
C925   C934    1.449   .     S
C926   O973    1.290   .     A
C926   O972    1.289   .     A
C926   C933    1.449   .     S
C927   H959    1.083   .     S
C927   C952    1.403   .     A
C928   H960    1.083   .     S
C928   C951    1.403   .     A
C928   C360    1.391   1_556 S
C929   H961    1.083   .     S
C929   C934    1.401   .     A
C930   H962    1.083   .     S
C930   C933    1.401   .     A
C930   C800    1.383   1_655 S
C931   C933    1.401   .     A
C931   H963    1.083   .     S
C931   C797    1.383   1_655 S
C932   H964    1.083   .     S
C932   C934    1.401   .     A
C935   H965    1.082   .     S
C935   N970    1.367   .     A
C936   H966    1.082   .     S
C936   N969    1.367   .     A
C936   C1135   1.415   .     S
C937   H967    1.080   .     S
C937   N970    1.366   .     A
C938   H968    1.080   .     S
C938   N969    1.366   .     A
C938   C1133   1.415   .     S
C939   O975    1.292   .     A
C939   C944    1.464   .     S
C939   O978    1.293   .     A
C940   C943    1.464   .     S
C940   O977    1.293   .     A
C940   O976    1.292   .     A
C941   O979    1.385   .     S
C941   C943    1.410   .     A
C941   C951    1.403   .     A
C942   O984    1.385   .     S
C942   C944    1.410   .     A
C942   C952    1.403   .     A
C943   C945    1.399   .     A
C944   C946    1.399   .     A
C945   C947    1.396   .     A
C945   H957    1.081   .     S
C946   H958    1.081   .     S
C946   C948    1.396   .     A
C947   C953    1.410   .     A
C947   C949    1.415   .     A
C948   C950    1.415   .     A
C948   C954    1.410   .     A
C949   C951    1.414   .     A
C949   C356    1.407   1_556 S
C950   C952    1.414   .     A
C953   Br989   1.924   .     S
C953   C333    1.391   1_556 S
C954   Br990   1.924   .     S
Cu955  Cu956   2.673   .     S
Cu955  O971    1.964   .     S
Cu955  O977    1.970   .     S
Cu955  O973    1.965   .     S
Cu955  N969    2.009   .     S
Cu955  O975    1.972   .     S
Cu956  O972    1.964   .     S
Cu956  O974    1.965   .     S
Cu956  O978    1.970   .     S
Cu956  N970    2.009   .     S
Cu956  O976    1.972   .     S
O979   C980    1.412   .     S
C980   H983    1.114   .     S
C980   H982    1.109   .     S
C980   H981    1.113   .     S
O984   C985    1.412   .     S
C985   H988    1.114   .     S
C985   H986    1.109   .     S
C985   H987    1.113   .     S
C991   O1040   1.290   .     A
C991   O1037   1.289   .     A
C991   C1000   1.449   .     S
C992   O1039   1.290   .     A
C992   O1038   1.289   .     A
C992   C999    1.449   .     S
C993   H1025   1.083   .     S
C993   C1018   1.403   .     A
C994   H1026   1.083   .     S
C994   C1017   1.403   .     A
C994   C426    1.391   1_556 S
C995   H1027   1.083   .     S
C995   C1000   1.401   .     A
C995   C1129   1.383   1_455 S
C996   H1028   1.083   .     S
C996   C999    1.401   .     A
C996   C1064   1.383   .     S
C997   C999    1.401   .     A
C997   H1029   1.083   .     S
C997   C1061   1.383   .     S
C998   H1030   1.083   .     S
C998   C1000   1.401   .     A
C998   C1128   1.383   1_455 S
C1001  H1031   1.082   .     S
C1001  N1036   1.367   .     A
C1002  H1032   1.082   .     S
C1002  N1035   1.367   .     A
C1002  C607    1.415   1_565 S
C1003  H1033   1.080   .     S
C1003  N1036   1.366   .     A
C1004  H1034   1.080   .     S
C1004  N1035   1.366   .     A
C1004  C605    1.415   1_565 S
C1005  O1041   1.292   .     A
C1005  C1010   1.464   .     S
C1005  O1044   1.293   .     A
C1006  C1009   1.464   .     S
C1006  O1043   1.293   .     A
C1006  O1042   1.292   .     A
C1007  O1045   1.385   .     S
C1007  C1009   1.410   .     A
C1007  C1017   1.403   .     A
C1008  O1050   1.385   .     S
C1008  C1010   1.410   .     A
C1008  C1018   1.403   .     A
C1009  C1011   1.399   .     A
C1010  C1012   1.399   .     A
C1011  C1013   1.396   .     A
C1011  H1023   1.081   .     S
C1012  H1024   1.081   .     S
C1012  C1014   1.396   .     A
C1013  C1019   1.410   .     A
C1013  C1015   1.415   .     A
C1014  C1016   1.415   .     A
C1014  C1020   1.410   .     A
C1015  C1017   1.414   .     A
C1015  C422    1.407   1_556 S
C1016  C1018   1.414   .     A
C1019  Br1055  1.924   .     S
C1019  C399    1.391   1_556 S
C1020  Br1056  1.924   .     S
Cu1021 Cu1022  2.673   .     S
Cu1021 O1037   1.964   .     S
Cu1021 O1043   1.970   .     S
Cu1021 O1039   1.965   .     S
Cu1021 N1035   2.009   .     S
Cu1021 O1041   1.972   .     S
Cu1022 O1038   1.964   .     S
Cu1022 O1040   1.965   .     S
Cu1022 O1044   1.970   .     S
Cu1022 N1036   2.009   .     S
Cu1022 O1042   1.972   .     S
O1045  C1046   1.412   .     S
C1046  H1049   1.114   .     S
C1046  H1048   1.109   .     S
C1046  H1047   1.113   .     S
O1050  C1051   1.412   .     S
C1051  H1054   1.114   .     S
C1051  H1052   1.109   .     S
C1051  H1053   1.113   .     S
C1057  O1106   1.290   .     A
C1057  O1103   1.289   .     A
C1057  C1066   1.449   .     S
C1058  O1105   1.290   .     A
C1058  O1104   1.289   .     A
C1058  C1065   1.449   .     S
C1059  H1091   1.083   .     S
C1059  C1084   1.403   .     A
C1060  H1092   1.083   .     S
C1060  C1083   1.403   .     A
C1060  C492    1.391   1_556 S
C1061  H1093   1.083   .     S
C1061  C1066   1.401   .     A
C1062  H1094   1.083   .     S
C1062  C1065   1.401   .     A
C1062  C1130   1.383   .     S
C1063  C1065   1.401   .     A
C1063  H1095   1.083   .     S
C1063  C1127   1.383   .     S
C1064  H1096   1.083   .     S
C1064  C1066   1.401   .     A
C1067  H1097   1.082   .     S
C1067  N1102   1.367   .     A
C1068  H1098   1.082   .     S
C1068  N1101   1.367   .     A
C1068  C673    1.415   1_565 S
C1069  H1099   1.080   .     S
C1069  N1102   1.366   .     A
C1070  H1100   1.080   .     S
C1070  N1101   1.366   .     A
C1070  C671    1.415   1_565 S
C1071  O1107   1.292   .     A
C1071  C1076   1.464   .     S
C1071  O1110   1.293   .     A
C1072  C1075   1.464   .     S
C1072  O1109   1.293   .     A
C1072  O1108   1.292   .     A
C1073  O1111   1.385   .     S
C1073  C1075   1.410   .     A
C1073  C1083   1.403   .     A
C1074  O1116   1.385   .     S
C1074  C1076   1.410   .     A
C1074  C1084   1.403   .     A
C1075  C1077   1.399   .     A
C1076  C1078   1.399   .     A
C1077  C1079   1.396   .     A
C1077  H1089   1.081   .     S
C1078  H1090   1.081   .     S
C1078  C1080   1.396   .     A
C1079  C1085   1.410   .     A
C1079  C1081   1.415   .     A
C1080  C1082   1.415   .     A
C1080  C1086   1.410   .     A
C1081  C1083   1.414   .     A
C1081  C488    1.407   1_556 S
C1082  C1084   1.414   .     A
C1085  Br1121  1.924   .     S
C1085  C465    1.391   1_556 S
C1086  Br1122  1.924   .     S
Cu1087 Cu1088  2.673   .     S
Cu1087 O1103   1.964   .     S
Cu1087 O1109   1.970   .     S
Cu1087 O1105   1.965   .     S
Cu1087 N1101   2.009   .     S
Cu1087 O1107   1.972   .     S
Cu1088 O1104   1.964   .     S
Cu1088 O1106   1.965   .     S
Cu1088 O1110   1.970   .     S
Cu1088 N1102   2.009   .     S
Cu1088 O1108   1.972   .     S
O1111  C1112   1.412   .     S
C1112  H1115   1.114   .     S
C1112  H1114   1.109   .     S
C1112  H1113   1.113   .     S
O1116  C1117   1.412   .     S
C1117  H1120   1.114   .     S
C1117  H1118   1.109   .     S
C1117  H1119   1.113   .     S
C1123  O1172   1.290   .     A
C1123  O1169   1.289   .     A
C1123  C1132   1.449   .     S
C1124  O1171   1.290   .     A
C1124  O1170   1.289   .     A
C1124  C1131   1.449   .     S
C1125  H1157   1.083   .     S
C1125  C1150   1.403   .     A
C1126  H1158   1.083   .     S
C1126  C1149   1.403   .     A
C1126  C558    1.391   1_556 S
C1127  H1159   1.083   .     S
C1127  C1132   1.401   .     A
C1128  H1160   1.083   .     S
C1128  C1131   1.401   .     A
C1128  C998    1.383   1_655 S
C1129  C1131   1.401   .     A
C1129  H1161   1.083   .     S
C1129  C995    1.383   1_655 S
C1130  H1162   1.083   .     S
C1130  C1132   1.401   .     A
C1133  H1163   1.082   .     S
C1133  N1168   1.367   .     A
C1134  H1164   1.082   .     S
C1134  N1167   1.367   .     A
C1134  C739    1.415   1_565 S
C1135  H1165   1.080   .     S
C1135  N1168   1.366   .     A
C1136  H1166   1.080   .     S
C1136  N1167   1.366   .     A
C1136  C737    1.415   1_565 S
C1137  O1173   1.292   .     A
C1137  C1142   1.464   .     S
C1137  O1176   1.293   .     A
C1138  C1141   1.464   .     S
C1138  O1175   1.293   .     A
C1138  O1174   1.292   .     A
C1139  O1177   1.385   .     S
C1139  C1141   1.410   .     A
C1139  C1149   1.403   .     A
C1140  O1182   1.385   .     S
C1140  C1142   1.410   .     A
C1140  C1150   1.403   .     A
C1141  C1143   1.399   .     A
C1142  C1144   1.399   .     A
C1143  C1145   1.396   .     A
C1143  H1155   1.081   .     S
C1144  H1156   1.081   .     S
C1144  C1146   1.396   .     A
C1145  C1151   1.410   .     A
C1145  C1147   1.415   .     A
C1146  C1148   1.415   .     A
C1146  C1152   1.410   .     A
C1147  C1149   1.414   .     A
C1147  C554    1.407   1_556 S
C1148  C1150   1.414   .     A
C1151  Br1187  1.924   .     S
C1151  C531    1.391   1_556 S
C1152  Br1188  1.924   .     S
Cu1153 Cu1154  2.673   .     S
Cu1153 O1169   1.964   .     S
Cu1153 O1175   1.970   .     S
Cu1153 O1171   1.965   .     S
Cu1153 N1167   2.009   .     S
Cu1153 O1173   1.972   .     S
Cu1154 O1170   1.964   .     S
Cu1154 O1172   1.965   .     S
Cu1154 O1176   1.970   .     S
Cu1154 N1168   2.009   .     S
Cu1154 O1174   1.972   .     S
O1177  C1178   1.412   .     S
C1178  H1181   1.114   .     S
C1178  H1180   1.109   .     S
C1178  H1179   1.113   .     S
O1182  C1183   1.412   .     S
C1183  H1186   1.114   .     S
C1183  H1184   1.109   .     S
C1183  H1185   1.113   .     S
