data_str_m2_o1_o2_pcu_sym.16
_audit_creation_date              2020-01-03
_audit_creation_method            'Materials Studio'
_symmetry_space_group_name_H-M    'P1'
_symmetry_Int_Tables_number       1
_symmetry_cell_setting            triclinic
loop_
_symmetry_equiv_pos_as_xyz
  x,y,z
_cell_length_a                    32.3435
_cell_length_b                    28.5758
_cell_length_c                    30.2590
_cell_angle_alpha                 90.0486
_cell_angle_beta                  90.1662
_cell_angle_gamma                 90.0289
loop_
_atom_site_label
_atom_site_type_symbol
_atom_site_fract_x
_atom_site_fract_y
_atom_site_fract_z
_atom_site_U_iso_or_equiv
_atom_site_adp_type
_atom_site_occupancy
C1     C     0.08754   0.16666   0.25000   0.00000  Uiso   1.00
C2     C     0.31148   0.18000   0.21120   0.00000  Uiso   1.00
C3     C     0.31166   0.15337   0.28880   0.00000  Uiso   1.00
C4     C     0.02159   0.18230   0.21200   0.00000  Uiso   1.00
C5     C     0.18018   0.20652   0.04775   0.00000  Uiso   1.00
C6     C     0.18034   0.12683   0.45233   0.00000  Uiso   1.00
C7     C     0.15458   0.20657   0.45245   0.00000  Uiso   1.00
C8     C     0.15461   0.12667   0.04746   0.00000  Uiso   1.00
C9     C     0.17970   0.20662   0.09367   0.00000  Uiso   1.00
C10    C     0.17991   0.12675   0.40640   0.00000  Uiso   1.00
C11    C     0.15464   0.20668   0.40653   0.00000  Uiso   1.00
C12    C     0.24578   0.16668   0.25000   0.00000  Uiso   1.00
C13    C     0.15461   0.12659   0.09340   0.00000  Uiso   1.00
C14    C     0.16700   0.16662   0.11673   0.00000  Uiso   1.00
C15    C     0.16713   0.16670   0.38326   0.00000  Uiso   1.00
C16    C     0.16749   0.16660   0.02428   0.00000  Uiso   1.00
C17    C     0.16752   0.16668   0.47572   0.00000  Uiso   1.00
C18    C     0.29044   0.16669   0.25000   0.00000  Uiso   1.00
C19    C     0.04282   0.16666   0.25001   0.00000  Uiso   1.00
C20    C     0.04571   0.13239   0.32636   0.00000  Uiso   1.00
C21    C     0.28763   0.18896   0.16973   0.00000  Uiso   1.00
C22    C     0.28800   0.14437   0.33025   0.00000  Uiso   1.00
C23    C     0.16676   0.16665   0.16497   0.00000  Uiso   1.00
C24    C     0.04536   0.20110   0.17373   0.00000  Uiso   1.00
C25    C     0.16684   0.16668   0.33503   0.00000  Uiso   1.00
C26    C     0.14125   0.02476   0.22222   0.00000  Uiso   1.00
C27    C     0.19208   0.30858   0.27778   0.00000  Uiso   1.00
C28    C     0.19208   0.02484   0.27779   0.00000  Uiso   1.00
C29    C     0.14124   0.30849   0.22222   0.00000  Uiso   1.00
C30    C     0.02176   0.15107   0.28803   0.00000  Uiso   1.00
Cu31   Cu    0.16667   0.21355   0.25000   0.00000  Uiso   1.00
Cu32   Cu    0.16667   0.11978   0.25000   0.00000  Uiso   1.00
H33    H     0.12088   0.04340   0.19995   0.00000  Uiso   1.00
H34    H     0.19008   0.09568   0.38901   0.00000  Uiso   1.00
H35    H     0.14435   0.23777   0.38924   0.00000  Uiso   1.00
H36    H     0.14438   0.09547   0.11062   0.00000  Uiso   1.00
H37    H     0.07561   0.14715   0.33480   0.00000  Uiso   1.00
H38    H     0.25745   0.20537   0.17095   0.00000  Uiso   1.00
H39    H     0.25786   0.12780   0.32900   0.00000  Uiso   1.00
H40    H     0.07521   0.18637   0.16526   0.00000  Uiso   1.00
H41    H     0.21246   0.28993   0.30005   0.00000  Uiso   1.00
H42    H     0.21245   0.04356   0.30006   0.00000  Uiso   1.00
H43    H     0.12086   0.28978   0.19997   0.00000  Uiso   1.00
H44    H     0.19092   0.23746   0.03061   0.00000  Uiso   1.00
H45    H     0.19113   0.09593   0.46954   0.00000  Uiso   1.00
H46    H     0.14390   0.23745   0.46975   0.00000  Uiso   1.00
H47    H     0.14403   0.09574   0.03010   0.00000  Uiso   1.00
H48    H     0.18977   0.23775   0.11111   0.00000  Uiso   1.00
N49    N     0.16667   0.28402   0.25000   0.00000  Uiso   1.00
N50    N     0.16667   0.04931   0.25000   0.00000  Uiso   1.00
O51    O     0.10655   0.20625   0.24999   0.00000  Uiso   1.00
O52    O     0.30071   0.17616   0.13388   0.00000  Uiso   1.00
O53    O     0.30118   0.15729   0.36610   0.00000  Uiso   1.00
O54    O     0.03264   0.23449   0.15253   0.00000  Uiso   1.00
O55    O     0.22679   0.12709   0.25000   0.00000  Uiso   1.00
O56    O     0.22679   0.20625   0.25000   0.00000  Uiso   1.00
O57    O     0.10655   0.12709   0.24999   0.00000  Uiso   1.00
O58    O     0.16666   0.20626   0.18573   0.00000  Uiso   1.00
O59    O     0.16667   0.12707   0.31427   0.00000  Uiso   1.00
O60    O     0.16667   0.20626   0.31427   0.00000  Uiso   1.00
O61    O     0.16666   0.12707   0.18573   0.00000  Uiso   1.00
O62    O     0.03305   0.09910   0.34767   0.00000  Uiso   1.00
C63    C     0.42087   0.16666   0.25000   0.00000  Uiso   1.00
C64    C     0.64481   0.18000   0.21120   0.00000  Uiso   1.00
C65    C     0.64499   0.15337   0.28880   0.00000  Uiso   1.00
C66    C     0.35492   0.18230   0.21200   0.00000  Uiso   1.00
C67    C     0.51352   0.20652   0.04775   0.00000  Uiso   1.00
C68    C     0.51367   0.12683   0.45233   0.00000  Uiso   1.00
C69    C     0.48792   0.20657   0.45245   0.00000  Uiso   1.00
C70    C     0.48795   0.12667   0.04746   0.00000  Uiso   1.00
C71    C     0.51303   0.20662   0.09367   0.00000  Uiso   1.00
C72    C     0.51324   0.12675   0.40640   0.00000  Uiso   1.00
C73    C     0.48797   0.20668   0.40653   0.00000  Uiso   1.00
C74    C     0.57911   0.16668   0.25000   0.00000  Uiso   1.00
C75    C     0.48795   0.12659   0.09340   0.00000  Uiso   1.00
C76    C     0.50034   0.16662   0.11673   0.00000  Uiso   1.00
C77    C     0.50046   0.16670   0.38326   0.00000  Uiso   1.00
C78    C     0.50082   0.16660   0.02428   0.00000  Uiso   1.00
C79    C     0.50085   0.16668   0.47572   0.00000  Uiso   1.00
C80    C     0.62377   0.16669   0.25000   0.00000  Uiso   1.00
C81    C     0.37616   0.16666   0.25001   0.00000  Uiso   1.00
C82    C     0.37904   0.13239   0.32636   0.00000  Uiso   1.00
C83    C     0.62097   0.18896   0.16973   0.00000  Uiso   1.00
C84    C     0.62133   0.14437   0.33025   0.00000  Uiso   1.00
C85    C     0.50009   0.16665   0.16497   0.00000  Uiso   1.00
C86    C     0.37869   0.20110   0.17373   0.00000  Uiso   1.00
C87    C     0.50017   0.16668   0.33503   0.00000  Uiso   1.00
C88    C     0.47458   0.02476   0.22222   0.00000  Uiso   1.00
C89    C     0.52542   0.30858   0.27778   0.00000  Uiso   1.00
C90    C     0.52542   0.02484   0.27779   0.00000  Uiso   1.00
C91    C     0.47457   0.30849   0.22222   0.00000  Uiso   1.00
C92    C     0.35509   0.15107   0.28803   0.00000  Uiso   1.00
Cu93   Cu    0.50000   0.21355   0.25000   0.00000  Uiso   1.00
Cu94   Cu    0.50000   0.11978   0.25000   0.00000  Uiso   1.00
H95    H     0.45421   0.04340   0.19995   0.00000  Uiso   1.00
H96    H     0.52341   0.09568   0.38901   0.00000  Uiso   1.00
H97    H     0.47769   0.23777   0.38924   0.00000  Uiso   1.00
H98    H     0.47771   0.09547   0.11062   0.00000  Uiso   1.00
H99    H     0.40895   0.14715   0.33480   0.00000  Uiso   1.00
H100   H     0.59079   0.20537   0.17095   0.00000  Uiso   1.00
H101   H     0.59119   0.12780   0.32900   0.00000  Uiso   1.00
H102   H     0.40854   0.18637   0.16526   0.00000  Uiso   1.00
H103   H     0.54579   0.28993   0.30005   0.00000  Uiso   1.00
H104   H     0.54578   0.04356   0.30006   0.00000  Uiso   1.00
H105   H     0.45419   0.28978   0.19997   0.00000  Uiso   1.00
H106   H     0.52425   0.23746   0.03061   0.00000  Uiso   1.00
H107   H     0.52446   0.09593   0.46954   0.00000  Uiso   1.00
H108   H     0.47723   0.23745   0.46975   0.00000  Uiso   1.00
H109   H     0.47736   0.09574   0.03010   0.00000  Uiso   1.00
H110   H     0.52310   0.23775   0.11111   0.00000  Uiso   1.00
N111   N     0.50000   0.28402   0.25000   0.00000  Uiso   1.00
N112   N     0.50000   0.04931   0.25000   0.00000  Uiso   1.00
O113   O     0.43988   0.20625   0.24999   0.00000  Uiso   1.00
O114   O     0.63404   0.17616   0.13388   0.00000  Uiso   1.00
O115   O     0.63451   0.15729   0.36610   0.00000  Uiso   1.00
O116   O     0.36597   0.23449   0.15253   0.00000  Uiso   1.00
O117   O     0.56012   0.12709   0.25000   0.00000  Uiso   1.00
O118   O     0.56012   0.20625   0.25000   0.00000  Uiso   1.00
O119   O     0.43988   0.12709   0.24999   0.00000  Uiso   1.00
O120   O     0.50000   0.20626   0.18573   0.00000  Uiso   1.00
O121   O     0.50000   0.12707   0.31427   0.00000  Uiso   1.00
O122   O     0.50000   0.20626   0.31427   0.00000  Uiso   1.00
O123   O     0.50000   0.12707   0.18573   0.00000  Uiso   1.00
O124   O     0.36639   0.09910   0.34767   0.00000  Uiso   1.00
C125   C     0.75420   0.16666   0.25000   0.00000  Uiso   1.00
C126   C     0.97815   0.18000   0.21120   0.00000  Uiso   1.00
C127   C     0.97833   0.15337   0.28880   0.00000  Uiso   1.00
C128   C     0.68825   0.18230   0.21200   0.00000  Uiso   1.00
C129   C     0.84685   0.20652   0.04775   0.00000  Uiso   1.00
C130   C     0.84701   0.12683   0.45233   0.00000  Uiso   1.00
C131   C     0.82125   0.20657   0.45245   0.00000  Uiso   1.00
C132   C     0.82128   0.12667   0.04746   0.00000  Uiso   1.00
C133   C     0.84636   0.20662   0.09367   0.00000  Uiso   1.00
C134   C     0.84657   0.12675   0.40640   0.00000  Uiso   1.00
C135   C     0.82131   0.20668   0.40653   0.00000  Uiso   1.00
C136   C     0.91244   0.16668   0.25000   0.00000  Uiso   1.00
C137   C     0.82128   0.12659   0.09340   0.00000  Uiso   1.00
C138   C     0.83367   0.16662   0.11673   0.00000  Uiso   1.00
C139   C     0.83379   0.16670   0.38326   0.00000  Uiso   1.00
C140   C     0.83416   0.16660   0.02428   0.00000  Uiso   1.00
C141   C     0.83419   0.16668   0.47572   0.00000  Uiso   1.00
C142   C     0.95710   0.16669   0.25000   0.00000  Uiso   1.00
C143   C     0.70949   0.16666   0.25001   0.00000  Uiso   1.00
C144   C     0.71237   0.13239   0.32636   0.00000  Uiso   1.00
C145   C     0.95430   0.18896   0.16973   0.00000  Uiso   1.00
C146   C     0.95466   0.14437   0.33025   0.00000  Uiso   1.00
C147   C     0.83343   0.16665   0.16497   0.00000  Uiso   1.00
C148   C     0.71203   0.20110   0.17373   0.00000  Uiso   1.00
C149   C     0.83351   0.16668   0.33503   0.00000  Uiso   1.00
C150   C     0.80791   0.02476   0.22222   0.00000  Uiso   1.00
C151   C     0.85875   0.30858   0.27778   0.00000  Uiso   1.00
C152   C     0.85875   0.02484   0.27779   0.00000  Uiso   1.00
C153   C     0.80791   0.30849   0.22222   0.00000  Uiso   1.00
C154   C     0.68843   0.15107   0.28803   0.00000  Uiso   1.00
Cu155  Cu    0.83333   0.21355   0.25000   0.00000  Uiso   1.00
Cu156  Cu    0.83333   0.11978   0.25000   0.00000  Uiso   1.00
H157   H     0.78754   0.04340   0.19995   0.00000  Uiso   1.00
H158   H     0.85674   0.09568   0.38901   0.00000  Uiso   1.00
H159   H     0.81102   0.23777   0.38924   0.00000  Uiso   1.00
H160   H     0.81105   0.09547   0.11062   0.00000  Uiso   1.00
H161   H     0.74228   0.14715   0.33480   0.00000  Uiso   1.00
H162   H     0.92412   0.20537   0.17095   0.00000  Uiso   1.00
H163   H     0.92453   0.12780   0.32900   0.00000  Uiso   1.00
H164   H     0.74188   0.18637   0.16526   0.00000  Uiso   1.00
H165   H     0.87912   0.28993   0.30005   0.00000  Uiso   1.00
H166   H     0.87912   0.04356   0.30006   0.00000  Uiso   1.00
H167   H     0.78752   0.28978   0.19997   0.00000  Uiso   1.00
H168   H     0.85758   0.23746   0.03061   0.00000  Uiso   1.00
H169   H     0.85780   0.09593   0.46954   0.00000  Uiso   1.00
H170   H     0.81057   0.23745   0.46975   0.00000  Uiso   1.00
H171   H     0.81069   0.09574   0.03010   0.00000  Uiso   1.00
H172   H     0.85643   0.23775   0.11111   0.00000  Uiso   1.00
N173   N     0.83333   0.28402   0.25000   0.00000  Uiso   1.00
N174   N     0.83333   0.04931   0.25000   0.00000  Uiso   1.00
O175   O     0.77321   0.20625   0.24999   0.00000  Uiso   1.00
O176   O     0.96737   0.17616   0.13388   0.00000  Uiso   1.00
O177   O     0.96784   0.15729   0.36610   0.00000  Uiso   1.00
O178   O     0.69930   0.23449   0.15253   0.00000  Uiso   1.00
O179   O     0.89345   0.12709   0.25000   0.00000  Uiso   1.00
O180   O     0.89345   0.20625   0.25000   0.00000  Uiso   1.00
O181   O     0.77321   0.12709   0.24999   0.00000  Uiso   1.00
O182   O     0.83333   0.20626   0.18573   0.00000  Uiso   1.00
O183   O     0.83334   0.12707   0.31427   0.00000  Uiso   1.00
O184   O     0.83334   0.20626   0.31427   0.00000  Uiso   1.00
O185   O     0.83333   0.12707   0.18573   0.00000  Uiso   1.00
O186   O     0.69972   0.09910   0.34767   0.00000  Uiso   1.00
C187   C     0.08754   0.49999   0.25000   0.00000  Uiso   1.00
C188   C     0.31148   0.51334   0.21120   0.00000  Uiso   1.00
C189   C     0.31166   0.48670   0.28880   0.00000  Uiso   1.00
C190   C     0.02159   0.51563   0.21200   0.00000  Uiso   1.00
C191   C     0.18018   0.53985   0.04775   0.00000  Uiso   1.00
C192   C     0.18034   0.46016   0.45233   0.00000  Uiso   1.00
C193   C     0.15458   0.53990   0.45245   0.00000  Uiso   1.00
C194   C     0.15461   0.46001   0.04746   0.00000  Uiso   1.00
C195   C     0.17970   0.53996   0.09367   0.00000  Uiso   1.00
C196   C     0.17991   0.46008   0.40640   0.00000  Uiso   1.00
C197   C     0.15464   0.54001   0.40653   0.00000  Uiso   1.00
C198   C     0.24578   0.50001   0.25000   0.00000  Uiso   1.00
C199   C     0.15461   0.45992   0.09340   0.00000  Uiso   1.00
C200   C     0.16700   0.49996   0.11673   0.00000  Uiso   1.00
C201   C     0.16713   0.50004   0.38326   0.00000  Uiso   1.00
C202   C     0.16749   0.49994   0.02428   0.00000  Uiso   1.00
C203   C     0.16752   0.50001   0.47572   0.00000  Uiso   1.00
C204   C     0.29044   0.50002   0.25000   0.00000  Uiso   1.00
C205   C     0.04282   0.49999   0.25001   0.00000  Uiso   1.00
C206   C     0.04571   0.46573   0.32636   0.00000  Uiso   1.00
C207   C     0.28763   0.52229   0.16973   0.00000  Uiso   1.00
C208   C     0.28800   0.47770   0.33025   0.00000  Uiso   1.00
C209   C     0.16676   0.49998   0.16497   0.00000  Uiso   1.00
C210   C     0.04536   0.53444   0.17373   0.00000  Uiso   1.00
C211   C     0.16684   0.50002   0.33503   0.00000  Uiso   1.00
C212   C     0.14125   0.35809   0.22222   0.00000  Uiso   1.00
C213   C     0.19208   0.64191   0.27778   0.00000  Uiso   1.00
C214   C     0.19208   0.35818   0.27779   0.00000  Uiso   1.00
C215   C     0.14124   0.64183   0.22222   0.00000  Uiso   1.00
C216   C     0.02176   0.48440   0.28803   0.00000  Uiso   1.00
Cu217  Cu    0.16667   0.54689   0.25000   0.00000  Uiso   1.00
Cu218  Cu    0.16667   0.45311   0.25000   0.00000  Uiso   1.00
H219   H     0.12088   0.37674   0.19995   0.00000  Uiso   1.00
H220   H     0.19008   0.42901   0.38901   0.00000  Uiso   1.00
H221   H     0.14435   0.57110   0.38924   0.00000  Uiso   1.00
H222   H     0.14438   0.42880   0.11062   0.00000  Uiso   1.00
H223   H     0.07561   0.48049   0.33480   0.00000  Uiso   1.00
H224   H     0.25745   0.53871   0.17095   0.00000  Uiso   1.00
H225   H     0.25786   0.46114   0.32900   0.00000  Uiso   1.00
H226   H     0.07521   0.51970   0.16526   0.00000  Uiso   1.00
H227   H     0.21246   0.62327   0.30005   0.00000  Uiso   1.00
H228   H     0.21245   0.37689   0.30006   0.00000  Uiso   1.00
H229   H     0.12086   0.62311   0.19997   0.00000  Uiso   1.00
H230   H     0.19092   0.57079   0.03061   0.00000  Uiso   1.00
H231   H     0.19113   0.42926   0.46954   0.00000  Uiso   1.00
H232   H     0.14390   0.57079   0.46975   0.00000  Uiso   1.00
H233   H     0.14403   0.42907   0.03010   0.00000  Uiso   1.00
H234   H     0.18977   0.57108   0.11111   0.00000  Uiso   1.00
N235   N     0.16667   0.61736   0.25000   0.00000  Uiso   1.00
N236   N     0.16667   0.38264   0.25000   0.00000  Uiso   1.00
O237   O     0.10655   0.53958   0.24999   0.00000  Uiso   1.00
O238   O     0.30071   0.50950   0.13388   0.00000  Uiso   1.00
O239   O     0.30118   0.49062   0.36610   0.00000  Uiso   1.00
O240   O     0.03264   0.56782   0.15253   0.00000  Uiso   1.00
O241   O     0.22679   0.46042   0.25000   0.00000  Uiso   1.00
O242   O     0.22679   0.53958   0.25000   0.00000  Uiso   1.00
O243   O     0.10655   0.46042   0.24999   0.00000  Uiso   1.00
O244   O     0.16666   0.53959   0.18573   0.00000  Uiso   1.00
O245   O     0.16667   0.46041   0.31427   0.00000  Uiso   1.00
O246   O     0.16667   0.53959   0.31427   0.00000  Uiso   1.00
O247   O     0.16666   0.46041   0.18573   0.00000  Uiso   1.00
O248   O     0.03305   0.43243   0.34767   0.00000  Uiso   1.00
C249   C     0.42087   0.49999   0.25000   0.00000  Uiso   1.00
C250   C     0.64481   0.51334   0.21120   0.00000  Uiso   1.00
C251   C     0.64499   0.48670   0.28880   0.00000  Uiso   1.00
C252   C     0.35492   0.51563   0.21200   0.00000  Uiso   1.00
C253   C     0.51352   0.53985   0.04775   0.00000  Uiso   1.00
C254   C     0.51367   0.46016   0.45233   0.00000  Uiso   1.00
C255   C     0.48792   0.53990   0.45245   0.00000  Uiso   1.00
C256   C     0.48795   0.46001   0.04746   0.00000  Uiso   1.00
C257   C     0.51303   0.53996   0.09367   0.00000  Uiso   1.00
C258   C     0.51324   0.46008   0.40640   0.00000  Uiso   1.00
C259   C     0.48797   0.54001   0.40653   0.00000  Uiso   1.00
C260   C     0.57911   0.50001   0.25000   0.00000  Uiso   1.00
C261   C     0.48795   0.45992   0.09340   0.00000  Uiso   1.00
C262   C     0.50034   0.49996   0.11673   0.00000  Uiso   1.00
C263   C     0.50046   0.50004   0.38326   0.00000  Uiso   1.00
C264   C     0.50082   0.49994   0.02428   0.00000  Uiso   1.00
C265   C     0.50085   0.50001   0.47572   0.00000  Uiso   1.00
C266   C     0.62377   0.50002   0.25000   0.00000  Uiso   1.00
C267   C     0.37616   0.49999   0.25001   0.00000  Uiso   1.00
C268   C     0.37904   0.46573   0.32636   0.00000  Uiso   1.00
C269   C     0.62097   0.52229   0.16973   0.00000  Uiso   1.00
C270   C     0.62133   0.47770   0.33025   0.00000  Uiso   1.00
C271   C     0.50009   0.49998   0.16497   0.00000  Uiso   1.00
C272   C     0.37869   0.53444   0.17373   0.00000  Uiso   1.00
C273   C     0.50017   0.50002   0.33503   0.00000  Uiso   1.00
C274   C     0.47458   0.35809   0.22222   0.00000  Uiso   1.00
C275   C     0.52542   0.64191   0.27778   0.00000  Uiso   1.00
C276   C     0.52542   0.35818   0.27779   0.00000  Uiso   1.00
C277   C     0.47457   0.64183   0.22222   0.00000  Uiso   1.00
C278   C     0.35509   0.48440   0.28803   0.00000  Uiso   1.00
Cu279  Cu    0.50000   0.54689   0.25000   0.00000  Uiso   1.00
Cu280  Cu    0.50000   0.45311   0.25000   0.00000  Uiso   1.00
H281   H     0.45421   0.37674   0.19995   0.00000  Uiso   1.00
H282   H     0.52341   0.42901   0.38901   0.00000  Uiso   1.00
H283   H     0.47769   0.57110   0.38924   0.00000  Uiso   1.00
H284   H     0.47771   0.42880   0.11062   0.00000  Uiso   1.00
H285   H     0.40895   0.48049   0.33480   0.00000  Uiso   1.00
H286   H     0.59079   0.53871   0.17095   0.00000  Uiso   1.00
H287   H     0.59119   0.46114   0.32900   0.00000  Uiso   1.00
H288   H     0.40854   0.51970   0.16526   0.00000  Uiso   1.00
H289   H     0.54579   0.62327   0.30005   0.00000  Uiso   1.00
H290   H     0.54578   0.37689   0.30006   0.00000  Uiso   1.00
H291   H     0.45419   0.62311   0.19997   0.00000  Uiso   1.00
H292   H     0.52425   0.57079   0.03061   0.00000  Uiso   1.00
H293   H     0.52446   0.42926   0.46954   0.00000  Uiso   1.00
H294   H     0.47723   0.57079   0.46975   0.00000  Uiso   1.00
H295   H     0.47736   0.42907   0.03010   0.00000  Uiso   1.00
H296   H     0.52310   0.57108   0.11111   0.00000  Uiso   1.00
N297   N     0.50000   0.61736   0.25000   0.00000  Uiso   1.00
N298   N     0.50000   0.38264   0.25000   0.00000  Uiso   1.00
O299   O     0.43988   0.53958   0.24999   0.00000  Uiso   1.00
O300   O     0.63404   0.50950   0.13388   0.00000  Uiso   1.00
O301   O     0.63451   0.49062   0.36610   0.00000  Uiso   1.00
O302   O     0.36597   0.56782   0.15253   0.00000  Uiso   1.00
O303   O     0.56012   0.46042   0.25000   0.00000  Uiso   1.00
O304   O     0.56012   0.53958   0.25000   0.00000  Uiso   1.00
O305   O     0.43988   0.46042   0.24999   0.00000  Uiso   1.00
O306   O     0.50000   0.53959   0.18573   0.00000  Uiso   1.00
O307   O     0.50000   0.46041   0.31427   0.00000  Uiso   1.00
O308   O     0.50000   0.53959   0.31427   0.00000  Uiso   1.00
O309   O     0.50000   0.46041   0.18573   0.00000  Uiso   1.00
O310   O     0.36639   0.43243   0.34767   0.00000  Uiso   1.00
C311   C     0.75420   0.49999   0.25000   0.00000  Uiso   1.00
C312   C     0.97815   0.51334   0.21120   0.00000  Uiso   1.00
C313   C     0.97833   0.48670   0.28880   0.00000  Uiso   1.00
C314   C     0.68825   0.51563   0.21200   0.00000  Uiso   1.00
C315   C     0.84685   0.53985   0.04775   0.00000  Uiso   1.00
C316   C     0.84701   0.46016   0.45233   0.00000  Uiso   1.00
C317   C     0.82125   0.53990   0.45245   0.00000  Uiso   1.00
C318   C     0.82128   0.46001   0.04746   0.00000  Uiso   1.00
C319   C     0.84636   0.53996   0.09367   0.00000  Uiso   1.00
C320   C     0.84657   0.46008   0.40640   0.00000  Uiso   1.00
C321   C     0.82131   0.54001   0.40653   0.00000  Uiso   1.00
C322   C     0.91244   0.50001   0.25000   0.00000  Uiso   1.00
C323   C     0.82128   0.45992   0.09340   0.00000  Uiso   1.00
C324   C     0.83367   0.49996   0.11673   0.00000  Uiso   1.00
C325   C     0.83379   0.50004   0.38326   0.00000  Uiso   1.00
C326   C     0.83416   0.49994   0.02428   0.00000  Uiso   1.00
C327   C     0.83419   0.50001   0.47572   0.00000  Uiso   1.00
C328   C     0.95710   0.50002   0.25000   0.00000  Uiso   1.00
C329   C     0.70949   0.49999   0.25001   0.00000  Uiso   1.00
C330   C     0.71237   0.46573   0.32636   0.00000  Uiso   1.00
C331   C     0.95430   0.52229   0.16973   0.00000  Uiso   1.00
C332   C     0.95466   0.47770   0.33025   0.00000  Uiso   1.00
C333   C     0.83343   0.49998   0.16497   0.00000  Uiso   1.00
C334   C     0.71203   0.53444   0.17373   0.00000  Uiso   1.00
C335   C     0.83351   0.50002   0.33503   0.00000  Uiso   1.00
C336   C     0.80791   0.35809   0.22222   0.00000  Uiso   1.00
C337   C     0.85875   0.64191   0.27778   0.00000  Uiso   1.00
C338   C     0.85875   0.35818   0.27779   0.00000  Uiso   1.00
C339   C     0.80791   0.64183   0.22222   0.00000  Uiso   1.00
C340   C     0.68843   0.48440   0.28803   0.00000  Uiso   1.00
Cu341  Cu    0.83333   0.54689   0.25000   0.00000  Uiso   1.00
Cu342  Cu    0.83333   0.45311   0.25000   0.00000  Uiso   1.00
H343   H     0.78754   0.37674   0.19995   0.00000  Uiso   1.00
H344   H     0.85674   0.42901   0.38901   0.00000  Uiso   1.00
H345   H     0.81102   0.57110   0.38924   0.00000  Uiso   1.00
H346   H     0.81105   0.42880   0.11062   0.00000  Uiso   1.00
H347   H     0.74228   0.48049   0.33480   0.00000  Uiso   1.00
H348   H     0.92412   0.53871   0.17095   0.00000  Uiso   1.00
H349   H     0.92453   0.46114   0.32900   0.00000  Uiso   1.00
H350   H     0.74188   0.51970   0.16526   0.00000  Uiso   1.00
H351   H     0.87912   0.62327   0.30005   0.00000  Uiso   1.00
H352   H     0.87912   0.37689   0.30006   0.00000  Uiso   1.00
H353   H     0.78752   0.62311   0.19997   0.00000  Uiso   1.00
H354   H     0.85758   0.57079   0.03061   0.00000  Uiso   1.00
H355   H     0.85780   0.42926   0.46954   0.00000  Uiso   1.00
H356   H     0.81057   0.57079   0.46975   0.00000  Uiso   1.00
H357   H     0.81069   0.42907   0.03010   0.00000  Uiso   1.00
H358   H     0.85643   0.57108   0.11111   0.00000  Uiso   1.00
N359   N     0.83333   0.61736   0.25000   0.00000  Uiso   1.00
N360   N     0.83333   0.38264   0.25000   0.00000  Uiso   1.00
O361   O     0.77321   0.53958   0.24999   0.00000  Uiso   1.00
O362   O     0.96737   0.50950   0.13388   0.00000  Uiso   1.00
O363   O     0.96784   0.49062   0.36610   0.00000  Uiso   1.00
O364   O     0.69930   0.56782   0.15253   0.00000  Uiso   1.00
O365   O     0.89345   0.46042   0.25000   0.00000  Uiso   1.00
O366   O     0.89345   0.53958   0.25000   0.00000  Uiso   1.00
O367   O     0.77321   0.46042   0.24999   0.00000  Uiso   1.00
O368   O     0.83333   0.53959   0.18573   0.00000  Uiso   1.00
O369   O     0.83334   0.46041   0.31427   0.00000  Uiso   1.00
O370   O     0.83334   0.53959   0.31427   0.00000  Uiso   1.00
O371   O     0.83333   0.46041   0.18573   0.00000  Uiso   1.00
O372   O     0.69972   0.43243   0.34767   0.00000  Uiso   1.00
C373   C     0.08754   0.83333   0.25000   0.00000  Uiso   1.00
C374   C     0.31148   0.84667   0.21120   0.00000  Uiso   1.00
C375   C     0.31166   0.82003   0.28880   0.00000  Uiso   1.00
C376   C     0.02159   0.84897   0.21200   0.00000  Uiso   1.00
C377   C     0.18018   0.87319   0.04775   0.00000  Uiso   1.00
C378   C     0.18034   0.79350   0.45233   0.00000  Uiso   1.00
C379   C     0.15458   0.87324   0.45245   0.00000  Uiso   1.00
C380   C     0.15461   0.79334   0.04746   0.00000  Uiso   1.00
C381   C     0.17970   0.87329   0.09367   0.00000  Uiso   1.00
C382   C     0.17991   0.79342   0.40640   0.00000  Uiso   1.00
C383   C     0.15464   0.87335   0.40653   0.00000  Uiso   1.00
C384   C     0.24578   0.83334   0.25000   0.00000  Uiso   1.00
C385   C     0.15461   0.79326   0.09340   0.00000  Uiso   1.00
C386   C     0.16700   0.83329   0.11673   0.00000  Uiso   1.00
C387   C     0.16713   0.83337   0.38326   0.00000  Uiso   1.00
C388   C     0.16749   0.83327   0.02428   0.00000  Uiso   1.00
C389   C     0.16752   0.83335   0.47572   0.00000  Uiso   1.00
C390   C     0.29044   0.83336   0.25000   0.00000  Uiso   1.00
C391   C     0.04282   0.83332   0.25001   0.00000  Uiso   1.00
C392   C     0.04571   0.79906   0.32636   0.00000  Uiso   1.00
C393   C     0.28763   0.85562   0.16973   0.00000  Uiso   1.00
C394   C     0.28800   0.81104   0.33025   0.00000  Uiso   1.00
C395   C     0.16676   0.83332   0.16497   0.00000  Uiso   1.00
C396   C     0.04536   0.86777   0.17373   0.00000  Uiso   1.00
C397   C     0.16684   0.83335   0.33503   0.00000  Uiso   1.00
C398   C     0.14125   0.69142   0.22222   0.00000  Uiso   1.00
C399   C     0.19208   0.97524   0.27778   0.00000  Uiso   1.00
C400   C     0.19208   0.69151   0.27779   0.00000  Uiso   1.00
C401   C     0.14124   0.97516   0.22222   0.00000  Uiso   1.00
C402   C     0.02176   0.81774   0.28803   0.00000  Uiso   1.00
Cu403  Cu    0.16667   0.88022   0.25000   0.00000  Uiso   1.00
Cu404  Cu    0.16667   0.78645   0.25000   0.00000  Uiso   1.00
H405   H     0.12088   0.71007   0.19995   0.00000  Uiso   1.00
H406   H     0.19008   0.76235   0.38901   0.00000  Uiso   1.00
H407   H     0.14435   0.90443   0.38924   0.00000  Uiso   1.00
H408   H     0.14438   0.76214   0.11062   0.00000  Uiso   1.00
H409   H     0.07561   0.81382   0.33480   0.00000  Uiso   1.00
H410   H     0.25745   0.87204   0.17095   0.00000  Uiso   1.00
H411   H     0.25786   0.79447   0.32900   0.00000  Uiso   1.00
H412   H     0.07521   0.85304   0.16526   0.00000  Uiso   1.00
H413   H     0.21246   0.95660   0.30005   0.00000  Uiso   1.00
H414   H     0.21245   0.71023   0.30006   0.00000  Uiso   1.00
H415   H     0.12086   0.95644   0.19997   0.00000  Uiso   1.00
H416   H     0.19092   0.90413   0.03061   0.00000  Uiso   1.00
H417   H     0.19113   0.76259   0.46954   0.00000  Uiso   1.00
H418   H     0.14390   0.90412   0.46975   0.00000  Uiso   1.00
H419   H     0.14403   0.76241   0.03010   0.00000  Uiso   1.00
H420   H     0.18977   0.90441   0.11111   0.00000  Uiso   1.00
N421   N     0.16667   0.95069   0.25000   0.00000  Uiso   1.00
N422   N     0.16667   0.71598   0.25000   0.00000  Uiso   1.00
O423   O     0.10655   0.87291   0.24999   0.00000  Uiso   1.00
O424   O     0.30071   0.84283   0.13388   0.00000  Uiso   1.00
O425   O     0.30118   0.82396   0.36610   0.00000  Uiso   1.00
O426   O     0.03264   0.90116   0.15253   0.00000  Uiso   1.00
O427   O     0.22679   0.79375   0.25000   0.00000  Uiso   1.00
O428   O     0.22679   0.87291   0.25000   0.00000  Uiso   1.00
O429   O     0.10655   0.79375   0.24999   0.00000  Uiso   1.00
O430   O     0.16666   0.87293   0.18573   0.00000  Uiso   1.00
O431   O     0.16667   0.79374   0.31427   0.00000  Uiso   1.00
O432   O     0.16667   0.87293   0.31427   0.00000  Uiso   1.00
O433   O     0.16666   0.79374   0.18573   0.00000  Uiso   1.00
O434   O     0.03305   0.76577   0.34767   0.00000  Uiso   1.00
C435   C     0.42087   0.83333   0.25000   0.00000  Uiso   1.00
C436   C     0.64481   0.84667   0.21120   0.00000  Uiso   1.00
C437   C     0.64499   0.82003   0.28880   0.00000  Uiso   1.00
C438   C     0.35492   0.84897   0.21200   0.00000  Uiso   1.00
C439   C     0.51352   0.87319   0.04775   0.00000  Uiso   1.00
C440   C     0.51367   0.79350   0.45233   0.00000  Uiso   1.00
C441   C     0.48792   0.87324   0.45245   0.00000  Uiso   1.00
C442   C     0.48795   0.79334   0.04746   0.00000  Uiso   1.00
C443   C     0.51303   0.87329   0.09367   0.00000  Uiso   1.00
C444   C     0.51324   0.79342   0.40640   0.00000  Uiso   1.00
C445   C     0.48797   0.87335   0.40653   0.00000  Uiso   1.00
C446   C     0.57911   0.83334   0.25000   0.00000  Uiso   1.00
C447   C     0.48795   0.79326   0.09340   0.00000  Uiso   1.00
C448   C     0.50034   0.83329   0.11673   0.00000  Uiso   1.00
C449   C     0.50046   0.83337   0.38326   0.00000  Uiso   1.00
C450   C     0.50082   0.83327   0.02428   0.00000  Uiso   1.00
C451   C     0.50085   0.83335   0.47572   0.00000  Uiso   1.00
C452   C     0.62377   0.83336   0.25000   0.00000  Uiso   1.00
C453   C     0.37616   0.83332   0.25001   0.00000  Uiso   1.00
C454   C     0.37904   0.79906   0.32636   0.00000  Uiso   1.00
C455   C     0.62097   0.85562   0.16973   0.00000  Uiso   1.00
C456   C     0.62133   0.81104   0.33025   0.00000  Uiso   1.00
C457   C     0.50009   0.83332   0.16497   0.00000  Uiso   1.00
C458   C     0.37869   0.86777   0.17373   0.00000  Uiso   1.00
C459   C     0.50017   0.83335   0.33503   0.00000  Uiso   1.00
C460   C     0.47458   0.69142   0.22222   0.00000  Uiso   1.00
C461   C     0.52542   0.97524   0.27778   0.00000  Uiso   1.00
C462   C     0.52542   0.69151   0.27779   0.00000  Uiso   1.00
C463   C     0.47457   0.97516   0.22222   0.00000  Uiso   1.00
C464   C     0.35509   0.81774   0.28803   0.00000  Uiso   1.00
Cu465  Cu    0.50000   0.88022   0.25000   0.00000  Uiso   1.00
Cu466  Cu    0.50000   0.78645   0.25000   0.00000  Uiso   1.00
H467   H     0.45421   0.71007   0.19995   0.00000  Uiso   1.00
H468   H     0.52341   0.76235   0.38901   0.00000  Uiso   1.00
H469   H     0.47769   0.90443   0.38924   0.00000  Uiso   1.00
H470   H     0.47771   0.76214   0.11062   0.00000  Uiso   1.00
H471   H     0.40895   0.81382   0.33480   0.00000  Uiso   1.00
H472   H     0.59079   0.87204   0.17095   0.00000  Uiso   1.00
H473   H     0.59119   0.79447   0.32900   0.00000  Uiso   1.00
H474   H     0.40854   0.85304   0.16526   0.00000  Uiso   1.00
H475   H     0.54579   0.95660   0.30005   0.00000  Uiso   1.00
H476   H     0.54578   0.71023   0.30006   0.00000  Uiso   1.00
H477   H     0.45419   0.95644   0.19997   0.00000  Uiso   1.00
H478   H     0.52425   0.90413   0.03061   0.00000  Uiso   1.00
H479   H     0.52446   0.76259   0.46954   0.00000  Uiso   1.00
H480   H     0.47723   0.90412   0.46975   0.00000  Uiso   1.00
H481   H     0.47736   0.76241   0.03010   0.00000  Uiso   1.00
H482   H     0.52310   0.90441   0.11111   0.00000  Uiso   1.00
N483   N     0.50000   0.95069   0.25000   0.00000  Uiso   1.00
N484   N     0.50000   0.71598   0.25000   0.00000  Uiso   1.00
O485   O     0.43988   0.87291   0.24999   0.00000  Uiso   1.00
O486   O     0.63404   0.84283   0.13388   0.00000  Uiso   1.00
O487   O     0.63451   0.82396   0.36610   0.00000  Uiso   1.00
O488   O     0.36597   0.90116   0.15253   0.00000  Uiso   1.00
O489   O     0.56012   0.79375   0.25000   0.00000  Uiso   1.00
O490   O     0.56012   0.87291   0.25000   0.00000  Uiso   1.00
O491   O     0.43988   0.79375   0.24999   0.00000  Uiso   1.00
O492   O     0.50000   0.87293   0.18573   0.00000  Uiso   1.00
O493   O     0.50000   0.79374   0.31427   0.00000  Uiso   1.00
O494   O     0.50000   0.87293   0.31427   0.00000  Uiso   1.00
O495   O     0.50000   0.79374   0.18573   0.00000  Uiso   1.00
O496   O     0.36639   0.76577   0.34767   0.00000  Uiso   1.00
C497   C     0.75420   0.83333   0.25000   0.00000  Uiso   1.00
C498   C     0.97815   0.84667   0.21120   0.00000  Uiso   1.00
C499   C     0.97833   0.82003   0.28880   0.00000  Uiso   1.00
C500   C     0.68825   0.84897   0.21200   0.00000  Uiso   1.00
C501   C     0.84685   0.87319   0.04775   0.00000  Uiso   1.00
C502   C     0.84701   0.79350   0.45233   0.00000  Uiso   1.00
C503   C     0.82125   0.87324   0.45245   0.00000  Uiso   1.00
C504   C     0.82128   0.79334   0.04746   0.00000  Uiso   1.00
C505   C     0.84636   0.87329   0.09367   0.00000  Uiso   1.00
C506   C     0.84657   0.79342   0.40640   0.00000  Uiso   1.00
C507   C     0.82131   0.87335   0.40653   0.00000  Uiso   1.00
C508   C     0.91244   0.83334   0.25000   0.00000  Uiso   1.00
C509   C     0.82128   0.79326   0.09340   0.00000  Uiso   1.00
C510   C     0.83367   0.83329   0.11673   0.00000  Uiso   1.00
C511   C     0.83379   0.83337   0.38326   0.00000  Uiso   1.00
C512   C     0.83416   0.83327   0.02428   0.00000  Uiso   1.00
C513   C     0.83419   0.83335   0.47572   0.00000  Uiso   1.00
C514   C     0.95710   0.83336   0.25000   0.00000  Uiso   1.00
C515   C     0.70949   0.83332   0.25001   0.00000  Uiso   1.00
C516   C     0.71237   0.79906   0.32636   0.00000  Uiso   1.00
C517   C     0.95430   0.85562   0.16973   0.00000  Uiso   1.00
C518   C     0.95466   0.81104   0.33025   0.00000  Uiso   1.00
C519   C     0.83343   0.83332   0.16497   0.00000  Uiso   1.00
C520   C     0.71203   0.86777   0.17373   0.00000  Uiso   1.00
C521   C     0.83351   0.83335   0.33503   0.00000  Uiso   1.00
C522   C     0.80791   0.69142   0.22222   0.00000  Uiso   1.00
C523   C     0.85875   0.97524   0.27778   0.00000  Uiso   1.00
C524   C     0.85875   0.69151   0.27779   0.00000  Uiso   1.00
C525   C     0.80791   0.97516   0.22222   0.00000  Uiso   1.00
C526   C     0.68843   0.81774   0.28803   0.00000  Uiso   1.00
Cu527  Cu    0.83333   0.88022   0.25000   0.00000  Uiso   1.00
Cu528  Cu    0.83333   0.78645   0.25000   0.00000  Uiso   1.00
H529   H     0.78754   0.71007   0.19995   0.00000  Uiso   1.00
H530   H     0.85674   0.76235   0.38901   0.00000  Uiso   1.00
H531   H     0.81102   0.90443   0.38924   0.00000  Uiso   1.00
H532   H     0.81105   0.76214   0.11062   0.00000  Uiso   1.00
H533   H     0.74228   0.81382   0.33480   0.00000  Uiso   1.00
H534   H     0.92412   0.87204   0.17095   0.00000  Uiso   1.00
H535   H     0.92453   0.79447   0.32900   0.00000  Uiso   1.00
H536   H     0.74188   0.85304   0.16526   0.00000  Uiso   1.00
H537   H     0.87912   0.95660   0.30005   0.00000  Uiso   1.00
H538   H     0.87912   0.71023   0.30006   0.00000  Uiso   1.00
H539   H     0.78752   0.95644   0.19997   0.00000  Uiso   1.00
H540   H     0.85758   0.90413   0.03061   0.00000  Uiso   1.00
H541   H     0.85780   0.76259   0.46954   0.00000  Uiso   1.00
H542   H     0.81057   0.90412   0.46975   0.00000  Uiso   1.00
H543   H     0.81069   0.76241   0.03010   0.00000  Uiso   1.00
H544   H     0.85643   0.90441   0.11111   0.00000  Uiso   1.00
N545   N     0.83333   0.95069   0.25000   0.00000  Uiso   1.00
N546   N     0.83333   0.71598   0.25000   0.00000  Uiso   1.00
O547   O     0.77321   0.87291   0.24999   0.00000  Uiso   1.00
O548   O     0.96737   0.84283   0.13388   0.00000  Uiso   1.00
O549   O     0.96784   0.82396   0.36610   0.00000  Uiso   1.00
O550   O     0.69930   0.90116   0.15253   0.00000  Uiso   1.00
O551   O     0.89345   0.79375   0.25000   0.00000  Uiso   1.00
O552   O     0.89345   0.87291   0.25000   0.00000  Uiso   1.00
O553   O     0.77321   0.79375   0.24999   0.00000  Uiso   1.00
O554   O     0.83333   0.87293   0.18573   0.00000  Uiso   1.00
O555   O     0.83334   0.79374   0.31427   0.00000  Uiso   1.00
O556   O     0.83334   0.87293   0.31427   0.00000  Uiso   1.00
O557   O     0.83333   0.79374   0.18573   0.00000  Uiso   1.00
O558   O     0.69972   0.76577   0.34767   0.00000  Uiso   1.00
C559   C     0.08754   0.16666   0.75000   0.00000  Uiso   1.00
C560   C     0.31148   0.18000   0.71120   0.00000  Uiso   1.00
C561   C     0.31166   0.15337   0.78880   0.00000  Uiso   1.00
C562   C     0.02159   0.18230   0.71200   0.00000  Uiso   1.00
C563   C     0.18018   0.20652   0.54775   0.00000  Uiso   1.00
C564   C     0.18034   0.12683   0.95233   0.00000  Uiso   1.00
C565   C     0.15458   0.20657   0.95245   0.00000  Uiso   1.00
C566   C     0.15461   0.12667   0.54746   0.00000  Uiso   1.00
C567   C     0.17970   0.20662   0.59367   0.00000  Uiso   1.00
C568   C     0.17991   0.12675   0.90640   0.00000  Uiso   1.00
C569   C     0.15464   0.20668   0.90653   0.00000  Uiso   1.00
C570   C     0.24578   0.16668   0.75000   0.00000  Uiso   1.00
C571   C     0.15461   0.12659   0.59340   0.00000  Uiso   1.00
C572   C     0.16700   0.16662   0.61673   0.00000  Uiso   1.00
C573   C     0.16713   0.16670   0.88326   0.00000  Uiso   1.00
C574   C     0.16749   0.16660   0.52428   0.00000  Uiso   1.00
C575   C     0.16752   0.16668   0.97572   0.00000  Uiso   1.00
C576   C     0.29044   0.16669   0.75000   0.00000  Uiso   1.00
C577   C     0.04282   0.16666   0.75001   0.00000  Uiso   1.00
C578   C     0.04571   0.13239   0.82636   0.00000  Uiso   1.00
C579   C     0.28763   0.18896   0.66973   0.00000  Uiso   1.00
C580   C     0.28800   0.14437   0.83025   0.00000  Uiso   1.00
C581   C     0.16676   0.16665   0.66497   0.00000  Uiso   1.00
C582   C     0.04536   0.20110   0.67373   0.00000  Uiso   1.00
C583   C     0.16684   0.16668   0.83503   0.00000  Uiso   1.00
C584   C     0.14125   0.02476   0.72222   0.00000  Uiso   1.00
C585   C     0.19208   0.30858   0.77778   0.00000  Uiso   1.00
C586   C     0.19208   0.02484   0.77779   0.00000  Uiso   1.00
C587   C     0.14124   0.30849   0.72222   0.00000  Uiso   1.00
C588   C     0.02176   0.15107   0.78803   0.00000  Uiso   1.00
Cu589  Cu    0.16667   0.21355   0.75000   0.00000  Uiso   1.00
Cu590  Cu    0.16667   0.11978   0.75000   0.00000  Uiso   1.00
H591   H     0.12088   0.04340   0.69995   0.00000  Uiso   1.00
H592   H     0.19008   0.09568   0.88901   0.00000  Uiso   1.00
H593   H     0.14435   0.23777   0.88924   0.00000  Uiso   1.00
H594   H     0.14438   0.09547   0.61062   0.00000  Uiso   1.00
H595   H     0.07561   0.14715   0.83480   0.00000  Uiso   1.00
H596   H     0.25745   0.20537   0.67095   0.00000  Uiso   1.00
H597   H     0.25786   0.12780   0.82900   0.00000  Uiso   1.00
H598   H     0.07521   0.18637   0.66526   0.00000  Uiso   1.00
H599   H     0.21246   0.28993   0.80005   0.00000  Uiso   1.00
H600   H     0.21245   0.04356   0.80006   0.00000  Uiso   1.00
H601   H     0.12086   0.28978   0.69997   0.00000  Uiso   1.00
H602   H     0.19092   0.23746   0.53061   0.00000  Uiso   1.00
H603   H     0.19113   0.09593   0.96954   0.00000  Uiso   1.00
H604   H     0.14390   0.23745   0.96975   0.00000  Uiso   1.00
H605   H     0.14403   0.09574   0.53010   0.00000  Uiso   1.00
H606   H     0.18977   0.23775   0.61111   0.00000  Uiso   1.00
N607   N     0.16667   0.28402   0.75000   0.00000  Uiso   1.00
N608   N     0.16667   0.04931   0.75000   0.00000  Uiso   1.00
O609   O     0.10655   0.20625   0.74999   0.00000  Uiso   1.00
O610   O     0.30071   0.17616   0.63388   0.00000  Uiso   1.00
O611   O     0.30118   0.15729   0.86610   0.00000  Uiso   1.00
O612   O     0.03264   0.23449   0.65253   0.00000  Uiso   1.00
O613   O     0.22679   0.12709   0.75000   0.00000  Uiso   1.00
O614   O     0.22679   0.20625   0.75000   0.00000  Uiso   1.00
O615   O     0.10655   0.12709   0.74999   0.00000  Uiso   1.00
O616   O     0.16666   0.20626   0.68573   0.00000  Uiso   1.00
O617   O     0.16667   0.12707   0.81427   0.00000  Uiso   1.00
O618   O     0.16667   0.20626   0.81427   0.00000  Uiso   1.00
O619   O     0.16666   0.12707   0.68573   0.00000  Uiso   1.00
O620   O     0.03305   0.09910   0.84767   0.00000  Uiso   1.00
C621   C     0.42087   0.16666   0.75000   0.00000  Uiso   1.00
C622   C     0.64481   0.18000   0.71120   0.00000  Uiso   1.00
C623   C     0.64499   0.15337   0.78880   0.00000  Uiso   1.00
C624   C     0.35492   0.18230   0.71200   0.00000  Uiso   1.00
C625   C     0.51352   0.20652   0.54775   0.00000  Uiso   1.00
C626   C     0.51367   0.12683   0.95233   0.00000  Uiso   1.00
C627   C     0.48792   0.20657   0.95245   0.00000  Uiso   1.00
C628   C     0.48795   0.12667   0.54746   0.00000  Uiso   1.00
C629   C     0.51303   0.20662   0.59367   0.00000  Uiso   1.00
C630   C     0.51324   0.12675   0.90640   0.00000  Uiso   1.00
C631   C     0.48797   0.20668   0.90653   0.00000  Uiso   1.00
C632   C     0.57911   0.16668   0.75000   0.00000  Uiso   1.00
C633   C     0.48795   0.12659   0.59340   0.00000  Uiso   1.00
C634   C     0.50034   0.16662   0.61673   0.00000  Uiso   1.00
C635   C     0.50046   0.16670   0.88326   0.00000  Uiso   1.00
C636   C     0.50082   0.16660   0.52428   0.00000  Uiso   1.00
C637   C     0.50085   0.16668   0.97572   0.00000  Uiso   1.00
C638   C     0.62377   0.16669   0.75000   0.00000  Uiso   1.00
C639   C     0.37616   0.16666   0.75001   0.00000  Uiso   1.00
C640   C     0.37904   0.13239   0.82636   0.00000  Uiso   1.00
C641   C     0.62097   0.18896   0.66973   0.00000  Uiso   1.00
C642   C     0.62133   0.14437   0.83025   0.00000  Uiso   1.00
C643   C     0.50009   0.16665   0.66497   0.00000  Uiso   1.00
C644   C     0.37869   0.20110   0.67373   0.00000  Uiso   1.00
C645   C     0.50017   0.16668   0.83503   0.00000  Uiso   1.00
C646   C     0.47458   0.02476   0.72222   0.00000  Uiso   1.00
C647   C     0.52542   0.30858   0.77778   0.00000  Uiso   1.00
C648   C     0.52542   0.02484   0.77779   0.00000  Uiso   1.00
C649   C     0.47457   0.30849   0.72222   0.00000  Uiso   1.00
C650   C     0.35509   0.15107   0.78803   0.00000  Uiso   1.00
Cu651  Cu    0.50000   0.21355   0.75000   0.00000  Uiso   1.00
Cu652  Cu    0.50000   0.11978   0.75000   0.00000  Uiso   1.00
H653   H     0.45421   0.04340   0.69995   0.00000  Uiso   1.00
H654   H     0.52341   0.09568   0.88901   0.00000  Uiso   1.00
H655   H     0.47769   0.23777   0.88924   0.00000  Uiso   1.00
H656   H     0.47771   0.09547   0.61062   0.00000  Uiso   1.00
H657   H     0.40895   0.14715   0.83480   0.00000  Uiso   1.00
H658   H     0.59079   0.20537   0.67095   0.00000  Uiso   1.00
H659   H     0.59119   0.12780   0.82900   0.00000  Uiso   1.00
H660   H     0.40854   0.18637   0.66526   0.00000  Uiso   1.00
H661   H     0.54579   0.28993   0.80005   0.00000  Uiso   1.00
H662   H     0.54578   0.04356   0.80006   0.00000  Uiso   1.00
H663   H     0.45419   0.28978   0.69997   0.00000  Uiso   1.00
H664   H     0.52425   0.23746   0.53061   0.00000  Uiso   1.00
H665   H     0.52446   0.09593   0.96954   0.00000  Uiso   1.00
H666   H     0.47723   0.23745   0.96975   0.00000  Uiso   1.00
H667   H     0.47736   0.09574   0.53010   0.00000  Uiso   1.00
H668   H     0.52310   0.23775   0.61111   0.00000  Uiso   1.00
N669   N     0.50000   0.28402   0.75000   0.00000  Uiso   1.00
N670   N     0.50000   0.04931   0.75000   0.00000  Uiso   1.00
O671   O     0.43988   0.20625   0.74999   0.00000  Uiso   1.00
O672   O     0.63404   0.17616   0.63388   0.00000  Uiso   1.00
O673   O     0.63451   0.15729   0.86610   0.00000  Uiso   1.00
O674   O     0.36597   0.23449   0.65253   0.00000  Uiso   1.00
O675   O     0.56012   0.12709   0.75000   0.00000  Uiso   1.00
O676   O     0.56012   0.20625   0.75000   0.00000  Uiso   1.00
O677   O     0.43988   0.12709   0.74999   0.00000  Uiso   1.00
O678   O     0.50000   0.20626   0.68573   0.00000  Uiso   1.00
O679   O     0.50000   0.12707   0.81427   0.00000  Uiso   1.00
O680   O     0.50000   0.20626   0.81427   0.00000  Uiso   1.00
O681   O     0.50000   0.12707   0.68573   0.00000  Uiso   1.00
O682   O     0.36639   0.09910   0.84767   0.00000  Uiso   1.00
C683   C     0.75420   0.16666   0.75000   0.00000  Uiso   1.00
C684   C     0.97815   0.18000   0.71120   0.00000  Uiso   1.00
C685   C     0.97833   0.15337   0.78880   0.00000  Uiso   1.00
C686   C     0.68825   0.18230   0.71200   0.00000  Uiso   1.00
C687   C     0.84685   0.20652   0.54775   0.00000  Uiso   1.00
C688   C     0.84701   0.12683   0.95233   0.00000  Uiso   1.00
C689   C     0.82125   0.20657   0.95245   0.00000  Uiso   1.00
C690   C     0.82128   0.12667   0.54746   0.00000  Uiso   1.00
C691   C     0.84636   0.20662   0.59367   0.00000  Uiso   1.00
C692   C     0.84657   0.12675   0.90640   0.00000  Uiso   1.00
C693   C     0.82131   0.20668   0.90653   0.00000  Uiso   1.00
C694   C     0.91244   0.16668   0.75000   0.00000  Uiso   1.00
C695   C     0.82128   0.12659   0.59340   0.00000  Uiso   1.00
C696   C     0.83367   0.16662   0.61673   0.00000  Uiso   1.00
C697   C     0.83379   0.16670   0.88326   0.00000  Uiso   1.00
C698   C     0.83416   0.16660   0.52428   0.00000  Uiso   1.00
C699   C     0.83419   0.16668   0.97572   0.00000  Uiso   1.00
C700   C     0.95710   0.16669   0.75000   0.00000  Uiso   1.00
C701   C     0.70949   0.16666   0.75001   0.00000  Uiso   1.00
C702   C     0.71237   0.13239   0.82636   0.00000  Uiso   1.00
C703   C     0.95430   0.18896   0.66973   0.00000  Uiso   1.00
C704   C     0.95466   0.14437   0.83025   0.00000  Uiso   1.00
C705   C     0.83343   0.16665   0.66497   0.00000  Uiso   1.00
C706   C     0.71203   0.20110   0.67373   0.00000  Uiso   1.00
C707   C     0.83351   0.16668   0.83503   0.00000  Uiso   1.00
C708   C     0.80791   0.02476   0.72222   0.00000  Uiso   1.00
C709   C     0.85875   0.30858   0.77778   0.00000  Uiso   1.00
C710   C     0.85875   0.02484   0.77779   0.00000  Uiso   1.00
C711   C     0.80791   0.30849   0.72222   0.00000  Uiso   1.00
C712   C     0.68843   0.15107   0.78803   0.00000  Uiso   1.00
Cu713  Cu    0.83333   0.21355   0.75000   0.00000  Uiso   1.00
Cu714  Cu    0.83333   0.11978   0.75000   0.00000  Uiso   1.00
H715   H     0.78754   0.04340   0.69995   0.00000  Uiso   1.00
H716   H     0.85674   0.09568   0.88901   0.00000  Uiso   1.00
H717   H     0.81102   0.23777   0.88924   0.00000  Uiso   1.00
H718   H     0.81105   0.09547   0.61062   0.00000  Uiso   1.00
H719   H     0.74228   0.14715   0.83480   0.00000  Uiso   1.00
H720   H     0.92412   0.20537   0.67095   0.00000  Uiso   1.00
H721   H     0.92453   0.12780   0.82900   0.00000  Uiso   1.00
H722   H     0.74188   0.18637   0.66526   0.00000  Uiso   1.00
H723   H     0.87912   0.28993   0.80005   0.00000  Uiso   1.00
H724   H     0.87912   0.04356   0.80006   0.00000  Uiso   1.00
H725   H     0.78752   0.28978   0.69997   0.00000  Uiso   1.00
H726   H     0.85758   0.23746   0.53061   0.00000  Uiso   1.00
H727   H     0.85780   0.09593   0.96954   0.00000  Uiso   1.00
H728   H     0.81057   0.23745   0.96975   0.00000  Uiso   1.00
H729   H     0.81069   0.09574   0.53010   0.00000  Uiso   1.00
H730   H     0.85643   0.23775   0.61111   0.00000  Uiso   1.00
N731   N     0.83333   0.28402   0.75000   0.00000  Uiso   1.00
N732   N     0.83333   0.04931   0.75000   0.00000  Uiso   1.00
O733   O     0.77321   0.20625   0.74999   0.00000  Uiso   1.00
O734   O     0.96737   0.17616   0.63388   0.00000  Uiso   1.00
O735   O     0.96784   0.15729   0.86610   0.00000  Uiso   1.00
O736   O     0.69930   0.23449   0.65253   0.00000  Uiso   1.00
O737   O     0.89345   0.12709   0.75000   0.00000  Uiso   1.00
O738   O     0.89345   0.20625   0.75000   0.00000  Uiso   1.00
O739   O     0.77321   0.12709   0.74999   0.00000  Uiso   1.00
O740   O     0.83333   0.20626   0.68573   0.00000  Uiso   1.00
O741   O     0.83334   0.12707   0.81427   0.00000  Uiso   1.00
O742   O     0.83334   0.20626   0.81427   0.00000  Uiso   1.00
O743   O     0.83333   0.12707   0.68573   0.00000  Uiso   1.00
O744   O     0.69972   0.09910   0.84767   0.00000  Uiso   1.00
C745   C     0.08754   0.49999   0.75000   0.00000  Uiso   1.00
C746   C     0.31148   0.51334   0.71120   0.00000  Uiso   1.00
C747   C     0.31166   0.48670   0.78880   0.00000  Uiso   1.00
C748   C     0.02159   0.51563   0.71200   0.00000  Uiso   1.00
C749   C     0.18018   0.53985   0.54775   0.00000  Uiso   1.00
C750   C     0.18034   0.46016   0.95233   0.00000  Uiso   1.00
C751   C     0.15458   0.53990   0.95245   0.00000  Uiso   1.00
C752   C     0.15461   0.46001   0.54746   0.00000  Uiso   1.00
C753   C     0.17970   0.53996   0.59367   0.00000  Uiso   1.00
C754   C     0.17991   0.46008   0.90640   0.00000  Uiso   1.00
C755   C     0.15464   0.54001   0.90653   0.00000  Uiso   1.00
C756   C     0.24578   0.50001   0.75000   0.00000  Uiso   1.00
C757   C     0.15461   0.45992   0.59340   0.00000  Uiso   1.00
C758   C     0.16700   0.49996   0.61673   0.00000  Uiso   1.00
C759   C     0.16713   0.50004   0.88326   0.00000  Uiso   1.00
C760   C     0.16749   0.49994   0.52428   0.00000  Uiso   1.00
C761   C     0.16752   0.50001   0.97572   0.00000  Uiso   1.00
C762   C     0.29044   0.50002   0.75000   0.00000  Uiso   1.00
C763   C     0.04282   0.49999   0.75001   0.00000  Uiso   1.00
C764   C     0.04571   0.46573   0.82636   0.00000  Uiso   1.00
C765   C     0.28763   0.52229   0.66973   0.00000  Uiso   1.00
C766   C     0.28800   0.47770   0.83025   0.00000  Uiso   1.00
C767   C     0.16676   0.49998   0.66497   0.00000  Uiso   1.00
C768   C     0.04536   0.53444   0.67373   0.00000  Uiso   1.00
C769   C     0.16684   0.50002   0.83503   0.00000  Uiso   1.00
C770   C     0.14125   0.35809   0.72222   0.00000  Uiso   1.00
C771   C     0.19208   0.64191   0.77778   0.00000  Uiso   1.00
C772   C     0.19208   0.35818   0.77779   0.00000  Uiso   1.00
C773   C     0.14124   0.64183   0.72222   0.00000  Uiso   1.00
C774   C     0.02176   0.48440   0.78803   0.00000  Uiso   1.00
Cu775  Cu    0.16667   0.54689   0.75000   0.00000  Uiso   1.00
Cu776  Cu    0.16667   0.45311   0.75000   0.00000  Uiso   1.00
H777   H     0.12088   0.37674   0.69995   0.00000  Uiso   1.00
H778   H     0.19008   0.42901   0.88901   0.00000  Uiso   1.00
H779   H     0.14435   0.57110   0.88924   0.00000  Uiso   1.00
H780   H     0.14438   0.42880   0.61062   0.00000  Uiso   1.00
H781   H     0.07561   0.48049   0.83480   0.00000  Uiso   1.00
H782   H     0.25745   0.53871   0.67095   0.00000  Uiso   1.00
H783   H     0.25786   0.46114   0.82900   0.00000  Uiso   1.00
H784   H     0.07521   0.51970   0.66526   0.00000  Uiso   1.00
H785   H     0.21246   0.62327   0.80005   0.00000  Uiso   1.00
H786   H     0.21245   0.37689   0.80006   0.00000  Uiso   1.00
H787   H     0.12086   0.62311   0.69997   0.00000  Uiso   1.00
H788   H     0.19092   0.57079   0.53061   0.00000  Uiso   1.00
H789   H     0.19113   0.42926   0.96954   0.00000  Uiso   1.00
H790   H     0.14390   0.57079   0.96975   0.00000  Uiso   1.00
H791   H     0.14403   0.42907   0.53010   0.00000  Uiso   1.00
H792   H     0.18977   0.57108   0.61111   0.00000  Uiso   1.00
N793   N     0.16667   0.61736   0.75000   0.00000  Uiso   1.00
N794   N     0.16667   0.38264   0.75000   0.00000  Uiso   1.00
O795   O     0.10655   0.53958   0.74999   0.00000  Uiso   1.00
O796   O     0.30071   0.50950   0.63388   0.00000  Uiso   1.00
O797   O     0.30118   0.49062   0.86610   0.00000  Uiso   1.00
O798   O     0.03264   0.56782   0.65253   0.00000  Uiso   1.00
O799   O     0.22679   0.46042   0.75000   0.00000  Uiso   1.00
O800   O     0.22679   0.53958   0.75000   0.00000  Uiso   1.00
O801   O     0.10655   0.46042   0.74999   0.00000  Uiso   1.00
O802   O     0.16666   0.53959   0.68573   0.00000  Uiso   1.00
O803   O     0.16667   0.46041   0.81427   0.00000  Uiso   1.00
O804   O     0.16667   0.53959   0.81427   0.00000  Uiso   1.00
O805   O     0.16666   0.46041   0.68573   0.00000  Uiso   1.00
O806   O     0.03305   0.43243   0.84767   0.00000  Uiso   1.00
C807   C     0.42087   0.49999   0.75000   0.00000  Uiso   1.00
C808   C     0.64481   0.51334   0.71120   0.00000  Uiso   1.00
C809   C     0.64499   0.48670   0.78880   0.00000  Uiso   1.00
C810   C     0.35492   0.51563   0.71200   0.00000  Uiso   1.00
C811   C     0.51352   0.53985   0.54775   0.00000  Uiso   1.00
C812   C     0.51367   0.46016   0.95233   0.00000  Uiso   1.00
C813   C     0.48792   0.53990   0.95245   0.00000  Uiso   1.00
C814   C     0.48795   0.46001   0.54746   0.00000  Uiso   1.00
C815   C     0.51303   0.53996   0.59367   0.00000  Uiso   1.00
C816   C     0.51324   0.46008   0.90640   0.00000  Uiso   1.00
C817   C     0.48797   0.54001   0.90653   0.00000  Uiso   1.00
C818   C     0.57911   0.50001   0.75000   0.00000  Uiso   1.00
C819   C     0.48795   0.45992   0.59340   0.00000  Uiso   1.00
C820   C     0.50034   0.49996   0.61673   0.00000  Uiso   1.00
C821   C     0.50046   0.50004   0.88326   0.00000  Uiso   1.00
C822   C     0.50082   0.49994   0.52428   0.00000  Uiso   1.00
C823   C     0.50085   0.50001   0.97572   0.00000  Uiso   1.00
C824   C     0.62377   0.50002   0.75000   0.00000  Uiso   1.00
C825   C     0.37616   0.49999   0.75001   0.00000  Uiso   1.00
C826   C     0.37904   0.46573   0.82636   0.00000  Uiso   1.00
C827   C     0.62097   0.52229   0.66973   0.00000  Uiso   1.00
C828   C     0.62133   0.47770   0.83025   0.00000  Uiso   1.00
C829   C     0.50009   0.49998   0.66497   0.00000  Uiso   1.00
C830   C     0.37869   0.53444   0.67373   0.00000  Uiso   1.00
C831   C     0.50017   0.50002   0.83503   0.00000  Uiso   1.00
C832   C     0.47458   0.35809   0.72222   0.00000  Uiso   1.00
C833   C     0.52542   0.64191   0.77778   0.00000  Uiso   1.00
C834   C     0.52542   0.35818   0.77779   0.00000  Uiso   1.00
C835   C     0.47457   0.64183   0.72222   0.00000  Uiso   1.00
C836   C     0.35509   0.48440   0.78803   0.00000  Uiso   1.00
Cu837  Cu    0.50000   0.54689   0.75000   0.00000  Uiso   1.00
Cu838  Cu    0.50000   0.45311   0.75000   0.00000  Uiso   1.00
H839   H     0.45421   0.37674   0.69995   0.00000  Uiso   1.00
H840   H     0.52341   0.42901   0.88901   0.00000  Uiso   1.00
H841   H     0.47769   0.57110   0.88924   0.00000  Uiso   1.00
H842   H     0.47771   0.42880   0.61062   0.00000  Uiso   1.00
H843   H     0.40895   0.48049   0.83480   0.00000  Uiso   1.00
H844   H     0.59079   0.53871   0.67095   0.00000  Uiso   1.00
H845   H     0.59119   0.46114   0.82900   0.00000  Uiso   1.00
H846   H     0.40854   0.51970   0.66526   0.00000  Uiso   1.00
H847   H     0.54579   0.62327   0.80005   0.00000  Uiso   1.00
H848   H     0.54578   0.37689   0.80006   0.00000  Uiso   1.00
H849   H     0.45419   0.62311   0.69997   0.00000  Uiso   1.00
H850   H     0.52425   0.57079   0.53061   0.00000  Uiso   1.00
H851   H     0.52446   0.42926   0.96954   0.00000  Uiso   1.00
H852   H     0.47723   0.57079   0.96975   0.00000  Uiso   1.00
H853   H     0.47736   0.42907   0.53010   0.00000  Uiso   1.00
H854   H     0.52310   0.57108   0.61111   0.00000  Uiso   1.00
N855   N     0.50000   0.61736   0.75000   0.00000  Uiso   1.00
N856   N     0.50000   0.38264   0.75000   0.00000  Uiso   1.00
O857   O     0.43988   0.53958   0.74999   0.00000  Uiso   1.00
O858   O     0.63404   0.50950   0.63388   0.00000  Uiso   1.00
O859   O     0.63451   0.49062   0.86610   0.00000  Uiso   1.00
O860   O     0.36597   0.56782   0.65253   0.00000  Uiso   1.00
O861   O     0.56012   0.46042   0.75000   0.00000  Uiso   1.00
O862   O     0.56012   0.53958   0.75000   0.00000  Uiso   1.00
O863   O     0.43988   0.46042   0.74999   0.00000  Uiso   1.00
O864   O     0.50000   0.53959   0.68573   0.00000  Uiso   1.00
O865   O     0.50000   0.46041   0.81427   0.00000  Uiso   1.00
O866   O     0.50000   0.53959   0.81427   0.00000  Uiso   1.00
O867   O     0.50000   0.46041   0.68573   0.00000  Uiso   1.00
O868   O     0.36639   0.43243   0.84767   0.00000  Uiso   1.00
C869   C     0.75420   0.49999   0.75000   0.00000  Uiso   1.00
C870   C     0.97815   0.51334   0.71120   0.00000  Uiso   1.00
C871   C     0.97833   0.48670   0.78880   0.00000  Uiso   1.00
C872   C     0.68825   0.51563   0.71200   0.00000  Uiso   1.00
C873   C     0.84685   0.53985   0.54775   0.00000  Uiso   1.00
C874   C     0.84701   0.46016   0.95233   0.00000  Uiso   1.00
C875   C     0.82125   0.53990   0.95245   0.00000  Uiso   1.00
C876   C     0.82128   0.46001   0.54746   0.00000  Uiso   1.00
C877   C     0.84636   0.53996   0.59367   0.00000  Uiso   1.00
C878   C     0.84657   0.46008   0.90640   0.00000  Uiso   1.00
C879   C     0.82131   0.54001   0.90653   0.00000  Uiso   1.00
C880   C     0.91244   0.50001   0.75000   0.00000  Uiso   1.00
C881   C     0.82128   0.45992   0.59340   0.00000  Uiso   1.00
C882   C     0.83367   0.49996   0.61673   0.00000  Uiso   1.00
C883   C     0.83379   0.50004   0.88326   0.00000  Uiso   1.00
C884   C     0.83416   0.49994   0.52428   0.00000  Uiso   1.00
C885   C     0.83419   0.50001   0.97572   0.00000  Uiso   1.00
C886   C     0.95710   0.50002   0.75000   0.00000  Uiso   1.00
C887   C     0.70949   0.49999   0.75001   0.00000  Uiso   1.00
C888   C     0.71237   0.46573   0.82636   0.00000  Uiso   1.00
C889   C     0.95430   0.52229   0.66973   0.00000  Uiso   1.00
C890   C     0.95466   0.47770   0.83025   0.00000  Uiso   1.00
C891   C     0.83343   0.49998   0.66497   0.00000  Uiso   1.00
C892   C     0.71203   0.53444   0.67373   0.00000  Uiso   1.00
C893   C     0.83351   0.50002   0.83503   0.00000  Uiso   1.00
C894   C     0.80791   0.35809   0.72222   0.00000  Uiso   1.00
C895   C     0.85875   0.64191   0.77778   0.00000  Uiso   1.00
C896   C     0.85875   0.35818   0.77779   0.00000  Uiso   1.00
C897   C     0.80791   0.64183   0.72222   0.00000  Uiso   1.00
C898   C     0.68843   0.48440   0.78803   0.00000  Uiso   1.00
Cu899  Cu    0.83333   0.54689   0.75000   0.00000  Uiso   1.00
Cu900  Cu    0.83333   0.45311   0.75000   0.00000  Uiso   1.00
H901   H     0.78754   0.37674   0.69995   0.00000  Uiso   1.00
H902   H     0.85674   0.42901   0.88901   0.00000  Uiso   1.00
H903   H     0.81102   0.57110   0.88924   0.00000  Uiso   1.00
H904   H     0.81105   0.42880   0.61062   0.00000  Uiso   1.00
H905   H     0.74228   0.48049   0.83480   0.00000  Uiso   1.00
H906   H     0.92412   0.53871   0.67095   0.00000  Uiso   1.00
H907   H     0.92453   0.46114   0.82900   0.00000  Uiso   1.00
H908   H     0.74188   0.51970   0.66526   0.00000  Uiso   1.00
H909   H     0.87912   0.62327   0.80005   0.00000  Uiso   1.00
H910   H     0.87912   0.37689   0.80006   0.00000  Uiso   1.00
H911   H     0.78752   0.62311   0.69997   0.00000  Uiso   1.00
H912   H     0.85758   0.57079   0.53061   0.00000  Uiso   1.00
H913   H     0.85780   0.42926   0.96954   0.00000  Uiso   1.00
H914   H     0.81057   0.57079   0.96975   0.00000  Uiso   1.00
H915   H     0.81069   0.42907   0.53010   0.00000  Uiso   1.00
H916   H     0.85643   0.57108   0.61111   0.00000  Uiso   1.00
N917   N     0.83333   0.61736   0.75000   0.00000  Uiso   1.00
N918   N     0.83333   0.38264   0.75000   0.00000  Uiso   1.00
O919   O     0.77321   0.53958   0.74999   0.00000  Uiso   1.00
O920   O     0.96737   0.50950   0.63388   0.00000  Uiso   1.00
O921   O     0.96784   0.49062   0.86610   0.00000  Uiso   1.00
O922   O     0.69930   0.56782   0.65253   0.00000  Uiso   1.00
O923   O     0.89345   0.46042   0.75000   0.00000  Uiso   1.00
O924   O     0.89345   0.53958   0.75000   0.00000  Uiso   1.00
O925   O     0.77321   0.46042   0.74999   0.00000  Uiso   1.00
O926   O     0.83333   0.53959   0.68573   0.00000  Uiso   1.00
O927   O     0.83334   0.46041   0.81427   0.00000  Uiso   1.00
O928   O     0.83334   0.53959   0.81427   0.00000  Uiso   1.00
O929   O     0.83333   0.46041   0.68573   0.00000  Uiso   1.00
O930   O     0.69972   0.43243   0.84767   0.00000  Uiso   1.00
C931   C     0.08754   0.83333   0.75000   0.00000  Uiso   1.00
C932   C     0.31148   0.84667   0.71120   0.00000  Uiso   1.00
C933   C     0.31166   0.82003   0.78880   0.00000  Uiso   1.00
C934   C     0.02159   0.84897   0.71200   0.00000  Uiso   1.00
C935   C     0.18018   0.87319   0.54775   0.00000  Uiso   1.00
C936   C     0.18034   0.79350   0.95233   0.00000  Uiso   1.00
C937   C     0.15458   0.87324   0.95245   0.00000  Uiso   1.00
C938   C     0.15461   0.79334   0.54746   0.00000  Uiso   1.00
C939   C     0.17970   0.87329   0.59367   0.00000  Uiso   1.00
C940   C     0.17991   0.79342   0.90640   0.00000  Uiso   1.00
C941   C     0.15464   0.87335   0.90653   0.00000  Uiso   1.00
C942   C     0.24578   0.83334   0.75000   0.00000  Uiso   1.00
C943   C     0.15461   0.79326   0.59340   0.00000  Uiso   1.00
C944   C     0.16700   0.83329   0.61673   0.00000  Uiso   1.00
C945   C     0.16713   0.83337   0.88326   0.00000  Uiso   1.00
C946   C     0.16749   0.83327   0.52428   0.00000  Uiso   1.00
C947   C     0.16752   0.83335   0.97572   0.00000  Uiso   1.00
C948   C     0.29044   0.83336   0.75000   0.00000  Uiso   1.00
C949   C     0.04282   0.83332   0.75001   0.00000  Uiso   1.00
C950   C     0.04571   0.79906   0.82636   0.00000  Uiso   1.00
C951   C     0.28763   0.85562   0.66973   0.00000  Uiso   1.00
C952   C     0.28800   0.81104   0.83025   0.00000  Uiso   1.00
C953   C     0.16676   0.83332   0.66497   0.00000  Uiso   1.00
C954   C     0.04536   0.86777   0.67373   0.00000  Uiso   1.00
C955   C     0.16684   0.83335   0.83503   0.00000  Uiso   1.00
C956   C     0.14125   0.69142   0.72222   0.00000  Uiso   1.00
C957   C     0.19208   0.97524   0.77778   0.00000  Uiso   1.00
C958   C     0.19208   0.69151   0.77779   0.00000  Uiso   1.00
C959   C     0.14124   0.97516   0.72222   0.00000  Uiso   1.00
C960   C     0.02176   0.81774   0.78803   0.00000  Uiso   1.00
Cu961  Cu    0.16667   0.88022   0.75000   0.00000  Uiso   1.00
Cu962  Cu    0.16667   0.78645   0.75000   0.00000  Uiso   1.00
H963   H     0.12088   0.71007   0.69995   0.00000  Uiso   1.00
H964   H     0.19008   0.76235   0.88901   0.00000  Uiso   1.00
H965   H     0.14435   0.90443   0.88924   0.00000  Uiso   1.00
H966   H     0.14438   0.76214   0.61062   0.00000  Uiso   1.00
H967   H     0.07561   0.81382   0.83480   0.00000  Uiso   1.00
H968   H     0.25745   0.87204   0.67095   0.00000  Uiso   1.00
H969   H     0.25786   0.79447   0.82900   0.00000  Uiso   1.00
H970   H     0.07521   0.85304   0.66526   0.00000  Uiso   1.00
H971   H     0.21246   0.95660   0.80005   0.00000  Uiso   1.00
H972   H     0.21245   0.71023   0.80006   0.00000  Uiso   1.00
H973   H     0.12086   0.95644   0.69997   0.00000  Uiso   1.00
H974   H     0.19092   0.90413   0.53061   0.00000  Uiso   1.00
H975   H     0.19113   0.76259   0.96954   0.00000  Uiso   1.00
H976   H     0.14390   0.90412   0.96975   0.00000  Uiso   1.00
H977   H     0.14403   0.76241   0.53010   0.00000  Uiso   1.00
H978   H     0.18977   0.90441   0.61111   0.00000  Uiso   1.00
N979   N     0.16667   0.95069   0.75000   0.00000  Uiso   1.00
N980   N     0.16667   0.71598   0.75000   0.00000  Uiso   1.00
O981   O     0.10655   0.87291   0.74999   0.00000  Uiso   1.00
O982   O     0.30071   0.84283   0.63388   0.00000  Uiso   1.00
O983   O     0.30118   0.82396   0.86610   0.00000  Uiso   1.00
O984   O     0.03264   0.90116   0.65253   0.00000  Uiso   1.00
O985   O     0.22679   0.79375   0.75000   0.00000  Uiso   1.00
O986   O     0.22679   0.87291   0.75000   0.00000  Uiso   1.00
O987   O     0.10655   0.79375   0.74999   0.00000  Uiso   1.00
O988   O     0.16666   0.87293   0.68573   0.00000  Uiso   1.00
O989   O     0.16667   0.79374   0.81427   0.00000  Uiso   1.00
O990   O     0.16667   0.87293   0.81427   0.00000  Uiso   1.00
O991   O     0.16666   0.79374   0.68573   0.00000  Uiso   1.00
O992   O     0.03305   0.76577   0.84767   0.00000  Uiso   1.00
C993   C     0.42087   0.83333   0.75000   0.00000  Uiso   1.00
C994   C     0.64481   0.84667   0.71120   0.00000  Uiso   1.00
C995   C     0.64499   0.82003   0.78880   0.00000  Uiso   1.00
C996   C     0.35492   0.84897   0.71200   0.00000  Uiso   1.00
C997   C     0.51352   0.87319   0.54775   0.00000  Uiso   1.00
C998   C     0.51367   0.79350   0.95233   0.00000  Uiso   1.00
C999   C     0.48792   0.87324   0.95245   0.00000  Uiso   1.00
C1000  C     0.48795   0.79334   0.54746   0.00000  Uiso   1.00
C1001  C     0.51303   0.87329   0.59367   0.00000  Uiso   1.00
C1002  C     0.51324   0.79342   0.90640   0.00000  Uiso   1.00
C1003  C     0.48797   0.87335   0.90653   0.00000  Uiso   1.00
C1004  C     0.57911   0.83334   0.75000   0.00000  Uiso   1.00
C1005  C     0.48795   0.79326   0.59340   0.00000  Uiso   1.00
C1006  C     0.50034   0.83329   0.61673   0.00000  Uiso   1.00
C1007  C     0.50046   0.83337   0.88326   0.00000  Uiso   1.00
C1008  C     0.50082   0.83327   0.52428   0.00000  Uiso   1.00
C1009  C     0.50085   0.83335   0.97572   0.00000  Uiso   1.00
C1010  C     0.62377   0.83336   0.75000   0.00000  Uiso   1.00
C1011  C     0.37616   0.83332   0.75001   0.00000  Uiso   1.00
C1012  C     0.37904   0.79906   0.82636   0.00000  Uiso   1.00
C1013  C     0.62097   0.85562   0.66973   0.00000  Uiso   1.00
C1014  C     0.62133   0.81104   0.83025   0.00000  Uiso   1.00
C1015  C     0.50009   0.83332   0.66497   0.00000  Uiso   1.00
C1016  C     0.37869   0.86777   0.67373   0.00000  Uiso   1.00
C1017  C     0.50017   0.83335   0.83503   0.00000  Uiso   1.00
C1018  C     0.47458   0.69142   0.72222   0.00000  Uiso   1.00
C1019  C     0.52542   0.97524   0.77778   0.00000  Uiso   1.00
C1020  C     0.52542   0.69151   0.77779   0.00000  Uiso   1.00
C1021  C     0.47457   0.97516   0.72222   0.00000  Uiso   1.00
C1022  C     0.35509   0.81774   0.78803   0.00000  Uiso   1.00
Cu1023 Cu    0.50000   0.88022   0.75000   0.00000  Uiso   1.00
Cu1024 Cu    0.50000   0.78645   0.75000   0.00000  Uiso   1.00
H1025  H     0.45421   0.71007   0.69995   0.00000  Uiso   1.00
H1026  H     0.52341   0.76235   0.88901   0.00000  Uiso   1.00
H1027  H     0.47769   0.90443   0.88924   0.00000  Uiso   1.00
H1028  H     0.47771   0.76214   0.61062   0.00000  Uiso   1.00
H1029  H     0.40895   0.81382   0.83480   0.00000  Uiso   1.00
H1030  H     0.59079   0.87204   0.67095   0.00000  Uiso   1.00
H1031  H     0.59119   0.79447   0.82900   0.00000  Uiso   1.00
H1032  H     0.40854   0.85304   0.66526   0.00000  Uiso   1.00
H1033  H     0.54579   0.95660   0.80005   0.00000  Uiso   1.00
H1034  H     0.54578   0.71023   0.80006   0.00000  Uiso   1.00
H1035  H     0.45419   0.95644   0.69997   0.00000  Uiso   1.00
H1036  H     0.52425   0.90413   0.53061   0.00000  Uiso   1.00
H1037  H     0.52446   0.76259   0.96954   0.00000  Uiso   1.00
H1038  H     0.47723   0.90412   0.96975   0.00000  Uiso   1.00
H1039  H     0.47736   0.76241   0.53010   0.00000  Uiso   1.00
H1040  H     0.52310   0.90441   0.61111   0.00000  Uiso   1.00
N1041  N     0.50000   0.95069   0.75000   0.00000  Uiso   1.00
N1042  N     0.50000   0.71598   0.75000   0.00000  Uiso   1.00
O1043  O     0.43988   0.87291   0.74999   0.00000  Uiso   1.00
O1044  O     0.63404   0.84283   0.63388   0.00000  Uiso   1.00
O1045  O     0.63451   0.82396   0.86610   0.00000  Uiso   1.00
O1046  O     0.36597   0.90116   0.65253   0.00000  Uiso   1.00
O1047  O     0.56012   0.79375   0.75000   0.00000  Uiso   1.00
O1048  O     0.56012   0.87291   0.75000   0.00000  Uiso   1.00
O1049  O     0.43988   0.79375   0.74999   0.00000  Uiso   1.00
O1050  O     0.50000   0.87293   0.68573   0.00000  Uiso   1.00
O1051  O     0.50000   0.79374   0.81427   0.00000  Uiso   1.00
O1052  O     0.50000   0.87293   0.81427   0.00000  Uiso   1.00
O1053  O     0.50000   0.79374   0.68573   0.00000  Uiso   1.00
O1054  O     0.36639   0.76577   0.84767   0.00000  Uiso   1.00
C1055  C     0.75420   0.83333   0.75000   0.00000  Uiso   1.00
C1056  C     0.97815   0.84667   0.71120   0.00000  Uiso   1.00
C1057  C     0.97833   0.82003   0.78880   0.00000  Uiso   1.00
C1058  C     0.68825   0.84897   0.71200   0.00000  Uiso   1.00
C1059  C     0.84685   0.87319   0.54775   0.00000  Uiso   1.00
C1060  C     0.84701   0.79350   0.95233   0.00000  Uiso   1.00
C1061  C     0.82125   0.87324   0.95245   0.00000  Uiso   1.00
C1062  C     0.82128   0.79334   0.54746   0.00000  Uiso   1.00
C1063  C     0.84636   0.87329   0.59367   0.00000  Uiso   1.00
C1064  C     0.84657   0.79342   0.90640   0.00000  Uiso   1.00
C1065  C     0.82131   0.87335   0.90653   0.00000  Uiso   1.00
C1066  C     0.91244   0.83334   0.75000   0.00000  Uiso   1.00
C1067  C     0.82128   0.79326   0.59340   0.00000  Uiso   1.00
C1068  C     0.83367   0.83329   0.61673   0.00000  Uiso   1.00
C1069  C     0.83379   0.83337   0.88326   0.00000  Uiso   1.00
C1070  C     0.83416   0.83327   0.52428   0.00000  Uiso   1.00
C1071  C     0.83419   0.83335   0.97572   0.00000  Uiso   1.00
C1072  C     0.95710   0.83336   0.75000   0.00000  Uiso   1.00
C1073  C     0.70949   0.83332   0.75001   0.00000  Uiso   1.00
C1074  C     0.71237   0.79906   0.82636   0.00000  Uiso   1.00
C1075  C     0.95430   0.85562   0.66973   0.00000  Uiso   1.00
C1076  C     0.95466   0.81104   0.83025   0.00000  Uiso   1.00
C1077  C     0.83343   0.83332   0.66497   0.00000  Uiso   1.00
C1078  C     0.71203   0.86777   0.67373   0.00000  Uiso   1.00
C1079  C     0.83351   0.83335   0.83503   0.00000  Uiso   1.00
C1080  C     0.80791   0.69142   0.72222   0.00000  Uiso   1.00
C1081  C     0.85875   0.97524   0.77778   0.00000  Uiso   1.00
C1082  C     0.85875   0.69151   0.77779   0.00000  Uiso   1.00
C1083  C     0.80791   0.97516   0.72222   0.00000  Uiso   1.00
C1084  C     0.68843   0.81774   0.78803   0.00000  Uiso   1.00
Cu1085 Cu    0.83333   0.88022   0.75000   0.00000  Uiso   1.00
Cu1086 Cu    0.83333   0.78645   0.75000   0.00000  Uiso   1.00
H1087  H     0.78754   0.71007   0.69995   0.00000  Uiso   1.00
H1088  H     0.85674   0.76235   0.88901   0.00000  Uiso   1.00
H1089  H     0.81102   0.90443   0.88924   0.00000  Uiso   1.00
H1090  H     0.81105   0.76214   0.61062   0.00000  Uiso   1.00
H1091  H     0.74228   0.81382   0.83480   0.00000  Uiso   1.00
H1092  H     0.92412   0.87204   0.67095   0.00000  Uiso   1.00
H1093  H     0.92453   0.79447   0.82900   0.00000  Uiso   1.00
H1094  H     0.74188   0.85304   0.66526   0.00000  Uiso   1.00
H1095  H     0.87912   0.95660   0.80005   0.00000  Uiso   1.00
H1096  H     0.87912   0.71023   0.80006   0.00000  Uiso   1.00
H1097  H     0.78752   0.95644   0.69997   0.00000  Uiso   1.00
H1098  H     0.85758   0.90413   0.53061   0.00000  Uiso   1.00
H1099  H     0.85780   0.76259   0.96954   0.00000  Uiso   1.00
H1100  H     0.81057   0.90412   0.96975   0.00000  Uiso   1.00
H1101  H     0.81069   0.76241   0.53010   0.00000  Uiso   1.00
H1102  H     0.85643   0.90441   0.61111   0.00000  Uiso   1.00
N1103  N     0.83333   0.95069   0.75000   0.00000  Uiso   1.00
N1104  N     0.83333   0.71598   0.75000   0.00000  Uiso   1.00
O1105  O     0.77321   0.87291   0.74999   0.00000  Uiso   1.00
O1106  O     0.96737   0.84283   0.63388   0.00000  Uiso   1.00
O1107  O     0.96784   0.82396   0.86610   0.00000  Uiso   1.00
O1108  O     0.69930   0.90116   0.65253   0.00000  Uiso   1.00
O1109  O     0.89345   0.79375   0.75000   0.00000  Uiso   1.00
O1110  O     0.89345   0.87291   0.75000   0.00000  Uiso   1.00
O1111  O     0.77321   0.79375   0.74999   0.00000  Uiso   1.00
O1112  O     0.83333   0.87293   0.68573   0.00000  Uiso   1.00
O1113  O     0.83334   0.79374   0.81427   0.00000  Uiso   1.00
O1114  O     0.83334   0.87293   0.81427   0.00000  Uiso   1.00
O1115  O     0.83333   0.79374   0.68573   0.00000  Uiso   1.00
O1116  O     0.69972   0.76577   0.84767   0.00000  Uiso   1.00
loop_
_geom_bond_atom_site_label_1
_geom_bond_atom_site_label_2
_geom_bond_distance
_geom_bond_site_symmetry_2
_ccdc_geom_bond_type
C1     O57     1.287   .     A
C1     O51     1.287   .     A
C1     C19     1.446   .     S
C2     C18     1.411   .     A
C2     C21     1.493   .     S
C2     C66     1.407   .     S
C3     C18     1.411   .     A
C3     C22     1.494   .     S
C3     C92     1.407   .     S
C4     C24     1.492   .     S
C4     C19     1.411   .     A
C4     C126    1.407   1_455 S
C5     C9      1.390   .     A
C5     H44     1.083   .     S
C5     C16     1.404   .     A
C6     C10     1.390   .     A
C6     H45     1.083   .     S
C6     C17     1.404   .     A
C7     C11     1.390   .     A
C7     H46     1.083   .     S
C7     C17     1.404   .     A
C8     C13     1.390   .     A
C8     H47     1.083   .     S
C8     C16     1.404   .     A
C9     C14     1.402   .     A
C9     H48     1.083   .     S
C10    H34     1.083   .     S
C10    C15     1.402   .     A
C11    H35     1.083   .     S
C11    C15     1.401   .     A
C12    O56     1.287   .     A
C12    O55     1.287   .     A
C12    C18     1.444   .     S
C13    C14     1.402   .     A
C13    H36     1.083   .     S
C14    C23     1.460   .     S
C15    C25     1.460   .     S
C16    C575    1.469   1_554 S
C17    C574    1.469   .     S
C19    C30     1.411   .     A
C20    H37     1.085   .     S
C20    O62     1.221   .     D
C20    C30     1.492   .     S
C21    O52     1.221   .     D
C21    H38     1.084   .     S
C22    H39     1.084   .     S
C22    O53     1.221   .     D
C23    O58     1.294   .     A
C23    O61     1.294   .     A
C24    H40     1.085   .     S
C24    O54     1.221   .     D
C25    O59     1.294   .     A
C25    O60     1.294   .     A
C26    H33     1.082   .     S
C26    N50     1.367   .     A
C26    C401    1.417   1_545 S
C27    H41     1.082   .     S
C27    N49     1.367   .     A
C27    C214    1.417   .     S
C28    N50     1.367   .     A
C28    H42     1.082   .     S
C28    C399    1.417   1_545 S
C29    N49     1.367   .     A
C29    H43     1.082   .     S
C29    C212    1.417   .     S
C30    C127    1.407   1_455 S
Cu31   O56     1.956   .     S
Cu31   Cu32    2.680   .     S
Cu31   N49     2.014   .     S
Cu31   O58     1.956   .     S
Cu31   O60     1.956   .     S
Cu31   O51     1.956   .     S
Cu32   O59     1.956   .     S
Cu32   N50     2.014   .     S
Cu32   O57     1.956   .     S
Cu32   O61     1.956   .     S
Cu32   O55     1.956   .     S
C63    O119    1.287   .     A
C63    O113    1.287   .     A
C63    C81     1.446   .     S
C64    C80     1.411   .     A
C64    C83     1.493   .     S
C64    C128    1.407   .     S
C65    C80     1.411   .     A
C65    C84     1.494   .     S
C65    C154    1.407   .     S
C66    C86     1.492   .     S
C66    C81     1.411   .     A
C67    C71     1.390   .     A
C67    H106    1.083   .     S
C67    C78     1.404   .     A
C68    C72     1.390   .     A
C68    H107    1.083   .     S
C68    C79     1.404   .     A
C69    C73     1.390   .     A
C69    H108    1.083   .     S
C69    C79     1.404   .     A
C70    C75     1.390   .     A
C70    H109    1.083   .     S
C70    C78     1.404   .     A
C71    C76     1.402   .     A
C71    H110    1.083   .     S
C72    H96     1.083   .     S
C72    C77     1.402   .     A
C73    H97     1.083   .     S
C73    C77     1.401   .     A
C74    O118    1.287   .     A
C74    O117    1.287   .     A
C74    C80     1.444   .     S
C75    C76     1.402   .     A
C75    H98     1.083   .     S
C76    C85     1.460   .     S
C77    C87     1.460   .     S
C78    C637    1.469   1_554 S
C79    C636    1.469   .     S
C81    C92     1.411   .     A
C82    H99     1.085   .     S
C82    O124    1.221   .     D
C82    C92     1.492   .     S
C83    O114    1.221   .     D
C83    H100    1.084   .     S
C84    H101    1.084   .     S
C84    O115    1.221   .     D
C85    O120    1.294   .     A
C85    O123    1.294   .     A
C86    H102    1.085   .     S
C86    O116    1.221   .     D
C87    O121    1.294   .     A
C87    O122    1.294   .     A
C88    H95     1.082   .     S
C88    N112    1.367   .     A
C88    C463    1.417   1_545 S
C89    H103    1.082   .     S
C89    N111    1.367   .     A
C89    C276    1.417   .     S
C90    N112    1.367   .     A
C90    H104    1.082   .     S
C90    C461    1.417   1_545 S
C91    N111    1.367   .     A
C91    H105    1.082   .     S
C91    C274    1.417   .     S
Cu93   O118    1.956   .     S
Cu93   Cu94    2.680   .     S
Cu93   N111    2.014   .     S
Cu93   O120    1.956   .     S
Cu93   O122    1.956   .     S
Cu93   O113    1.956   .     S
Cu94   O121    1.956   .     S
Cu94   N112    2.014   .     S
Cu94   O119    1.956   .     S
Cu94   O123    1.956   .     S
Cu94   O117    1.956   .     S
C125   O181    1.287   .     A
C125   O175    1.287   .     A
C125   C143    1.446   .     S
C126   C142    1.411   .     A
C126   C145    1.493   .     S
C126   C4      1.407   1_655 S
C127   C142    1.411   .     A
C127   C146    1.494   .     S
C127   C30     1.407   1_655 S
C128   C148    1.492   .     S
C128   C143    1.411   .     A
C129   C133    1.390   .     A
C129   H168    1.083   .     S
C129   C140    1.404   .     A
C130   C134    1.390   .     A
C130   H169    1.083   .     S
C130   C141    1.404   .     A
C131   C135    1.390   .     A
C131   H170    1.083   .     S
C131   C141    1.404   .     A
C132   C137    1.390   .     A
C132   H171    1.083   .     S
C132   C140    1.404   .     A
C133   C138    1.402   .     A
C133   H172    1.083   .     S
C134   H158    1.083   .     S
C134   C139    1.402   .     A
C135   H159    1.083   .     S
C135   C139    1.401   .     A
C136   O180    1.287   .     A
C136   O179    1.287   .     A
C136   C142    1.444   .     S
C137   C138    1.402   .     A
C137   H160    1.083   .     S
C138   C147    1.460   .     S
C139   C149    1.460   .     S
C140   C699    1.469   1_554 S
C141   C698    1.469   .     S
C143   C154    1.411   .     A
C144   H161    1.085   .     S
C144   O186    1.221   .     D
C144   C154    1.492   .     S
C145   O176    1.221   .     D
C145   H162    1.084   .     S
C146   H163    1.084   .     S
C146   O177    1.221   .     D
C147   O182    1.294   .     A
C147   O185    1.294   .     A
C148   H164    1.085   .     S
C148   O178    1.221   .     D
C149   O183    1.294   .     A
C149   O184    1.294   .     A
C150   H157    1.082   .     S
C150   N174    1.367   .     A
C150   C525    1.417   1_545 S
C151   H165    1.082   .     S
C151   N173    1.367   .     A
C151   C338    1.417   .     S
C152   N174    1.367   .     A
C152   H166    1.082   .     S
C152   C523    1.417   1_545 S
C153   N173    1.367   .     A
C153   H167    1.082   .     S
C153   C336    1.417   .     S
Cu155  O180    1.956   .     S
Cu155  Cu156   2.680   .     S
Cu155  N173    2.014   .     S
Cu155  O182    1.956   .     S
Cu155  O184    1.956   .     S
Cu155  O175    1.956   .     S
Cu156  O183    1.956   .     S
Cu156  N174    2.014   .     S
Cu156  O181    1.956   .     S
Cu156  O185    1.956   .     S
Cu156  O179    1.956   .     S
C187   O243    1.287   .     A
C187   O237    1.287   .     A
C187   C205    1.446   .     S
C188   C204    1.411   .     A
C188   C207    1.493   .     S
C188   C252    1.407   .     S
C189   C204    1.411   .     A
C189   C208    1.494   .     S
C189   C278    1.407   .     S
C190   C210    1.492   .     S
C190   C205    1.411   .     A
C190   C312    1.407   1_455 S
C191   C195    1.390   .     A
C191   H230    1.083   .     S
C191   C202    1.404   .     A
C192   C196    1.390   .     A
C192   H231    1.083   .     S
C192   C203    1.404   .     A
C193   C197    1.390   .     A
C193   H232    1.083   .     S
C193   C203    1.404   .     A
C194   C199    1.390   .     A
C194   H233    1.083   .     S
C194   C202    1.404   .     A
C195   C200    1.402   .     A
C195   H234    1.083   .     S
C196   H220    1.083   .     S
C196   C201    1.402   .     A
C197   H221    1.083   .     S
C197   C201    1.401   .     A
C198   O242    1.287   .     A
C198   O241    1.287   .     A
C198   C204    1.444   .     S
C199   C200    1.402   .     A
C199   H222    1.083   .     S
C200   C209    1.460   .     S
C201   C211    1.460   .     S
C202   C761    1.469   1_554 S
C203   C760    1.469   .     S
C205   C216    1.411   .     A
C206   H223    1.085   .     S
C206   O248    1.221   .     D
C206   C216    1.492   .     S
C207   O238    1.221   .     D
C207   H224    1.084   .     S
C208   H225    1.084   .     S
C208   O239    1.221   .     D
C209   O244    1.294   .     A
C209   O247    1.294   .     A
C210   H226    1.085   .     S
C210   O240    1.221   .     D
C211   O245    1.294   .     A
C211   O246    1.294   .     A
C212   H219    1.082   .     S
C212   N236    1.367   .     A
C213   H227    1.082   .     S
C213   N235    1.367   .     A
C213   C400    1.417   .     S
C214   N236    1.367   .     A
C214   H228    1.082   .     S
C215   N235    1.367   .     A
C215   H229    1.082   .     S
C215   C398    1.417   .     S
C216   C313    1.407   1_455 S
Cu217  O242    1.956   .     S
Cu217  Cu218   2.680   .     S
Cu217  N235    2.014   .     S
Cu217  O244    1.956   .     S
Cu217  O246    1.956   .     S
Cu217  O237    1.956   .     S
Cu218  O245    1.956   .     S
Cu218  N236    2.014   .     S
Cu218  O243    1.956   .     S
Cu218  O247    1.956   .     S
Cu218  O241    1.956   .     S
C249   O305    1.287   .     A
C249   O299    1.287   .     A
C249   C267    1.446   .     S
C250   C266    1.411   .     A
C250   C269    1.493   .     S
C250   C314    1.407   .     S
C251   C266    1.411   .     A
C251   C270    1.494   .     S
C251   C340    1.407   .     S
C252   C272    1.492   .     S
C252   C267    1.411   .     A
C253   C257    1.390   .     A
C253   H292    1.083   .     S
C253   C264    1.404   .     A
C254   C258    1.390   .     A
C254   H293    1.083   .     S
C254   C265    1.404   .     A
C255   C259    1.390   .     A
C255   H294    1.083   .     S
C255   C265    1.404   .     A
C256   C261    1.390   .     A
C256   H295    1.083   .     S
C256   C264    1.404   .     A
C257   C262    1.402   .     A
C257   H296    1.083   .     S
C258   H282    1.083   .     S
C258   C263    1.402   .     A
C259   H283    1.083   .     S
C259   C263    1.401   .     A
C260   O304    1.287   .     A
C260   O303    1.287   .     A
C260   C266    1.444   .     S
C261   C262    1.402   .     A
C261   H284    1.083   .     S
C262   C271    1.460   .     S
C263   C273    1.460   .     S
C264   C823    1.469   1_554 S
C265   C822    1.469   .     S
C267   C278    1.411   .     A
C268   H285    1.085   .     S
C268   O310    1.221   .     D
C268   C278    1.492   .     S
C269   O300    1.221   .     D
C269   H286    1.084   .     S
C270   H287    1.084   .     S
C270   O301    1.221   .     D
C271   O306    1.294   .     A
C271   O309    1.294   .     A
C272   H288    1.085   .     S
C272   O302    1.221   .     D
C273   O307    1.294   .     A
C273   O308    1.294   .     A
C274   H281    1.082   .     S
C274   N298    1.367   .     A
C275   H289    1.082   .     S
C275   N297    1.367   .     A
C275   C462    1.417   .     S
C276   N298    1.367   .     A
C276   H290    1.082   .     S
C277   N297    1.367   .     A
C277   H291    1.082   .     S
C277   C460    1.417   .     S
Cu279  O304    1.956   .     S
Cu279  Cu280   2.680   .     S
Cu279  N297    2.014   .     S
Cu279  O306    1.956   .     S
Cu279  O308    1.956   .     S
Cu279  O299    1.956   .     S
Cu280  O307    1.956   .     S
Cu280  N298    2.014   .     S
Cu280  O305    1.956   .     S
Cu280  O309    1.956   .     S
Cu280  O303    1.956   .     S
C311   O367    1.287   .     A
C311   O361    1.287   .     A
C311   C329    1.446   .     S
C312   C328    1.411   .     A
C312   C331    1.493   .     S
C312   C190    1.407   1_655 S
C313   C328    1.411   .     A
C313   C332    1.494   .     S
C313   C216    1.407   1_655 S
C314   C334    1.492   .     S
C314   C329    1.411   .     A
C315   C319    1.390   .     A
C315   H354    1.083   .     S
C315   C326    1.404   .     A
C316   C320    1.390   .     A
C316   H355    1.083   .     S
C316   C327    1.404   .     A
C317   C321    1.390   .     A
C317   H356    1.083   .     S
C317   C327    1.404   .     A
C318   C323    1.390   .     A
C318   H357    1.083   .     S
C318   C326    1.404   .     A
C319   C324    1.402   .     A
C319   H358    1.083   .     S
C320   H344    1.083   .     S
C320   C325    1.402   .     A
C321   H345    1.083   .     S
C321   C325    1.401   .     A
C322   O366    1.287   .     A
C322   O365    1.287   .     A
C322   C328    1.444   .     S
C323   C324    1.402   .     A
C323   H346    1.083   .     S
C324   C333    1.460   .     S
C325   C335    1.460   .     S
C326   C885    1.469   1_554 S
C327   C884    1.469   .     S
C329   C340    1.411   .     A
C330   H347    1.085   .     S
C330   O372    1.221   .     D
C330   C340    1.492   .     S
C331   O362    1.221   .     D
C331   H348    1.084   .     S
C332   H349    1.084   .     S
C332   O363    1.221   .     D
C333   O368    1.294   .     A
C333   O371    1.294   .     A
C334   H350    1.085   .     S
C334   O364    1.221   .     D
C335   O369    1.294   .     A
C335   O370    1.294   .     A
C336   H343    1.082   .     S
C336   N360    1.367   .     A
C337   H351    1.082   .     S
C337   N359    1.367   .     A
C337   C524    1.417   .     S
C338   N360    1.367   .     A
C338   H352    1.082   .     S
C339   N359    1.367   .     A
C339   H353    1.082   .     S
C339   C522    1.417   .     S
Cu341  O366    1.956   .     S
Cu341  Cu342   2.680   .     S
Cu341  N359    2.014   .     S
Cu341  O368    1.956   .     S
Cu341  O370    1.956   .     S
Cu341  O361    1.956   .     S
Cu342  O369    1.956   .     S
Cu342  N360    2.014   .     S
Cu342  O367    1.956   .     S
Cu342  O371    1.956   .     S
Cu342  O365    1.956   .     S
C373   O429    1.287   .     A
C373   O423    1.287   .     A
C373   C391    1.446   .     S
C374   C390    1.411   .     A
C374   C393    1.493   .     S
C374   C438    1.407   .     S
C375   C390    1.411   .     A
C375   C394    1.494   .     S
C375   C464    1.407   .     S
C376   C396    1.492   .     S
C376   C391    1.411   .     A
C376   C498    1.407   1_455 S
C377   C381    1.390   .     A
C377   H416    1.083   .     S
C377   C388    1.404   .     A
C378   C382    1.390   .     A
C378   H417    1.083   .     S
C378   C389    1.404   .     A
C379   C383    1.390   .     A
C379   H418    1.083   .     S
C379   C389    1.404   .     A
C380   C385    1.390   .     A
C380   H419    1.083   .     S
C380   C388    1.404   .     A
C381   C386    1.402   .     A
C381   H420    1.083   .     S
C382   H406    1.083   .     S
C382   C387    1.402   .     A
C383   H407    1.083   .     S
C383   C387    1.401   .     A
C384   O428    1.287   .     A
C384   O427    1.287   .     A
C384   C390    1.444   .     S
C385   C386    1.402   .     A
C385   H408    1.083   .     S
C386   C395    1.460   .     S
C387   C397    1.460   .     S
C388   C947    1.469   1_554 S
C389   C946    1.469   .     S
C391   C402    1.411   .     A
C392   H409    1.085   .     S
C392   O434    1.221   .     D
C392   C402    1.492   .     S
C393   O424    1.221   .     D
C393   H410    1.084   .     S
C394   H411    1.084   .     S
C394   O425    1.221   .     D
C395   O430    1.294   .     A
C395   O433    1.294   .     A
C396   H412    1.085   .     S
C396   O426    1.221   .     D
C397   O431    1.294   .     A
C397   O432    1.294   .     A
C398   H405    1.082   .     S
C398   N422    1.367   .     A
C399   H413    1.082   .     S
C399   N421    1.367   .     A
C399   C28     1.417   1_565 S
C400   N422    1.367   .     A
C400   H414    1.082   .     S
C401   N421    1.367   .     A
C401   H415    1.082   .     S
C401   C26     1.417   1_565 S
C402   C499    1.407   1_455 S
Cu403  O428    1.956   .     S
Cu403  Cu404   2.680   .     S
Cu403  N421    2.014   .     S
Cu403  O430    1.956   .     S
Cu403  O432    1.956   .     S
Cu403  O423    1.956   .     S
Cu404  O431    1.956   .     S
Cu404  N422    2.014   .     S
Cu404  O429    1.956   .     S
Cu404  O433    1.956   .     S
Cu404  O427    1.956   .     S
C435   O491    1.287   .     A
C435   O485    1.287   .     A
C435   C453    1.446   .     S
C436   C452    1.411   .     A
C436   C455    1.493   .     S
C436   C500    1.407   .     S
C437   C452    1.411   .     A
C437   C456    1.494   .     S
C437   C526    1.407   .     S
C438   C458    1.492   .     S
C438   C453    1.411   .     A
C439   C443    1.390   .     A
C439   H478    1.083   .     S
C439   C450    1.404   .     A
C440   C444    1.390   .     A
C440   H479    1.083   .     S
C440   C451    1.404   .     A
C441   C445    1.390   .     A
C441   H480    1.083   .     S
C441   C451    1.404   .     A
C442   C447    1.390   .     A
C442   H481    1.083   .     S
C442   C450    1.404   .     A
C443   C448    1.402   .     A
C443   H482    1.083   .     S
C444   H468    1.083   .     S
C444   C449    1.402   .     A
C445   H469    1.083   .     S
C445   C449    1.401   .     A
C446   O490    1.287   .     A
C446   O489    1.287   .     A
C446   C452    1.444   .     S
C447   C448    1.402   .     A
C447   H470    1.083   .     S
C448   C457    1.460   .     S
C449   C459    1.460   .     S
C450   C1009   1.469   1_554 S
C451   C1008   1.469   .     S
C453   C464    1.411   .     A
C454   H471    1.085   .     S
C454   O496    1.221   .     D
C454   C464    1.492   .     S
C455   O486    1.221   .     D
C455   H472    1.084   .     S
C456   H473    1.084   .     S
C456   O487    1.221   .     D
C457   O492    1.294   .     A
C457   O495    1.294   .     A
C458   H474    1.085   .     S
C458   O488    1.221   .     D
C459   O493    1.294   .     A
C459   O494    1.294   .     A
C460   H467    1.082   .     S
C460   N484    1.367   .     A
C461   H475    1.082   .     S
C461   N483    1.367   .     A
C461   C90     1.417   1_565 S
C462   N484    1.367   .     A
C462   H476    1.082   .     S
C463   N483    1.367   .     A
C463   H477    1.082   .     S
C463   C88     1.417   1_565 S
Cu465  O490    1.956   .     S
Cu465  Cu466   2.680   .     S
Cu465  N483    2.014   .     S
Cu465  O492    1.956   .     S
Cu465  O494    1.956   .     S
Cu465  O485    1.956   .     S
Cu466  O493    1.956   .     S
Cu466  N484    2.014   .     S
Cu466  O491    1.956   .     S
Cu466  O495    1.956   .     S
Cu466  O489    1.956   .     S
C497   O553    1.287   .     A
C497   O547    1.287   .     A
C497   C515    1.446   .     S
C498   C514    1.411   .     A
C498   C517    1.493   .     S
C498   C376    1.407   1_655 S
C499   C514    1.411   .     A
C499   C518    1.494   .     S
C499   C402    1.407   1_655 S
C500   C520    1.492   .     S
C500   C515    1.411   .     A
C501   C505    1.390   .     A
C501   H540    1.083   .     S
C501   C512    1.404   .     A
C502   C506    1.390   .     A
C502   H541    1.083   .     S
C502   C513    1.404   .     A
C503   C507    1.390   .     A
C503   H542    1.083   .     S
C503   C513    1.404   .     A
C504   C509    1.390   .     A
C504   H543    1.083   .     S
C504   C512    1.404   .     A
C505   C510    1.402   .     A
C505   H544    1.083   .     S
C506   H530    1.083   .     S
C506   C511    1.402   .     A
C507   H531    1.083   .     S
C507   C511    1.401   .     A
C508   O552    1.287   .     A
C508   O551    1.287   .     A
C508   C514    1.444   .     S
C509   C510    1.402   .     A
C509   H532    1.083   .     S
C510   C519    1.460   .     S
C511   C521    1.460   .     S
C512   C1071   1.469   1_554 S
C513   C1070   1.469   .     S
C515   C526    1.411   .     A
C516   H533    1.085   .     S
C516   O558    1.221   .     D
C516   C526    1.492   .     S
C517   O548    1.221   .     D
C517   H534    1.084   .     S
C518   H535    1.084   .     S
C518   O549    1.221   .     D
C519   O554    1.294   .     A
C519   O557    1.294   .     A
C520   H536    1.085   .     S
C520   O550    1.221   .     D
C521   O555    1.294   .     A
C521   O556    1.294   .     A
C522   H529    1.082   .     S
C522   N546    1.367   .     A
C523   H537    1.082   .     S
C523   N545    1.367   .     A
C523   C152    1.417   1_565 S
C524   N546    1.367   .     A
C524   H538    1.082   .     S
C525   N545    1.367   .     A
C525   H539    1.082   .     S
C525   C150    1.417   1_565 S
Cu527  O552    1.956   .     S
Cu527  Cu528   2.680   .     S
Cu527  N545    2.014   .     S
Cu527  O554    1.956   .     S
Cu527  O556    1.956   .     S
Cu527  O547    1.956   .     S
Cu528  O555    1.956   .     S
Cu528  N546    2.014   .     S
Cu528  O553    1.956   .     S
Cu528  O557    1.956   .     S
Cu528  O551    1.956   .     S
C559   O615    1.287   .     A
C559   O609    1.287   .     A
C559   C577    1.446   .     S
C560   C576    1.411   .     A
C560   C579    1.493   .     S
C560   C624    1.407   .     S
C561   C576    1.411   .     A
C561   C580    1.494   .     S
C561   C650    1.407   .     S
C562   C582    1.492   .     S
C562   C577    1.411   .     A
C562   C684    1.407   1_455 S
C563   C567    1.390   .     A
C563   H602    1.083   .     S
C563   C574    1.404   .     A
C564   C568    1.390   .     A
C564   H603    1.083   .     S
C564   C575    1.404   .     A
C565   C569    1.390   .     A
C565   H604    1.083   .     S
C565   C575    1.404   .     A
C566   C571    1.390   .     A
C566   H605    1.083   .     S
C566   C574    1.404   .     A
C567   C572    1.402   .     A
C567   H606    1.083   .     S
C568   H592    1.083   .     S
C568   C573    1.402   .     A
C569   H593    1.083   .     S
C569   C573    1.401   .     A
C570   O614    1.287   .     A
C570   O613    1.287   .     A
C570   C576    1.444   .     S
C571   C572    1.402   .     A
C571   H594    1.083   .     S
C572   C581    1.460   .     S
C573   C583    1.460   .     S
C575   C16     1.469   1_556 S
C577   C588    1.411   .     A
C578   H595    1.085   .     S
C578   O620    1.221   .     D
C578   C588    1.492   .     S
C579   O610    1.221   .     D
C579   H596    1.084   .     S
C580   H597    1.084   .     S
C580   O611    1.221   .     D
C581   O616    1.294   .     A
C581   O619    1.294   .     A
C582   H598    1.085   .     S
C582   O612    1.221   .     D
C583   O617    1.294   .     A
C583   O618    1.294   .     A
C584   H591    1.082   .     S
C584   N608    1.367   .     A
C584   C959    1.417   1_545 S
C585   H599    1.082   .     S
C585   N607    1.367   .     A
C585   C772    1.417   .     S
C586   N608    1.367   .     A
C586   H600    1.082   .     S
C586   C957    1.417   1_545 S
C587   N607    1.367   .     A
C587   H601    1.082   .     S
C587   C770    1.417   .     S
C588   C685    1.407   1_455 S
Cu589  O614    1.956   .     S
Cu589  Cu590   2.680   .     S
Cu589  N607    2.014   .     S
Cu589  O616    1.956   .     S
Cu589  O618    1.956   .     S
Cu589  O609    1.956   .     S
Cu590  O617    1.956   .     S
Cu590  N608    2.014   .     S
Cu590  O615    1.956   .     S
Cu590  O619    1.956   .     S
Cu590  O613    1.956   .     S
C621   O677    1.287   .     A
C621   O671    1.287   .     A
C621   C639    1.446   .     S
C622   C638    1.411   .     A
C622   C641    1.493   .     S
C622   C686    1.407   .     S
C623   C638    1.411   .     A
C623   C642    1.494   .     S
C623   C712    1.407   .     S
C624   C644    1.492   .     S
C624   C639    1.411   .     A
C625   C629    1.390   .     A
C625   H664    1.083   .     S
C625   C636    1.404   .     A
C626   C630    1.390   .     A
C626   H665    1.083   .     S
C626   C637    1.404   .     A
C627   C631    1.390   .     A
C627   H666    1.083   .     S
C627   C637    1.404   .     A
C628   C633    1.390   .     A
C628   H667    1.083   .     S
C628   C636    1.404   .     A
C629   C634    1.402   .     A
C629   H668    1.083   .     S
C630   H654    1.083   .     S
C630   C635    1.402   .     A
C631   H655    1.083   .     S
C631   C635    1.401   .     A
C632   O676    1.287   .     A
C632   O675    1.287   .     A
C632   C638    1.444   .     S
C633   C634    1.402   .     A
C633   H656    1.083   .     S
C634   C643    1.460   .     S
C635   C645    1.460   .     S
C637   C78     1.469   1_556 S
C639   C650    1.411   .     A
C640   H657    1.085   .     S
C640   O682    1.221   .     D
C640   C650    1.492   .     S
C641   O672    1.221   .     D
C641   H658    1.084   .     S
C642   H659    1.084   .     S
C642   O673    1.221   .     D
C643   O678    1.294   .     A
C643   O681    1.294   .     A
C644   H660    1.085   .     S
C644   O674    1.221   .     D
C645   O679    1.294   .     A
C645   O680    1.294   .     A
C646   H653    1.082   .     S
C646   N670    1.367   .     A
C646   C1021   1.417   1_545 S
C647   H661    1.082   .     S
C647   N669    1.367   .     A
C647   C834    1.417   .     S
C648   N670    1.367   .     A
C648   H662    1.082   .     S
C648   C1019   1.417   1_545 S
C649   N669    1.367   .     A
C649   H663    1.082   .     S
C649   C832    1.417   .     S
Cu651  O676    1.956   .     S
Cu651  Cu652   2.680   .     S
Cu651  N669    2.014   .     S
Cu651  O678    1.956   .     S
Cu651  O680    1.956   .     S
Cu651  O671    1.956   .     S
Cu652  O679    1.956   .     S
Cu652  N670    2.014   .     S
Cu652  O677    1.956   .     S
Cu652  O681    1.956   .     S
Cu652  O675    1.956   .     S
C683   O739    1.287   .     A
C683   O733    1.287   .     A
C683   C701    1.446   .     S
C684   C700    1.411   .     A
C684   C703    1.493   .     S
C684   C562    1.407   1_655 S
C685   C700    1.411   .     A
C685   C704    1.494   .     S
C685   C588    1.407   1_655 S
C686   C706    1.492   .     S
C686   C701    1.411   .     A
C687   C691    1.390   .     A
C687   H726    1.083   .     S
C687   C698    1.404   .     A
C688   C692    1.390   .     A
C688   H727    1.083   .     S
C688   C699    1.404   .     A
C689   C693    1.390   .     A
C689   H728    1.083   .     S
C689   C699    1.404   .     A
C690   C695    1.390   .     A
C690   H729    1.083   .     S
C690   C698    1.404   .     A
C691   C696    1.402   .     A
C691   H730    1.083   .     S
C692   H716    1.083   .     S
C692   C697    1.402   .     A
C693   H717    1.083   .     S
C693   C697    1.401   .     A
C694   O738    1.287   .     A
C694   O737    1.287   .     A
C694   C700    1.444   .     S
C695   C696    1.402   .     A
C695   H718    1.083   .     S
C696   C705    1.460   .     S
C697   C707    1.460   .     S
C699   C140    1.469   1_556 S
C701   C712    1.411   .     A
C702   H719    1.085   .     S
C702   O744    1.221   .     D
C702   C712    1.492   .     S
C703   O734    1.221   .     D
C703   H720    1.084   .     S
C704   H721    1.084   .     S
C704   O735    1.221   .     D
C705   O740    1.294   .     A
C705   O743    1.294   .     A
C706   H722    1.085   .     S
C706   O736    1.221   .     D
C707   O741    1.294   .     A
C707   O742    1.294   .     A
C708   H715    1.082   .     S
C708   N732    1.367   .     A
C708   C1083   1.417   1_545 S
C709   H723    1.082   .     S
C709   N731    1.367   .     A
C709   C896    1.417   .     S
C710   N732    1.367   .     A
C710   H724    1.082   .     S
C710   C1081   1.417   1_545 S
C711   N731    1.367   .     A
C711   H725    1.082   .     S
C711   C894    1.417   .     S
Cu713  O738    1.956   .     S
Cu713  Cu714   2.680   .     S
Cu713  N731    2.014   .     S
Cu713  O740    1.956   .     S
Cu713  O742    1.956   .     S
Cu713  O733    1.956   .     S
Cu714  O741    1.956   .     S
Cu714  N732    2.014   .     S
Cu714  O739    1.956   .     S
Cu714  O743    1.956   .     S
Cu714  O737    1.956   .     S
C745   O801    1.287   .     A
C745   O795    1.287   .     A
C745   C763    1.446   .     S
C746   C762    1.411   .     A
C746   C765    1.493   .     S
C746   C810    1.407   .     S
C747   C762    1.411   .     A
C747   C766    1.494   .     S
C747   C836    1.407   .     S
C748   C768    1.492   .     S
C748   C763    1.411   .     A
C748   C870    1.407   1_455 S
C749   C753    1.390   .     A
C749   H788    1.083   .     S
C749   C760    1.404   .     A
C750   C754    1.390   .     A
C750   H789    1.083   .     S
C750   C761    1.404   .     A
C751   C755    1.390   .     A
C751   H790    1.083   .     S
C751   C761    1.404   .     A
C752   C757    1.390   .     A
C752   H791    1.083   .     S
C752   C760    1.404   .     A
C753   C758    1.402   .     A
C753   H792    1.083   .     S
C754   H778    1.083   .     S
C754   C759    1.402   .     A
C755   H779    1.083   .     S
C755   C759    1.401   .     A
C756   O800    1.287   .     A
C756   O799    1.287   .     A
C756   C762    1.444   .     S
C757   C758    1.402   .     A
C757   H780    1.083   .     S
C758   C767    1.460   .     S
C759   C769    1.460   .     S
C761   C202    1.469   1_556 S
C763   C774    1.411   .     A
C764   H781    1.085   .     S
C764   O806    1.221   .     D
C764   C774    1.492   .     S
C765   O796    1.221   .     D
C765   H782    1.084   .     S
C766   H783    1.084   .     S
C766   O797    1.221   .     D
C767   O802    1.294   .     A
C767   O805    1.294   .     A
C768   H784    1.085   .     S
C768   O798    1.221   .     D
C769   O803    1.294   .     A
C769   O804    1.294   .     A
C770   H777    1.082   .     S
C770   N794    1.367   .     A
C771   H785    1.082   .     S
C771   N793    1.367   .     A
C771   C958    1.417   .     S
C772   N794    1.367   .     A
C772   H786    1.082   .     S
C773   N793    1.367   .     A
C773   H787    1.082   .     S
C773   C956    1.417   .     S
C774   C871    1.407   1_455 S
Cu775  O800    1.956   .     S
Cu775  Cu776   2.680   .     S
Cu775  N793    2.014   .     S
Cu775  O802    1.956   .     S
Cu775  O804    1.956   .     S
Cu775  O795    1.956   .     S
Cu776  O803    1.956   .     S
Cu776  N794    2.014   .     S
Cu776  O801    1.956   .     S
Cu776  O805    1.956   .     S
Cu776  O799    1.956   .     S
C807   O863    1.287   .     A
C807   O857    1.287   .     A
C807   C825    1.446   .     S
C808   C824    1.411   .     A
C808   C827    1.493   .     S
C808   C872    1.407   .     S
C809   C824    1.411   .     A
C809   C828    1.494   .     S
C809   C898    1.407   .     S
C810   C830    1.492   .     S
C810   C825    1.411   .     A
C811   C815    1.390   .     A
C811   H850    1.083   .     S
C811   C822    1.404   .     A
C812   C816    1.390   .     A
C812   H851    1.083   .     S
C812   C823    1.404   .     A
C813   C817    1.390   .     A
C813   H852    1.083   .     S
C813   C823    1.404   .     A
C814   C819    1.390   .     A
C814   H853    1.083   .     S
C814   C822    1.404   .     A
C815   C820    1.402   .     A
C815   H854    1.083   .     S
C816   H840    1.083   .     S
C816   C821    1.402   .     A
C817   H841    1.083   .     S
C817   C821    1.401   .     A
C818   O862    1.287   .     A
C818   O861    1.287   .     A
C818   C824    1.444   .     S
C819   C820    1.402   .     A
C819   H842    1.083   .     S
C820   C829    1.460   .     S
C821   C831    1.460   .     S
C823   C264    1.469   1_556 S
C825   C836    1.411   .     A
C826   H843    1.085   .     S
C826   O868    1.221   .     D
C826   C836    1.492   .     S
C827   O858    1.221   .     D
C827   H844    1.084   .     S
C828   H845    1.084   .     S
C828   O859    1.221   .     D
C829   O864    1.294   .     A
C829   O867    1.294   .     A
C830   H846    1.085   .     S
C830   O860    1.221   .     D
C831   O865    1.294   .     A
C831   O866    1.294   .     A
C832   H839    1.082   .     S
C832   N856    1.367   .     A
C833   H847    1.082   .     S
C833   N855    1.367   .     A
C833   C1020   1.417   .     S
C834   N856    1.367   .     A
C834   H848    1.082   .     S
C835   N855    1.367   .     A
C835   H849    1.082   .     S
C835   C1018   1.417   .     S
Cu837  O862    1.956   .     S
Cu837  Cu838   2.680   .     S
Cu837  N855    2.014   .     S
Cu837  O864    1.956   .     S
Cu837  O866    1.956   .     S
Cu837  O857    1.956   .     S
Cu838  O865    1.956   .     S
Cu838  N856    2.014   .     S
Cu838  O863    1.956   .     S
Cu838  O867    1.956   .     S
Cu838  O861    1.956   .     S
C869   O925    1.287   .     A
C869   O919    1.287   .     A
C869   C887    1.446   .     S
C870   C886    1.411   .     A
C870   C889    1.493   .     S
C870   C748    1.407   1_655 S
C871   C886    1.411   .     A
C871   C890    1.494   .     S
C871   C774    1.407   1_655 S
C872   C892    1.492   .     S
C872   C887    1.411   .     A
C873   C877    1.390   .     A
C873   H912    1.083   .     S
C873   C884    1.404   .     A
C874   C878    1.390   .     A
C874   H913    1.083   .     S
C874   C885    1.404   .     A
C875   C879    1.390   .     A
C875   H914    1.083   .     S
C875   C885    1.404   .     A
C876   C881    1.390   .     A
C876   H915    1.083   .     S
C876   C884    1.404   .     A
C877   C882    1.402   .     A
C877   H916    1.083   .     S
C878   H902    1.083   .     S
C878   C883    1.402   .     A
C879   H903    1.083   .     S
C879   C883    1.401   .     A
C880   O924    1.287   .     A
C880   O923    1.287   .     A
C880   C886    1.444   .     S
C881   C882    1.402   .     A
C881   H904    1.083   .     S
C882   C891    1.460   .     S
C883   C893    1.460   .     S
C885   C326    1.469   1_556 S
C887   C898    1.411   .     A
C888   H905    1.085   .     S
C888   O930    1.221   .     D
C888   C898    1.492   .     S
C889   O920    1.221   .     D
C889   H906    1.084   .     S
C890   H907    1.084   .     S
C890   O921    1.221   .     D
C891   O926    1.294   .     A
C891   O929    1.294   .     A
C892   H908    1.085   .     S
C892   O922    1.221   .     D
C893   O927    1.294   .     A
C893   O928    1.294   .     A
C894   H901    1.082   .     S
C894   N918    1.367   .     A
C895   H909    1.082   .     S
C895   N917    1.367   .     A
C895   C1082   1.417   .     S
C896   N918    1.367   .     A
C896   H910    1.082   .     S
C897   N917    1.367   .     A
C897   H911    1.082   .     S
C897   C1080   1.417   .     S
Cu899  O924    1.956   .     S
Cu899  Cu900   2.680   .     S
Cu899  N917    2.014   .     S
Cu899  O926    1.956   .     S
Cu899  O928    1.956   .     S
Cu899  O919    1.956   .     S
Cu900  O927    1.956   .     S
Cu900  N918    2.014   .     S
Cu900  O925    1.956   .     S
Cu900  O929    1.956   .     S
Cu900  O923    1.956   .     S
C931   O987    1.287   .     A
C931   O981    1.287   .     A
C931   C949    1.446   .     S
C932   C948    1.411   .     A
C932   C951    1.493   .     S
C932   C996    1.407   .     S
C933   C948    1.411   .     A
C933   C952    1.494   .     S
C933   C1022   1.407   .     S
C934   C954    1.492   .     S
C934   C949    1.411   .     A
C934   C1056   1.407   1_455 S
C935   C939    1.390   .     A
C935   H974    1.083   .     S
C935   C946    1.404   .     A
C936   C940    1.390   .     A
C936   H975    1.083   .     S
C936   C947    1.404   .     A
C937   C941    1.390   .     A
C937   H976    1.083   .     S
C937   C947    1.404   .     A
C938   C943    1.390   .     A
C938   H977    1.083   .     S
C938   C946    1.404   .     A
C939   C944    1.402   .     A
C939   H978    1.083   .     S
C940   H964    1.083   .     S
C940   C945    1.402   .     A
C941   H965    1.083   .     S
C941   C945    1.401   .     A
C942   O986    1.287   .     A
C942   O985    1.287   .     A
C942   C948    1.444   .     S
C943   C944    1.402   .     A
C943   H966    1.083   .     S
C944   C953    1.460   .     S
C945   C955    1.460   .     S
C947   C388    1.469   1_556 S
C949   C960    1.411   .     A
C950   H967    1.085   .     S
C950   O992    1.221   .     D
C950   C960    1.492   .     S
C951   O982    1.221   .     D
C951   H968    1.084   .     S
C952   H969    1.084   .     S
C952   O983    1.221   .     D
C953   O988    1.294   .     A
C953   O991    1.294   .     A
C954   H970    1.085   .     S
C954   O984    1.221   .     D
C955   O989    1.294   .     A
C955   O990    1.294   .     A
C956   H963    1.082   .     S
C956   N980    1.367   .     A
C957   H971    1.082   .     S
C957   N979    1.367   .     A
C957   C586    1.417   1_565 S
C958   N980    1.367   .     A
C958   H972    1.082   .     S
C959   N979    1.367   .     A
C959   H973    1.082   .     S
C959   C584    1.417   1_565 S
C960   C1057   1.407   1_455 S
Cu961  O986    1.956   .     S
Cu961  Cu962   2.680   .     S
Cu961  N979    2.014   .     S
Cu961  O988    1.956   .     S
Cu961  O990    1.956   .     S
Cu961  O981    1.956   .     S
Cu962  O989    1.956   .     S
Cu962  N980    2.014   .     S
Cu962  O987    1.956   .     S
Cu962  O991    1.956   .     S
Cu962  O985    1.956   .     S
C993   O1049   1.287   .     A
C993   O1043   1.287   .     A
C993   C1011   1.446   .     S
C994   C1010   1.411   .     A
C994   C1013   1.493   .     S
C994   C1058   1.407   .     S
C995   C1010   1.411   .     A
C995   C1014   1.494   .     S
C995   C1084   1.407   .     S
C996   C1016   1.492   .     S
C996   C1011   1.411   .     A
C997   C1001   1.390   .     A
C997   H1036   1.083   .     S
C997   C1008   1.404   .     A
C998   C1002   1.390   .     A
C998   H1037   1.083   .     S
C998   C1009   1.404   .     A
C999   C1003   1.390   .     A
C999   H1038   1.083   .     S
C999   C1009   1.404   .     A
C1000  C1005   1.390   .     A
C1000  H1039   1.083   .     S
C1000  C1008   1.404   .     A
C1001  C1006   1.402   .     A
C1001  H1040   1.083   .     S
C1002  H1026   1.083   .     S
C1002  C1007   1.402   .     A
C1003  H1027   1.083   .     S
C1003  C1007   1.401   .     A
C1004  O1048   1.287   .     A
C1004  O1047   1.287   .     A
C1004  C1010   1.444   .     S
C1005  C1006   1.402   .     A
C1005  H1028   1.083   .     S
C1006  C1015   1.460   .     S
C1007  C1017   1.460   .     S
C1009  C450    1.469   1_556 S
C1011  C1022   1.411   .     A
C1012  H1029   1.085   .     S
C1012  O1054   1.221   .     D
C1012  C1022   1.492   .     S
C1013  O1044   1.221   .     D
C1013  H1030   1.084   .     S
C1014  H1031   1.084   .     S
C1014  O1045   1.221   .     D
C1015  O1050   1.294   .     A
C1015  O1053   1.294   .     A
C1016  H1032   1.085   .     S
C1016  O1046   1.221   .     D
C1017  O1051   1.294   .     A
C1017  O1052   1.294   .     A
C1018  H1025   1.082   .     S
C1018  N1042   1.367   .     A
C1019  H1033   1.082   .     S
C1019  N1041   1.367   .     A
C1019  C648    1.417   1_565 S
C1020  N1042   1.367   .     A
C1020  H1034   1.082   .     S
C1021  N1041   1.367   .     A
C1021  H1035   1.082   .     S
C1021  C646    1.417   1_565 S
Cu1023 O1048   1.956   .     S
Cu1023 Cu1024  2.680   .     S
Cu1023 N1041   2.014   .     S
Cu1023 O1050   1.956   .     S
Cu1023 O1052   1.956   .     S
Cu1023 O1043   1.956   .     S
Cu1024 O1051   1.956   .     S
Cu1024 N1042   2.014   .     S
Cu1024 O1049   1.956   .     S
Cu1024 O1053   1.956   .     S
Cu1024 O1047   1.956   .     S
C1055  O1111   1.287   .     A
C1055  O1105   1.287   .     A
C1055  C1073   1.446   .     S
C1056  C1072   1.411   .     A
C1056  C1075   1.493   .     S
C1056  C934    1.407   1_655 S
C1057  C1072   1.411   .     A
C1057  C1076   1.494   .     S
C1057  C960    1.407   1_655 S
C1058  C1078   1.492   .     S
C1058  C1073   1.411   .     A
C1059  C1063   1.390   .     A
C1059  H1098   1.083   .     S
C1059  C1070   1.404   .     A
C1060  C1064   1.390   .     A
C1060  H1099   1.083   .     S
C1060  C1071   1.404   .     A
C1061  C1065   1.390   .     A
C1061  H1100   1.083   .     S
C1061  C1071   1.404   .     A
C1062  C1067   1.390   .     A
C1062  H1101   1.083   .     S
C1062  C1070   1.404   .     A
C1063  C1068   1.402   .     A
C1063  H1102   1.083   .     S
C1064  H1088   1.083   .     S
C1064  C1069   1.402   .     A
C1065  H1089   1.083   .     S
C1065  C1069   1.401   .     A
C1066  O1110   1.287   .     A
C1066  O1109   1.287   .     A
C1066  C1072   1.444   .     S
C1067  C1068   1.402   .     A
C1067  H1090   1.083   .     S
C1068  C1077   1.460   .     S
C1069  C1079   1.460   .     S
C1071  C512    1.469   1_556 S
C1073  C1084   1.411   .     A
C1074  H1091   1.085   .     S
C1074  O1116   1.221   .     D
C1074  C1084   1.492   .     S
C1075  O1106   1.221   .     D
C1075  H1092   1.084   .     S
C1076  H1093   1.084   .     S
C1076  O1107   1.221   .     D
C1077  O1112   1.294   .     A
C1077  O1115   1.294   .     A
C1078  H1094   1.085   .     S
C1078  O1108   1.221   .     D
C1079  O1113   1.294   .     A
C1079  O1114   1.294   .     A
C1080  H1087   1.082   .     S
C1080  N1104   1.367   .     A
C1081  H1095   1.082   .     S
C1081  N1103   1.367   .     A
C1081  C710    1.417   1_565 S
C1082  N1104   1.367   .     A
C1082  H1096   1.082   .     S
C1083  N1103   1.367   .     A
C1083  H1097   1.082   .     S
C1083  C708    1.417   1_565 S
Cu1085 O1110   1.956   .     S
Cu1085 Cu1086  2.680   .     S
Cu1085 N1103   2.014   .     S
Cu1085 O1112   1.956   .     S
Cu1085 O1114   1.956   .     S
Cu1085 O1105   1.956   .     S
Cu1086 O1113   1.956   .     S
Cu1086 N1104   2.014   .     S
Cu1086 O1111   1.956   .     S
Cu1086 O1115   1.956   .     S
Cu1086 O1109   1.956   .     S
