data_str_m2_o10_o17_pcu_sym.29
_audit_creation_date              2020-01-03
_audit_creation_method            'Materials Studio'
_symmetry_space_group_name_H-M    'P1'
_symmetry_Int_Tables_number       1
_symmetry_cell_setting            triclinic
loop_
_symmetry_equiv_pos_as_xyz
  x,y,z
_cell_length_a                    29.5930
_cell_length_b                    26.5585
_cell_length_c                    22.6371
_cell_angle_alpha                 101.9724
_cell_angle_beta                  98.6754
_cell_angle_gamma                 89.7491
loop_
_atom_site_label
_atom_site_type_symbol
_atom_site_fract_x
_atom_site_fract_y
_atom_site_fract_z
_atom_site_U_iso_or_equiv
_atom_site_adp_type
_atom_site_occupancy
C1     C     0.24848   0.06684   0.15152   0.00000  Uiso   1.00
C2     C     0.08744   0.14317   0.11484   0.00000  Uiso   1.00
C3     C     0.38516   0.15477   0.17278   0.00000  Uiso   1.00
C4     C     0.11484   0.17857   0.16055   0.00000  Uiso   1.00
C5     C     0.40648   0.11284   0.13842   0.00000  Uiso   1.00
C6     C     0.09352   0.22049   0.19492   0.00000  Uiso   1.00
C7     C     0.45466   0.11591   0.14222   0.00000  Uiso   1.00
C8     C     0.04534   0.21742   0.19111   0.00000  Uiso   1.00
C9     C     0.47722   0.16300   0.16994   0.00000  Uiso   1.00
C10    C     0.02278   0.17034   0.16340   0.00000  Uiso   1.00
C11    C     0.45594   0.20103   0.20808   0.00000  Uiso   1.00
C12    C     0.25152   0.26649   0.18181   0.00000  Uiso   1.00
C13    C     0.04406   0.13230   0.12526   0.00000  Uiso   1.00
C14    C     0.48326   0.07416   0.12788   0.00000  Uiso   1.00
C15    C     0.01674   0.25917   0.20546   0.00000  Uiso   1.00
C16    C     0.37875   0.06643   0.10127   0.00000  Uiso   1.00
C17    C     0.12125   0.26691   0.23206   0.00000  Uiso   1.00
C18    C     0.02209   0.08385   0.10242   0.00000  Uiso   1.00
C19    C     0.47791   0.24949   0.23091   0.00000  Uiso   1.00
C20    C     0.24649   0.01136   0.14292   0.00000  Uiso   1.00
C21    C     0.25351   0.32198   0.19041   0.00000  Uiso   1.00
C22    C     0.16443   0.17249   0.16572   0.00000  Uiso   1.00
C23    C     0.33557   0.16084   0.16761   0.00000  Uiso   1.00
C24    C     0.41256   0.19017   0.21849   0.00000  Uiso   1.00
Cu25   Cu    0.25500   0.17246   0.22813   0.00000  Uiso   1.00
Cu26   Cu    0.24499   0.16087   0.10521   0.00000  Uiso   1.00
H27    H     0.23887   0.32223   0.09651   0.00000  Uiso   1.00
H28    H     0.26113   0.01111   0.23683   0.00000  Uiso   1.00
H29    H     0.40052   0.03654   0.07878   0.00000  Uiso   1.00
H30    H     0.35992   0.04915   0.13141   0.00000  Uiso   1.00
H31    H     0.35386   0.07803   0.06502   0.00000  Uiso   1.00
H32    H     0.09947   0.29679   0.25455   0.00000  Uiso   1.00
H33    H     0.14614   0.25531   0.26832   0.00000  Uiso   1.00
H34    H     0.14008   0.28419   0.20193   0.00000  Uiso   1.00
I35    I     0.41027   0.18425   0.31026   0.00000  Uiso   1.00
I36    I     0.08973   0.14908   0.02307   0.00000  Uiso   1.00
I37    I     0.01045   0.05949   0.21586   0.00000  Uiso   1.00
I38    I     0.48954   0.27384   0.11747   0.00000  Uiso   1.00
I39    I     0.05774   0.02232   0.05447   0.00000  Uiso   1.00
I40    I     0.44226   0.31102   0.27887   0.00000  Uiso   1.00
I41    I     0.19409   0.09107   0.29790   0.00000  Uiso   1.00
I42    I     0.30591   0.24227   0.03543   0.00000  Uiso   1.00
N43    N     0.23744   0.15214   0.01284   0.00000  Uiso   1.00
N44    N     0.26255   0.18119   0.32049   0.00000  Uiso   1.00
O45    O     0.25325   0.09538   0.20659   0.00000  Uiso   1.00
O46    O     0.24674   0.23796   0.12674   0.00000  Uiso   1.00
O47    O     0.24480   0.08559   0.10279   0.00000  Uiso   1.00
O48    O     0.25520   0.24774   0.23055   0.00000  Uiso   1.00
O49    O     0.18935   0.17155   0.21857   0.00000  Uiso   1.00
O50    O     0.31064   0.16179   0.11476   0.00000  Uiso   1.00
O51    O     0.18090   0.16176   0.11477   0.00000  Uiso   1.00
O52    O     0.31910   0.17157   0.21857   0.00000  Uiso   1.00
C53    C     0.74848   0.06684   0.15152   0.00000  Uiso   1.00
C54    C     0.58744   0.14317   0.11484   0.00000  Uiso   1.00
C55    C     0.88516   0.15477   0.17278   0.00000  Uiso   1.00
C56    C     0.61484   0.17857   0.16055   0.00000  Uiso   1.00
C57    C     0.90648   0.11284   0.13842   0.00000  Uiso   1.00
C58    C     0.59352   0.22049   0.19492   0.00000  Uiso   1.00
C59    C     0.95466   0.11591   0.14222   0.00000  Uiso   1.00
C60    C     0.54534   0.21742   0.19111   0.00000  Uiso   1.00
C61    C     0.97722   0.16300   0.16994   0.00000  Uiso   1.00
C62    C     0.52278   0.17034   0.16340   0.00000  Uiso   1.00
C63    C     0.95594   0.20103   0.20808   0.00000  Uiso   1.00
C64    C     0.75152   0.26649   0.18181   0.00000  Uiso   1.00
C65    C     0.54406   0.13230   0.12526   0.00000  Uiso   1.00
C66    C     0.98326   0.07416   0.12788   0.00000  Uiso   1.00
C67    C     0.51674   0.25917   0.20546   0.00000  Uiso   1.00
C68    C     0.87875   0.06643   0.10127   0.00000  Uiso   1.00
C69    C     0.62125   0.26691   0.23206   0.00000  Uiso   1.00
C70    C     0.52209   0.08385   0.10242   0.00000  Uiso   1.00
C71    C     0.97791   0.24949   0.23091   0.00000  Uiso   1.00
C72    C     0.74649   0.01136   0.14292   0.00000  Uiso   1.00
C73    C     0.75351   0.32198   0.19041   0.00000  Uiso   1.00
C74    C     0.66443   0.17249   0.16572   0.00000  Uiso   1.00
C75    C     0.83557   0.16084   0.16761   0.00000  Uiso   1.00
C76    C     0.91256   0.19017   0.21849   0.00000  Uiso   1.00
Cu77   Cu    0.75500   0.17246   0.22813   0.00000  Uiso   1.00
Cu78   Cu    0.74499   0.16087   0.10521   0.00000  Uiso   1.00
H79    H     0.73887   0.32223   0.09651   0.00000  Uiso   1.00
H80    H     0.76113   0.01111   0.23683   0.00000  Uiso   1.00
H81    H     0.90052   0.03654   0.07878   0.00000  Uiso   1.00
H82    H     0.85992   0.04915   0.13141   0.00000  Uiso   1.00
H83    H     0.85386   0.07803   0.06502   0.00000  Uiso   1.00
H84    H     0.59947   0.29679   0.25455   0.00000  Uiso   1.00
H85    H     0.64614   0.25531   0.26832   0.00000  Uiso   1.00
H86    H     0.64008   0.28419   0.20193   0.00000  Uiso   1.00
I87    I     0.91027   0.18425   0.31026   0.00000  Uiso   1.00
I88    I     0.58973   0.14908   0.02307   0.00000  Uiso   1.00
I89    I     0.51045   0.05949   0.21586   0.00000  Uiso   1.00
I90    I     0.98954   0.27384   0.11747   0.00000  Uiso   1.00
I91    I     0.55774   0.02232   0.05447   0.00000  Uiso   1.00
I92    I     0.94226   0.31102   0.27887   0.00000  Uiso   1.00
I93    I     0.69409   0.09107   0.29790   0.00000  Uiso   1.00
I94    I     0.80591   0.24227   0.03543   0.00000  Uiso   1.00
N95    N     0.73744   0.15214   0.01284   0.00000  Uiso   1.00
N96    N     0.76255   0.18119   0.32049   0.00000  Uiso   1.00
O97    O     0.75325   0.09538   0.20659   0.00000  Uiso   1.00
O98    O     0.74674   0.23796   0.12674   0.00000  Uiso   1.00
O99    O     0.74480   0.08559   0.10279   0.00000  Uiso   1.00
O100   O     0.75520   0.24774   0.23055   0.00000  Uiso   1.00
O101   O     0.68935   0.17155   0.21857   0.00000  Uiso   1.00
O102   O     0.81064   0.16179   0.11476   0.00000  Uiso   1.00
O103   O     0.68090   0.16176   0.11477   0.00000  Uiso   1.00
O104   O     0.81910   0.17157   0.21857   0.00000  Uiso   1.00
C105   C     0.24848   0.40018   0.15152   0.00000  Uiso   1.00
C106   C     0.08744   0.47650   0.11484   0.00000  Uiso   1.00
C107   C     0.38516   0.48810   0.17278   0.00000  Uiso   1.00
C108   C     0.11484   0.51190   0.16055   0.00000  Uiso   1.00
C109   C     0.40648   0.44617   0.13842   0.00000  Uiso   1.00
C110   C     0.09352   0.55383   0.19492   0.00000  Uiso   1.00
C111   C     0.45466   0.44925   0.14222   0.00000  Uiso   1.00
C112   C     0.04534   0.55075   0.19111   0.00000  Uiso   1.00
C113   C     0.47722   0.49633   0.16994   0.00000  Uiso   1.00
C114   C     0.02278   0.50367   0.16340   0.00000  Uiso   1.00
C115   C     0.45594   0.53436   0.20808   0.00000  Uiso   1.00
C116   C     0.25152   0.59982   0.18181   0.00000  Uiso   1.00
C117   C     0.04406   0.46564   0.12526   0.00000  Uiso   1.00
C118   C     0.48326   0.40750   0.12788   0.00000  Uiso   1.00
C119   C     0.01674   0.59250   0.20546   0.00000  Uiso   1.00
C120   C     0.37875   0.39976   0.10127   0.00000  Uiso   1.00
C121   C     0.12125   0.60024   0.23206   0.00000  Uiso   1.00
C122   C     0.02209   0.41718   0.10242   0.00000  Uiso   1.00
C123   C     0.47791   0.58282   0.23091   0.00000  Uiso   1.00
C124   C     0.24649   0.34469   0.14292   0.00000  Uiso   1.00
C125   C     0.25351   0.65531   0.19041   0.00000  Uiso   1.00
C126   C     0.16443   0.50583   0.16572   0.00000  Uiso   1.00
C127   C     0.33557   0.49417   0.16761   0.00000  Uiso   1.00
C128   C     0.41256   0.52350   0.21849   0.00000  Uiso   1.00
Cu129  Cu    0.25500   0.50579   0.22813   0.00000  Uiso   1.00
Cu130  Cu    0.24499   0.49421   0.10521   0.00000  Uiso   1.00
H131   H     0.23887   0.65556   0.09651   0.00000  Uiso   1.00
H132   H     0.26113   0.34444   0.23683   0.00000  Uiso   1.00
H133   H     0.40052   0.36987   0.07878   0.00000  Uiso   1.00
H134   H     0.35992   0.38248   0.13141   0.00000  Uiso   1.00
H135   H     0.35386   0.41136   0.06502   0.00000  Uiso   1.00
H136   H     0.09947   0.63013   0.25455   0.00000  Uiso   1.00
H137   H     0.14614   0.58864   0.26832   0.00000  Uiso   1.00
H138   H     0.14008   0.61752   0.20193   0.00000  Uiso   1.00
I139   I     0.41027   0.51759   0.31026   0.00000  Uiso   1.00
I140   I     0.08973   0.48241   0.02307   0.00000  Uiso   1.00
I141   I     0.01045   0.39283   0.21586   0.00000  Uiso   1.00
I142   I     0.48954   0.60717   0.11747   0.00000  Uiso   1.00
I143   I     0.05774   0.35565   0.05447   0.00000  Uiso   1.00
I144   I     0.44226   0.64435   0.27887   0.00000  Uiso   1.00
I145   I     0.19409   0.42440   0.29790   0.00000  Uiso   1.00
I146   I     0.30591   0.57560   0.03543   0.00000  Uiso   1.00
N147   N     0.23744   0.48547   0.01284   0.00000  Uiso   1.00
N148   N     0.26255   0.51453   0.32049   0.00000  Uiso   1.00
O149   O     0.25325   0.42871   0.20659   0.00000  Uiso   1.00
O150   O     0.24674   0.57129   0.12674   0.00000  Uiso   1.00
O151   O     0.24480   0.41892   0.10279   0.00000  Uiso   1.00
O152   O     0.25520   0.58108   0.23055   0.00000  Uiso   1.00
O153   O     0.18935   0.50488   0.21857   0.00000  Uiso   1.00
O154   O     0.31064   0.49512   0.11476   0.00000  Uiso   1.00
O155   O     0.18090   0.49510   0.11477   0.00000  Uiso   1.00
O156   O     0.31910   0.50490   0.21857   0.00000  Uiso   1.00
C157   C     0.74848   0.40018   0.15152   0.00000  Uiso   1.00
C158   C     0.58744   0.47650   0.11484   0.00000  Uiso   1.00
C159   C     0.88516   0.48810   0.17278   0.00000  Uiso   1.00
C160   C     0.61484   0.51190   0.16055   0.00000  Uiso   1.00
C161   C     0.90648   0.44617   0.13842   0.00000  Uiso   1.00
C162   C     0.59352   0.55383   0.19492   0.00000  Uiso   1.00
C163   C     0.95466   0.44925   0.14222   0.00000  Uiso   1.00
C164   C     0.54534   0.55075   0.19111   0.00000  Uiso   1.00
C165   C     0.97722   0.49633   0.16994   0.00000  Uiso   1.00
C166   C     0.52278   0.50367   0.16340   0.00000  Uiso   1.00
C167   C     0.95594   0.53436   0.20808   0.00000  Uiso   1.00
C168   C     0.75152   0.59982   0.18181   0.00000  Uiso   1.00
C169   C     0.54406   0.46564   0.12526   0.00000  Uiso   1.00
C170   C     0.98326   0.40750   0.12788   0.00000  Uiso   1.00
C171   C     0.51674   0.59250   0.20546   0.00000  Uiso   1.00
C172   C     0.87875   0.39976   0.10127   0.00000  Uiso   1.00
C173   C     0.62125   0.60024   0.23206   0.00000  Uiso   1.00
C174   C     0.52209   0.41718   0.10242   0.00000  Uiso   1.00
C175   C     0.97791   0.58282   0.23091   0.00000  Uiso   1.00
C176   C     0.74649   0.34469   0.14292   0.00000  Uiso   1.00
C177   C     0.75351   0.65531   0.19041   0.00000  Uiso   1.00
C178   C     0.66443   0.50583   0.16572   0.00000  Uiso   1.00
C179   C     0.83557   0.49417   0.16761   0.00000  Uiso   1.00
C180   C     0.91256   0.52350   0.21849   0.00000  Uiso   1.00
Cu181  Cu    0.75500   0.50579   0.22813   0.00000  Uiso   1.00
Cu182  Cu    0.74499   0.49421   0.10521   0.00000  Uiso   1.00
H183   H     0.73887   0.65556   0.09651   0.00000  Uiso   1.00
H184   H     0.76113   0.34444   0.23683   0.00000  Uiso   1.00
H185   H     0.90052   0.36987   0.07878   0.00000  Uiso   1.00
H186   H     0.85992   0.38248   0.13141   0.00000  Uiso   1.00
H187   H     0.85386   0.41136   0.06502   0.00000  Uiso   1.00
H188   H     0.59947   0.63013   0.25455   0.00000  Uiso   1.00
H189   H     0.64614   0.58864   0.26832   0.00000  Uiso   1.00
H190   H     0.64008   0.61752   0.20193   0.00000  Uiso   1.00
I191   I     0.91027   0.51759   0.31026   0.00000  Uiso   1.00
I192   I     0.58973   0.48241   0.02307   0.00000  Uiso   1.00
I193   I     0.51045   0.39283   0.21586   0.00000  Uiso   1.00
I194   I     0.98954   0.60717   0.11747   0.00000  Uiso   1.00
I195   I     0.55774   0.35565   0.05447   0.00000  Uiso   1.00
I196   I     0.94226   0.64435   0.27887   0.00000  Uiso   1.00
I197   I     0.69409   0.42440   0.29790   0.00000  Uiso   1.00
I198   I     0.80591   0.57560   0.03543   0.00000  Uiso   1.00
N199   N     0.73744   0.48547   0.01284   0.00000  Uiso   1.00
N200   N     0.76255   0.51453   0.32049   0.00000  Uiso   1.00
O201   O     0.75325   0.42871   0.20659   0.00000  Uiso   1.00
O202   O     0.74674   0.57129   0.12674   0.00000  Uiso   1.00
O203   O     0.74480   0.41892   0.10279   0.00000  Uiso   1.00
O204   O     0.75520   0.58108   0.23055   0.00000  Uiso   1.00
O205   O     0.68935   0.50488   0.21857   0.00000  Uiso   1.00
O206   O     0.81064   0.49512   0.11476   0.00000  Uiso   1.00
O207   O     0.68090   0.49510   0.11477   0.00000  Uiso   1.00
O208   O     0.81910   0.50490   0.21857   0.00000  Uiso   1.00
C209   C     0.24848   0.73351   0.15152   0.00000  Uiso   1.00
C210   C     0.08744   0.80984   0.11484   0.00000  Uiso   1.00
C211   C     0.38516   0.82143   0.17278   0.00000  Uiso   1.00
C212   C     0.11484   0.84523   0.16055   0.00000  Uiso   1.00
C213   C     0.40648   0.77951   0.13842   0.00000  Uiso   1.00
C214   C     0.09352   0.88716   0.19492   0.00000  Uiso   1.00
C215   C     0.45466   0.78258   0.14222   0.00000  Uiso   1.00
C216   C     0.04534   0.88409   0.19111   0.00000  Uiso   1.00
C217   C     0.47722   0.82966   0.16994   0.00000  Uiso   1.00
C218   C     0.02278   0.83701   0.16340   0.00000  Uiso   1.00
C219   C     0.45594   0.86770   0.20808   0.00000  Uiso   1.00
C220   C     0.25152   0.93316   0.18181   0.00000  Uiso   1.00
C221   C     0.04406   0.79897   0.12526   0.00000  Uiso   1.00
C222   C     0.48326   0.74083   0.12788   0.00000  Uiso   1.00
C223   C     0.01674   0.92584   0.20546   0.00000  Uiso   1.00
C224   C     0.37875   0.73309   0.10127   0.00000  Uiso   1.00
C225   C     0.12125   0.93357   0.23206   0.00000  Uiso   1.00
C226   C     0.02209   0.75051   0.10242   0.00000  Uiso   1.00
C227   C     0.47791   0.91615   0.23091   0.00000  Uiso   1.00
C228   C     0.24649   0.67802   0.14292   0.00000  Uiso   1.00
C229   C     0.25351   0.98864   0.19041   0.00000  Uiso   1.00
C230   C     0.16443   0.83916   0.16572   0.00000  Uiso   1.00
C231   C     0.33557   0.82751   0.16761   0.00000  Uiso   1.00
C232   C     0.41256   0.85683   0.21849   0.00000  Uiso   1.00
Cu233  Cu    0.25500   0.83913   0.22813   0.00000  Uiso   1.00
Cu234  Cu    0.24499   0.82754   0.10521   0.00000  Uiso   1.00
H235   H     0.23887   0.98889   0.09651   0.00000  Uiso   1.00
H236   H     0.26113   0.67777   0.23683   0.00000  Uiso   1.00
H237   H     0.40052   0.70321   0.07878   0.00000  Uiso   1.00
H238   H     0.35992   0.71581   0.13141   0.00000  Uiso   1.00
H239   H     0.35386   0.74469   0.06502   0.00000  Uiso   1.00
H240   H     0.09947   0.96346   0.25455   0.00000  Uiso   1.00
H241   H     0.14614   0.92197   0.26832   0.00000  Uiso   1.00
H242   H     0.14008   0.95085   0.20193   0.00000  Uiso   1.00
I243   I     0.41027   0.85092   0.31026   0.00000  Uiso   1.00
I244   I     0.08973   0.81575   0.02307   0.00000  Uiso   1.00
I245   I     0.01045   0.72616   0.21586   0.00000  Uiso   1.00
I246   I     0.48954   0.94051   0.11747   0.00000  Uiso   1.00
I247   I     0.05774   0.68898   0.05447   0.00000  Uiso   1.00
I248   I     0.44226   0.97768   0.27887   0.00000  Uiso   1.00
I249   I     0.19409   0.75773   0.29790   0.00000  Uiso   1.00
I250   I     0.30591   0.90893   0.03543   0.00000  Uiso   1.00
N251   N     0.23744   0.81881   0.01284   0.00000  Uiso   1.00
N252   N     0.26255   0.84786   0.32049   0.00000  Uiso   1.00
O253   O     0.25325   0.76204   0.20659   0.00000  Uiso   1.00
O254   O     0.24674   0.90462   0.12674   0.00000  Uiso   1.00
O255   O     0.24480   0.75226   0.10279   0.00000  Uiso   1.00
O256   O     0.25520   0.91441   0.23055   0.00000  Uiso   1.00
O257   O     0.18935   0.83821   0.21857   0.00000  Uiso   1.00
O258   O     0.31064   0.82845   0.11476   0.00000  Uiso   1.00
O259   O     0.18090   0.82843   0.11477   0.00000  Uiso   1.00
O260   O     0.31910   0.83824   0.21857   0.00000  Uiso   1.00
C261   C     0.74848   0.73351   0.15152   0.00000  Uiso   1.00
C262   C     0.58744   0.80984   0.11484   0.00000  Uiso   1.00
C263   C     0.88516   0.82143   0.17278   0.00000  Uiso   1.00
C264   C     0.61484   0.84523   0.16055   0.00000  Uiso   1.00
C265   C     0.90648   0.77951   0.13842   0.00000  Uiso   1.00
C266   C     0.59352   0.88716   0.19492   0.00000  Uiso   1.00
C267   C     0.95466   0.78258   0.14222   0.00000  Uiso   1.00
C268   C     0.54534   0.88409   0.19111   0.00000  Uiso   1.00
C269   C     0.97722   0.82966   0.16994   0.00000  Uiso   1.00
C270   C     0.52278   0.83701   0.16340   0.00000  Uiso   1.00
C271   C     0.95594   0.86770   0.20808   0.00000  Uiso   1.00
C272   C     0.75152   0.93316   0.18181   0.00000  Uiso   1.00
C273   C     0.54406   0.79897   0.12526   0.00000  Uiso   1.00
C274   C     0.98326   0.74083   0.12788   0.00000  Uiso   1.00
C275   C     0.51674   0.92584   0.20546   0.00000  Uiso   1.00
C276   C     0.87875   0.73309   0.10127   0.00000  Uiso   1.00
C277   C     0.62125   0.93357   0.23206   0.00000  Uiso   1.00
C278   C     0.52209   0.75051   0.10242   0.00000  Uiso   1.00
C279   C     0.97791   0.91615   0.23091   0.00000  Uiso   1.00
C280   C     0.74649   0.67802   0.14292   0.00000  Uiso   1.00
C281   C     0.75351   0.98864   0.19041   0.00000  Uiso   1.00
C282   C     0.66443   0.83916   0.16572   0.00000  Uiso   1.00
C283   C     0.83557   0.82751   0.16761   0.00000  Uiso   1.00
C284   C     0.91256   0.85683   0.21849   0.00000  Uiso   1.00
Cu285  Cu    0.75500   0.83913   0.22813   0.00000  Uiso   1.00
Cu286  Cu    0.74499   0.82754   0.10521   0.00000  Uiso   1.00
H287   H     0.73887   0.98889   0.09651   0.00000  Uiso   1.00
H288   H     0.76113   0.67777   0.23683   0.00000  Uiso   1.00
H289   H     0.90052   0.70321   0.07878   0.00000  Uiso   1.00
H290   H     0.85992   0.71581   0.13141   0.00000  Uiso   1.00
H291   H     0.85386   0.74469   0.06502   0.00000  Uiso   1.00
H292   H     0.59947   0.96346   0.25455   0.00000  Uiso   1.00
H293   H     0.64614   0.92197   0.26832   0.00000  Uiso   1.00
H294   H     0.64008   0.95085   0.20193   0.00000  Uiso   1.00
I295   I     0.91027   0.85092   0.31026   0.00000  Uiso   1.00
I296   I     0.58973   0.81575   0.02307   0.00000  Uiso   1.00
I297   I     0.51045   0.72616   0.21586   0.00000  Uiso   1.00
I298   I     0.98954   0.94051   0.11747   0.00000  Uiso   1.00
I299   I     0.55774   0.68898   0.05447   0.00000  Uiso   1.00
I300   I     0.94226   0.97768   0.27887   0.00000  Uiso   1.00
I301   I     0.69409   0.75773   0.29790   0.00000  Uiso   1.00
I302   I     0.80591   0.90893   0.03543   0.00000  Uiso   1.00
N303   N     0.73744   0.81881   0.01284   0.00000  Uiso   1.00
N304   N     0.76255   0.84786   0.32049   0.00000  Uiso   1.00
O305   O     0.75325   0.76204   0.20659   0.00000  Uiso   1.00
O306   O     0.74674   0.90462   0.12674   0.00000  Uiso   1.00
O307   O     0.74480   0.75226   0.10279   0.00000  Uiso   1.00
O308   O     0.75520   0.91441   0.23055   0.00000  Uiso   1.00
O309   O     0.68935   0.83821   0.21857   0.00000  Uiso   1.00
O310   O     0.81064   0.82845   0.11476   0.00000  Uiso   1.00
O311   O     0.68090   0.82843   0.11477   0.00000  Uiso   1.00
O312   O     0.81910   0.83824   0.21857   0.00000  Uiso   1.00
C313   C     0.24848   0.06684   0.48486   0.00000  Uiso   1.00
C314   C     0.08744   0.14317   0.44818   0.00000  Uiso   1.00
C315   C     0.38516   0.15477   0.50612   0.00000  Uiso   1.00
C316   C     0.11484   0.17857   0.49388   0.00000  Uiso   1.00
C317   C     0.40648   0.11284   0.47175   0.00000  Uiso   1.00
C318   C     0.09352   0.22049   0.52825   0.00000  Uiso   1.00
C319   C     0.45466   0.11591   0.47555   0.00000  Uiso   1.00
C320   C     0.04534   0.21742   0.52445   0.00000  Uiso   1.00
C321   C     0.47722   0.16300   0.50327   0.00000  Uiso   1.00
C322   C     0.02278   0.17034   0.49673   0.00000  Uiso   1.00
C323   C     0.45594   0.20103   0.54141   0.00000  Uiso   1.00
C324   C     0.25152   0.26649   0.51514   0.00000  Uiso   1.00
C325   C     0.04406   0.13230   0.45859   0.00000  Uiso   1.00
C326   C     0.48326   0.07416   0.46121   0.00000  Uiso   1.00
C327   C     0.01674   0.25917   0.53879   0.00000  Uiso   1.00
C328   C     0.37875   0.06643   0.43461   0.00000  Uiso   1.00
C329   C     0.12125   0.26691   0.56539   0.00000  Uiso   1.00
C330   C     0.02209   0.08385   0.43576   0.00000  Uiso   1.00
C331   C     0.47791   0.24949   0.56424   0.00000  Uiso   1.00
C332   C     0.24649   0.01136   0.47625   0.00000  Uiso   1.00
C333   C     0.25351   0.32198   0.52375   0.00000  Uiso   1.00
C334   C     0.16443   0.17249   0.49905   0.00000  Uiso   1.00
C335   C     0.33557   0.16084   0.50094   0.00000  Uiso   1.00
C336   C     0.41256   0.19017   0.55182   0.00000  Uiso   1.00
Cu337  Cu    0.25500   0.17246   0.56146   0.00000  Uiso   1.00
Cu338  Cu    0.24499   0.16087   0.43854   0.00000  Uiso   1.00
H339   H     0.23887   0.32223   0.42984   0.00000  Uiso   1.00
H340   H     0.26113   0.01111   0.57016   0.00000  Uiso   1.00
H341   H     0.40052   0.03654   0.41212   0.00000  Uiso   1.00
H342   H     0.35992   0.04915   0.46474   0.00000  Uiso   1.00
H343   H     0.35386   0.07803   0.39835   0.00000  Uiso   1.00
H344   H     0.09947   0.29679   0.58788   0.00000  Uiso   1.00
H345   H     0.14614   0.25531   0.60165   0.00000  Uiso   1.00
H346   H     0.14008   0.28419   0.53526   0.00000  Uiso   1.00
I347   I     0.41027   0.18425   0.64360   0.00000  Uiso   1.00
I348   I     0.08973   0.14908   0.35640   0.00000  Uiso   1.00
I349   I     0.01045   0.05949   0.54920   0.00000  Uiso   1.00
I350   I     0.48954   0.27384   0.45080   0.00000  Uiso   1.00
I351   I     0.05774   0.02232   0.38780   0.00000  Uiso   1.00
I352   I     0.44226   0.31102   0.61220   0.00000  Uiso   1.00
I353   I     0.19409   0.09107   0.63123   0.00000  Uiso   1.00
I354   I     0.30591   0.24227   0.36877   0.00000  Uiso   1.00
N355   N     0.23744   0.15214   0.34617   0.00000  Uiso   1.00
N356   N     0.26255   0.18119   0.65383   0.00000  Uiso   1.00
O357   O     0.25325   0.09538   0.53992   0.00000  Uiso   1.00
O358   O     0.24674   0.23796   0.46008   0.00000  Uiso   1.00
O359   O     0.24480   0.08559   0.43612   0.00000  Uiso   1.00
O360   O     0.25520   0.24774   0.56388   0.00000  Uiso   1.00
O361   O     0.18935   0.17155   0.55191   0.00000  Uiso   1.00
O362   O     0.31064   0.16179   0.44809   0.00000  Uiso   1.00
O363   O     0.18090   0.16176   0.44810   0.00000  Uiso   1.00
O364   O     0.31910   0.17157   0.55190   0.00000  Uiso   1.00
C365   C     0.74848   0.06684   0.48486   0.00000  Uiso   1.00
C366   C     0.58744   0.14317   0.44818   0.00000  Uiso   1.00
C367   C     0.88516   0.15477   0.50612   0.00000  Uiso   1.00
C368   C     0.61484   0.17857   0.49388   0.00000  Uiso   1.00
C369   C     0.90648   0.11284   0.47175   0.00000  Uiso   1.00
C370   C     0.59352   0.22049   0.52825   0.00000  Uiso   1.00
C371   C     0.95466   0.11591   0.47555   0.00000  Uiso   1.00
C372   C     0.54534   0.21742   0.52445   0.00000  Uiso   1.00
C373   C     0.97722   0.16300   0.50327   0.00000  Uiso   1.00
C374   C     0.52278   0.17034   0.49673   0.00000  Uiso   1.00
C375   C     0.95594   0.20103   0.54141   0.00000  Uiso   1.00
C376   C     0.75152   0.26649   0.51514   0.00000  Uiso   1.00
C377   C     0.54406   0.13230   0.45859   0.00000  Uiso   1.00
C378   C     0.98326   0.07416   0.46121   0.00000  Uiso   1.00
C379   C     0.51674   0.25917   0.53879   0.00000  Uiso   1.00
C380   C     0.87875   0.06643   0.43461   0.00000  Uiso   1.00
C381   C     0.62125   0.26691   0.56539   0.00000  Uiso   1.00
C382   C     0.52209   0.08385   0.43576   0.00000  Uiso   1.00
C383   C     0.97791   0.24949   0.56424   0.00000  Uiso   1.00
C384   C     0.74649   0.01136   0.47625   0.00000  Uiso   1.00
C385   C     0.75351   0.32198   0.52375   0.00000  Uiso   1.00
C386   C     0.66443   0.17249   0.49905   0.00000  Uiso   1.00
C387   C     0.83557   0.16084   0.50094   0.00000  Uiso   1.00
C388   C     0.91256   0.19017   0.55182   0.00000  Uiso   1.00
Cu389  Cu    0.75500   0.17246   0.56146   0.00000  Uiso   1.00
Cu390  Cu    0.74499   0.16087   0.43854   0.00000  Uiso   1.00
H391   H     0.73887   0.32223   0.42984   0.00000  Uiso   1.00
H392   H     0.76113   0.01111   0.57016   0.00000  Uiso   1.00
H393   H     0.90052   0.03654   0.41212   0.00000  Uiso   1.00
H394   H     0.85992   0.04915   0.46474   0.00000  Uiso   1.00
H395   H     0.85386   0.07803   0.39835   0.00000  Uiso   1.00
H396   H     0.59947   0.29679   0.58788   0.00000  Uiso   1.00
H397   H     0.64614   0.25531   0.60165   0.00000  Uiso   1.00
H398   H     0.64008   0.28419   0.53526   0.00000  Uiso   1.00
I399   I     0.91027   0.18425   0.64360   0.00000  Uiso   1.00
I400   I     0.58973   0.14908   0.35640   0.00000  Uiso   1.00
I401   I     0.51045   0.05949   0.54920   0.00000  Uiso   1.00
I402   I     0.98954   0.27384   0.45080   0.00000  Uiso   1.00
I403   I     0.55774   0.02232   0.38780   0.00000  Uiso   1.00
I404   I     0.94226   0.31102   0.61220   0.00000  Uiso   1.00
I405   I     0.69409   0.09107   0.63123   0.00000  Uiso   1.00
I406   I     0.80591   0.24227   0.36877   0.00000  Uiso   1.00
N407   N     0.73744   0.15214   0.34617   0.00000  Uiso   1.00
N408   N     0.76255   0.18119   0.65383   0.00000  Uiso   1.00
O409   O     0.75325   0.09538   0.53992   0.00000  Uiso   1.00
O410   O     0.74674   0.23796   0.46008   0.00000  Uiso   1.00
O411   O     0.74480   0.08559   0.43612   0.00000  Uiso   1.00
O412   O     0.75520   0.24774   0.56388   0.00000  Uiso   1.00
O413   O     0.68935   0.17155   0.55191   0.00000  Uiso   1.00
O414   O     0.81064   0.16179   0.44809   0.00000  Uiso   1.00
O415   O     0.68090   0.16176   0.44810   0.00000  Uiso   1.00
O416   O     0.81910   0.17157   0.55190   0.00000  Uiso   1.00
C417   C     0.24848   0.40018   0.48486   0.00000  Uiso   1.00
C418   C     0.08744   0.47650   0.44818   0.00000  Uiso   1.00
C419   C     0.38516   0.48810   0.50612   0.00000  Uiso   1.00
C420   C     0.11484   0.51190   0.49388   0.00000  Uiso   1.00
C421   C     0.40648   0.44617   0.47175   0.00000  Uiso   1.00
C422   C     0.09352   0.55383   0.52825   0.00000  Uiso   1.00
C423   C     0.45466   0.44925   0.47555   0.00000  Uiso   1.00
C424   C     0.04534   0.55075   0.52445   0.00000  Uiso   1.00
C425   C     0.47722   0.49633   0.50327   0.00000  Uiso   1.00
C426   C     0.02278   0.50367   0.49673   0.00000  Uiso   1.00
C427   C     0.45594   0.53436   0.54141   0.00000  Uiso   1.00
C428   C     0.25152   0.59982   0.51514   0.00000  Uiso   1.00
C429   C     0.04406   0.46564   0.45859   0.00000  Uiso   1.00
C430   C     0.48326   0.40750   0.46121   0.00000  Uiso   1.00
C431   C     0.01674   0.59250   0.53879   0.00000  Uiso   1.00
C432   C     0.37875   0.39976   0.43461   0.00000  Uiso   1.00
C433   C     0.12125   0.60024   0.56539   0.00000  Uiso   1.00
C434   C     0.02209   0.41718   0.43576   0.00000  Uiso   1.00
C435   C     0.47791   0.58282   0.56424   0.00000  Uiso   1.00
C436   C     0.24649   0.34469   0.47625   0.00000  Uiso   1.00
C437   C     0.25351   0.65531   0.52375   0.00000  Uiso   1.00
C438   C     0.16443   0.50583   0.49905   0.00000  Uiso   1.00
C439   C     0.33557   0.49417   0.50094   0.00000  Uiso   1.00
C440   C     0.41256   0.52350   0.55182   0.00000  Uiso   1.00
Cu441  Cu    0.25500   0.50579   0.56146   0.00000  Uiso   1.00
Cu442  Cu    0.24499   0.49421   0.43854   0.00000  Uiso   1.00
H443   H     0.23887   0.65556   0.42984   0.00000  Uiso   1.00
H444   H     0.26113   0.34444   0.57016   0.00000  Uiso   1.00
H445   H     0.40052   0.36987   0.41212   0.00000  Uiso   1.00
H446   H     0.35992   0.38248   0.46474   0.00000  Uiso   1.00
H447   H     0.35386   0.41136   0.39835   0.00000  Uiso   1.00
H448   H     0.09947   0.63013   0.58788   0.00000  Uiso   1.00
H449   H     0.14614   0.58864   0.60165   0.00000  Uiso   1.00
H450   H     0.14008   0.61752   0.53526   0.00000  Uiso   1.00
I451   I     0.41027   0.51759   0.64360   0.00000  Uiso   1.00
I452   I     0.08973   0.48241   0.35640   0.00000  Uiso   1.00
I453   I     0.01045   0.39283   0.54920   0.00000  Uiso   1.00
I454   I     0.48954   0.60717   0.45080   0.00000  Uiso   1.00
I455   I     0.05774   0.35565   0.38780   0.00000  Uiso   1.00
I456   I     0.44226   0.64435   0.61220   0.00000  Uiso   1.00
I457   I     0.19409   0.42440   0.63123   0.00000  Uiso   1.00
I458   I     0.30591   0.57560   0.36877   0.00000  Uiso   1.00
N459   N     0.23744   0.48547   0.34617   0.00000  Uiso   1.00
N460   N     0.26255   0.51453   0.65383   0.00000  Uiso   1.00
O461   O     0.25325   0.42871   0.53992   0.00000  Uiso   1.00
O462   O     0.24674   0.57129   0.46008   0.00000  Uiso   1.00
O463   O     0.24480   0.41892   0.43612   0.00000  Uiso   1.00
O464   O     0.25520   0.58108   0.56388   0.00000  Uiso   1.00
O465   O     0.18935   0.50488   0.55191   0.00000  Uiso   1.00
O466   O     0.31064   0.49512   0.44809   0.00000  Uiso   1.00
O467   O     0.18090   0.49510   0.44810   0.00000  Uiso   1.00
O468   O     0.31910   0.50490   0.55190   0.00000  Uiso   1.00
C469   C     0.74848   0.40018   0.48486   0.00000  Uiso   1.00
C470   C     0.58744   0.47650   0.44818   0.00000  Uiso   1.00
C471   C     0.88516   0.48810   0.50612   0.00000  Uiso   1.00
C472   C     0.61484   0.51190   0.49388   0.00000  Uiso   1.00
C473   C     0.90648   0.44617   0.47175   0.00000  Uiso   1.00
C474   C     0.59352   0.55383   0.52825   0.00000  Uiso   1.00
C475   C     0.95466   0.44925   0.47555   0.00000  Uiso   1.00
C476   C     0.54534   0.55075   0.52445   0.00000  Uiso   1.00
C477   C     0.97722   0.49633   0.50327   0.00000  Uiso   1.00
C478   C     0.52278   0.50367   0.49673   0.00000  Uiso   1.00
C479   C     0.95594   0.53436   0.54141   0.00000  Uiso   1.00
C480   C     0.75152   0.59982   0.51514   0.00000  Uiso   1.00
C481   C     0.54406   0.46564   0.45859   0.00000  Uiso   1.00
C482   C     0.98326   0.40750   0.46121   0.00000  Uiso   1.00
C483   C     0.51674   0.59250   0.53879   0.00000  Uiso   1.00
C484   C     0.87875   0.39976   0.43461   0.00000  Uiso   1.00
C485   C     0.62125   0.60024   0.56539   0.00000  Uiso   1.00
C486   C     0.52209   0.41718   0.43576   0.00000  Uiso   1.00
C487   C     0.97791   0.58282   0.56424   0.00000  Uiso   1.00
C488   C     0.74649   0.34469   0.47625   0.00000  Uiso   1.00
C489   C     0.75351   0.65531   0.52375   0.00000  Uiso   1.00
C490   C     0.66443   0.50583   0.49905   0.00000  Uiso   1.00
C491   C     0.83557   0.49417   0.50094   0.00000  Uiso   1.00
C492   C     0.91256   0.52350   0.55182   0.00000  Uiso   1.00
Cu493  Cu    0.75500   0.50579   0.56146   0.00000  Uiso   1.00
Cu494  Cu    0.74499   0.49421   0.43854   0.00000  Uiso   1.00
H495   H     0.73887   0.65556   0.42984   0.00000  Uiso   1.00
H496   H     0.76113   0.34444   0.57016   0.00000  Uiso   1.00
H497   H     0.90052   0.36987   0.41212   0.00000  Uiso   1.00
H498   H     0.85992   0.38248   0.46474   0.00000  Uiso   1.00
H499   H     0.85386   0.41136   0.39835   0.00000  Uiso   1.00
H500   H     0.59947   0.63013   0.58788   0.00000  Uiso   1.00
H501   H     0.64614   0.58864   0.60165   0.00000  Uiso   1.00
H502   H     0.64008   0.61752   0.53526   0.00000  Uiso   1.00
I503   I     0.91027   0.51759   0.64360   0.00000  Uiso   1.00
I504   I     0.58973   0.48241   0.35640   0.00000  Uiso   1.00
I505   I     0.51045   0.39283   0.54920   0.00000  Uiso   1.00
I506   I     0.98954   0.60717   0.45080   0.00000  Uiso   1.00
I507   I     0.55774   0.35565   0.38780   0.00000  Uiso   1.00
I508   I     0.94226   0.64435   0.61220   0.00000  Uiso   1.00
I509   I     0.69409   0.42440   0.63123   0.00000  Uiso   1.00
I510   I     0.80591   0.57560   0.36877   0.00000  Uiso   1.00
N511   N     0.73744   0.48547   0.34617   0.00000  Uiso   1.00
N512   N     0.76255   0.51453   0.65383   0.00000  Uiso   1.00
O513   O     0.75325   0.42871   0.53992   0.00000  Uiso   1.00
O514   O     0.74674   0.57129   0.46008   0.00000  Uiso   1.00
O515   O     0.74480   0.41892   0.43612   0.00000  Uiso   1.00
O516   O     0.75520   0.58108   0.56388   0.00000  Uiso   1.00
O517   O     0.68935   0.50488   0.55191   0.00000  Uiso   1.00
O518   O     0.81064   0.49512   0.44809   0.00000  Uiso   1.00
O519   O     0.68090   0.49510   0.44810   0.00000  Uiso   1.00
O520   O     0.81910   0.50490   0.55190   0.00000  Uiso   1.00
C521   C     0.24848   0.73351   0.48486   0.00000  Uiso   1.00
C522   C     0.08744   0.80984   0.44818   0.00000  Uiso   1.00
C523   C     0.38516   0.82143   0.50612   0.00000  Uiso   1.00
C524   C     0.11484   0.84523   0.49388   0.00000  Uiso   1.00
C525   C     0.40648   0.77951   0.47175   0.00000  Uiso   1.00
C526   C     0.09352   0.88716   0.52825   0.00000  Uiso   1.00
C527   C     0.45466   0.78258   0.47555   0.00000  Uiso   1.00
C528   C     0.04534   0.88409   0.52445   0.00000  Uiso   1.00
C529   C     0.47722   0.82966   0.50327   0.00000  Uiso   1.00
C530   C     0.02278   0.83701   0.49673   0.00000  Uiso   1.00
C531   C     0.45594   0.86770   0.54141   0.00000  Uiso   1.00
C532   C     0.25152   0.93316   0.51514   0.00000  Uiso   1.00
C533   C     0.04406   0.79897   0.45859   0.00000  Uiso   1.00
C534   C     0.48326   0.74083   0.46121   0.00000  Uiso   1.00
C535   C     0.01674   0.92584   0.53879   0.00000  Uiso   1.00
C536   C     0.37875   0.73309   0.43461   0.00000  Uiso   1.00
C537   C     0.12125   0.93357   0.56539   0.00000  Uiso   1.00
C538   C     0.02209   0.75051   0.43576   0.00000  Uiso   1.00
C539   C     0.47791   0.91615   0.56424   0.00000  Uiso   1.00
C540   C     0.24649   0.67802   0.47625   0.00000  Uiso   1.00
C541   C     0.25351   0.98864   0.52375   0.00000  Uiso   1.00
C542   C     0.16443   0.83916   0.49905   0.00000  Uiso   1.00
C543   C     0.33557   0.82751   0.50094   0.00000  Uiso   1.00
C544   C     0.41256   0.85683   0.55182   0.00000  Uiso   1.00
Cu545  Cu    0.25500   0.83913   0.56146   0.00000  Uiso   1.00
Cu546  Cu    0.24499   0.82754   0.43854   0.00000  Uiso   1.00
H547   H     0.23887   0.98889   0.42984   0.00000  Uiso   1.00
H548   H     0.26113   0.67777   0.57016   0.00000  Uiso   1.00
H549   H     0.40052   0.70321   0.41212   0.00000  Uiso   1.00
H550   H     0.35992   0.71581   0.46474   0.00000  Uiso   1.00
H551   H     0.35386   0.74469   0.39835   0.00000  Uiso   1.00
H552   H     0.09947   0.96346   0.58788   0.00000  Uiso   1.00
H553   H     0.14614   0.92197   0.60165   0.00000  Uiso   1.00
H554   H     0.14008   0.95085   0.53526   0.00000  Uiso   1.00
I555   I     0.41027   0.85092   0.64360   0.00000  Uiso   1.00
I556   I     0.08973   0.81575   0.35640   0.00000  Uiso   1.00
I557   I     0.01045   0.72616   0.54920   0.00000  Uiso   1.00
I558   I     0.48954   0.94051   0.45080   0.00000  Uiso   1.00
I559   I     0.05774   0.68898   0.38780   0.00000  Uiso   1.00
I560   I     0.44226   0.97768   0.61220   0.00000  Uiso   1.00
I561   I     0.19409   0.75773   0.63123   0.00000  Uiso   1.00
I562   I     0.30591   0.90893   0.36877   0.00000  Uiso   1.00
N563   N     0.23744   0.81881   0.34617   0.00000  Uiso   1.00
N564   N     0.26255   0.84786   0.65383   0.00000  Uiso   1.00
O565   O     0.25325   0.76204   0.53992   0.00000  Uiso   1.00
O566   O     0.24674   0.90462   0.46008   0.00000  Uiso   1.00
O567   O     0.24480   0.75226   0.43612   0.00000  Uiso   1.00
O568   O     0.25520   0.91441   0.56388   0.00000  Uiso   1.00
O569   O     0.18935   0.83821   0.55191   0.00000  Uiso   1.00
O570   O     0.31064   0.82845   0.44809   0.00000  Uiso   1.00
O571   O     0.18090   0.82843   0.44810   0.00000  Uiso   1.00
O572   O     0.31910   0.83824   0.55190   0.00000  Uiso   1.00
C573   C     0.74848   0.73351   0.48486   0.00000  Uiso   1.00
C574   C     0.58744   0.80984   0.44818   0.00000  Uiso   1.00
C575   C     0.88516   0.82143   0.50612   0.00000  Uiso   1.00
C576   C     0.61484   0.84523   0.49388   0.00000  Uiso   1.00
C577   C     0.90648   0.77951   0.47175   0.00000  Uiso   1.00
C578   C     0.59352   0.88716   0.52825   0.00000  Uiso   1.00
C579   C     0.95466   0.78258   0.47555   0.00000  Uiso   1.00
C580   C     0.54534   0.88409   0.52445   0.00000  Uiso   1.00
C581   C     0.97722   0.82966   0.50327   0.00000  Uiso   1.00
C582   C     0.52278   0.83701   0.49673   0.00000  Uiso   1.00
C583   C     0.95594   0.86770   0.54141   0.00000  Uiso   1.00
C584   C     0.75152   0.93316   0.51514   0.00000  Uiso   1.00
C585   C     0.54406   0.79897   0.45859   0.00000  Uiso   1.00
C586   C     0.98326   0.74083   0.46121   0.00000  Uiso   1.00
C587   C     0.51674   0.92584   0.53879   0.00000  Uiso   1.00
C588   C     0.87875   0.73309   0.43461   0.00000  Uiso   1.00
C589   C     0.62125   0.93357   0.56539   0.00000  Uiso   1.00
C590   C     0.52209   0.75051   0.43576   0.00000  Uiso   1.00
C591   C     0.97791   0.91615   0.56424   0.00000  Uiso   1.00
C592   C     0.74649   0.67802   0.47625   0.00000  Uiso   1.00
C593   C     0.75351   0.98864   0.52375   0.00000  Uiso   1.00
C594   C     0.66443   0.83916   0.49905   0.00000  Uiso   1.00
C595   C     0.83557   0.82751   0.50094   0.00000  Uiso   1.00
C596   C     0.91256   0.85683   0.55182   0.00000  Uiso   1.00
Cu597  Cu    0.75500   0.83913   0.56146   0.00000  Uiso   1.00
Cu598  Cu    0.74499   0.82754   0.43854   0.00000  Uiso   1.00
H599   H     0.73887   0.98889   0.42984   0.00000  Uiso   1.00
H600   H     0.76113   0.67777   0.57016   0.00000  Uiso   1.00
H601   H     0.90052   0.70321   0.41212   0.00000  Uiso   1.00
H602   H     0.85992   0.71581   0.46474   0.00000  Uiso   1.00
H603   H     0.85386   0.74469   0.39835   0.00000  Uiso   1.00
H604   H     0.59947   0.96346   0.58788   0.00000  Uiso   1.00
H605   H     0.64614   0.92197   0.60165   0.00000  Uiso   1.00
H606   H     0.64008   0.95085   0.53526   0.00000  Uiso   1.00
I607   I     0.91027   0.85092   0.64360   0.00000  Uiso   1.00
I608   I     0.58973   0.81575   0.35640   0.00000  Uiso   1.00
I609   I     0.51045   0.72616   0.54920   0.00000  Uiso   1.00
I610   I     0.98954   0.94051   0.45080   0.00000  Uiso   1.00
I611   I     0.55774   0.68898   0.38780   0.00000  Uiso   1.00
I612   I     0.94226   0.97768   0.61220   0.00000  Uiso   1.00
I613   I     0.69409   0.75773   0.63123   0.00000  Uiso   1.00
I614   I     0.80591   0.90893   0.36877   0.00000  Uiso   1.00
N615   N     0.73744   0.81881   0.34617   0.00000  Uiso   1.00
N616   N     0.76255   0.84786   0.65383   0.00000  Uiso   1.00
O617   O     0.75325   0.76204   0.53992   0.00000  Uiso   1.00
O618   O     0.74674   0.90462   0.46008   0.00000  Uiso   1.00
O619   O     0.74480   0.75226   0.43612   0.00000  Uiso   1.00
O620   O     0.75520   0.91441   0.56388   0.00000  Uiso   1.00
O621   O     0.68935   0.83821   0.55191   0.00000  Uiso   1.00
O622   O     0.81064   0.82845   0.44809   0.00000  Uiso   1.00
O623   O     0.68090   0.82843   0.44810   0.00000  Uiso   1.00
O624   O     0.81910   0.83824   0.55190   0.00000  Uiso   1.00
C625   C     0.24848   0.06684   0.81819   0.00000  Uiso   1.00
C626   C     0.08744   0.14317   0.78151   0.00000  Uiso   1.00
C627   C     0.38516   0.15477   0.83945   0.00000  Uiso   1.00
C628   C     0.11484   0.17857   0.82722   0.00000  Uiso   1.00
C629   C     0.40648   0.11284   0.80508   0.00000  Uiso   1.00
C630   C     0.09352   0.22049   0.86158   0.00000  Uiso   1.00
C631   C     0.45466   0.11591   0.80889   0.00000  Uiso   1.00
C632   C     0.04534   0.21742   0.85778   0.00000  Uiso   1.00
C633   C     0.47722   0.16300   0.83660   0.00000  Uiso   1.00
C634   C     0.02278   0.17034   0.83006   0.00000  Uiso   1.00
C635   C     0.45594   0.20103   0.87474   0.00000  Uiso   1.00
C636   C     0.25152   0.26649   0.84848   0.00000  Uiso   1.00
C637   C     0.04406   0.13230   0.79192   0.00000  Uiso   1.00
C638   C     0.48326   0.07416   0.79454   0.00000  Uiso   1.00
C639   C     0.01674   0.25917   0.87212   0.00000  Uiso   1.00
C640   C     0.37875   0.06643   0.76794   0.00000  Uiso   1.00
C641   C     0.12125   0.26691   0.89873   0.00000  Uiso   1.00
C642   C     0.02209   0.08385   0.76909   0.00000  Uiso   1.00
C643   C     0.47791   0.24949   0.89758   0.00000  Uiso   1.00
C644   C     0.24649   0.01136   0.80959   0.00000  Uiso   1.00
C645   C     0.25351   0.32198   0.85708   0.00000  Uiso   1.00
C646   C     0.16443   0.17249   0.83239   0.00000  Uiso   1.00
C647   C     0.33557   0.16084   0.83428   0.00000  Uiso   1.00
C648   C     0.41256   0.19017   0.88516   0.00000  Uiso   1.00
Cu649  Cu    0.25500   0.17246   0.89479   0.00000  Uiso   1.00
Cu650  Cu    0.24499   0.16087   0.77187   0.00000  Uiso   1.00
H651   H     0.23887   0.32223   0.76317   0.00000  Uiso   1.00
H652   H     0.26113   0.01111   0.90349   0.00000  Uiso   1.00
H653   H     0.40052   0.03654   0.74545   0.00000  Uiso   1.00
H654   H     0.35992   0.04915   0.79807   0.00000  Uiso   1.00
H655   H     0.35386   0.07803   0.73168   0.00000  Uiso   1.00
H656   H     0.09947   0.29679   0.92121   0.00000  Uiso   1.00
H657   H     0.14614   0.25531   0.93499   0.00000  Uiso   1.00
H658   H     0.14008   0.28419   0.86859   0.00000  Uiso   1.00
I659   I     0.41027   0.18425   0.97693   0.00000  Uiso   1.00
I660   I     0.08973   0.14908   0.68974   0.00000  Uiso   1.00
I661   I     0.01045   0.05949   0.88253   0.00000  Uiso   1.00
I662   I     0.48954   0.27384   0.78414   0.00000  Uiso   1.00
I663   I     0.05774   0.02232   0.72113   0.00000  Uiso   1.00
I664   I     0.44226   0.31102   0.94554   0.00000  Uiso   1.00
I665   I     0.19409   0.09107   0.96457   0.00000  Uiso   1.00
I666   I     0.30591   0.24227   0.70210   0.00000  Uiso   1.00
N667   N     0.23744   0.15214   0.67951   0.00000  Uiso   1.00
N668   N     0.26255   0.18119   0.98716   0.00000  Uiso   1.00
O669   O     0.25325   0.09538   0.87326   0.00000  Uiso   1.00
O670   O     0.24674   0.23796   0.79341   0.00000  Uiso   1.00
O671   O     0.24480   0.08559   0.76945   0.00000  Uiso   1.00
O672   O     0.25520   0.24774   0.89721   0.00000  Uiso   1.00
O673   O     0.18935   0.17155   0.88524   0.00000  Uiso   1.00
O674   O     0.31064   0.16179   0.78143   0.00000  Uiso   1.00
O675   O     0.18090   0.16176   0.78143   0.00000  Uiso   1.00
O676   O     0.31910   0.17157   0.88523   0.00000  Uiso   1.00
C677   C     0.74848   0.06684   0.81819   0.00000  Uiso   1.00
C678   C     0.58744   0.14317   0.78151   0.00000  Uiso   1.00
C679   C     0.88516   0.15477   0.83945   0.00000  Uiso   1.00
C680   C     0.61484   0.17857   0.82722   0.00000  Uiso   1.00
C681   C     0.90648   0.11284   0.80508   0.00000  Uiso   1.00
C682   C     0.59352   0.22049   0.86158   0.00000  Uiso   1.00
C683   C     0.95466   0.11591   0.80889   0.00000  Uiso   1.00
C684   C     0.54534   0.21742   0.85778   0.00000  Uiso   1.00
C685   C     0.97722   0.16300   0.83660   0.00000  Uiso   1.00
C686   C     0.52278   0.17034   0.83006   0.00000  Uiso   1.00
C687   C     0.95594   0.20103   0.87474   0.00000  Uiso   1.00
C688   C     0.75152   0.26649   0.84848   0.00000  Uiso   1.00
C689   C     0.54406   0.13230   0.79192   0.00000  Uiso   1.00
C690   C     0.98326   0.07416   0.79454   0.00000  Uiso   1.00
C691   C     0.51674   0.25917   0.87212   0.00000  Uiso   1.00
C692   C     0.87875   0.06643   0.76794   0.00000  Uiso   1.00
C693   C     0.62125   0.26691   0.89873   0.00000  Uiso   1.00
C694   C     0.52209   0.08385   0.76909   0.00000  Uiso   1.00
C695   C     0.97791   0.24949   0.89758   0.00000  Uiso   1.00
C696   C     0.74649   0.01136   0.80959   0.00000  Uiso   1.00
C697   C     0.75351   0.32198   0.85708   0.00000  Uiso   1.00
C698   C     0.66443   0.17249   0.83239   0.00000  Uiso   1.00
C699   C     0.83557   0.16084   0.83428   0.00000  Uiso   1.00
C700   C     0.91256   0.19017   0.88516   0.00000  Uiso   1.00
Cu701  Cu    0.75500   0.17246   0.89479   0.00000  Uiso   1.00
Cu702  Cu    0.74499   0.16087   0.77187   0.00000  Uiso   1.00
H703   H     0.73887   0.32223   0.76317   0.00000  Uiso   1.00
H704   H     0.76113   0.01111   0.90349   0.00000  Uiso   1.00
H705   H     0.90052   0.03654   0.74545   0.00000  Uiso   1.00
H706   H     0.85992   0.04915   0.79807   0.00000  Uiso   1.00
H707   H     0.85386   0.07803   0.73168   0.00000  Uiso   1.00
H708   H     0.59947   0.29679   0.92121   0.00000  Uiso   1.00
H709   H     0.64614   0.25531   0.93499   0.00000  Uiso   1.00
H710   H     0.64008   0.28419   0.86859   0.00000  Uiso   1.00
I711   I     0.91027   0.18425   0.97693   0.00000  Uiso   1.00
I712   I     0.58973   0.14908   0.68974   0.00000  Uiso   1.00
I713   I     0.51045   0.05949   0.88253   0.00000  Uiso   1.00
I714   I     0.98954   0.27384   0.78414   0.00000  Uiso   1.00
I715   I     0.55774   0.02232   0.72113   0.00000  Uiso   1.00
I716   I     0.94226   0.31102   0.94554   0.00000  Uiso   1.00
I717   I     0.69409   0.09107   0.96457   0.00000  Uiso   1.00
I718   I     0.80591   0.24227   0.70210   0.00000  Uiso   1.00
N719   N     0.73744   0.15214   0.67951   0.00000  Uiso   1.00
N720   N     0.76255   0.18119   0.98716   0.00000  Uiso   1.00
O721   O     0.75325   0.09538   0.87326   0.00000  Uiso   1.00
O722   O     0.74674   0.23796   0.79341   0.00000  Uiso   1.00
O723   O     0.74480   0.08559   0.76945   0.00000  Uiso   1.00
O724   O     0.75520   0.24774   0.89721   0.00000  Uiso   1.00
O725   O     0.68935   0.17155   0.88524   0.00000  Uiso   1.00
O726   O     0.81064   0.16179   0.78143   0.00000  Uiso   1.00
O727   O     0.68090   0.16176   0.78143   0.00000  Uiso   1.00
O728   O     0.81910   0.17157   0.88523   0.00000  Uiso   1.00
C729   C     0.24848   0.40018   0.81819   0.00000  Uiso   1.00
C730   C     0.08744   0.47650   0.78151   0.00000  Uiso   1.00
C731   C     0.38516   0.48810   0.83945   0.00000  Uiso   1.00
C732   C     0.11484   0.51190   0.82722   0.00000  Uiso   1.00
C733   C     0.40648   0.44617   0.80508   0.00000  Uiso   1.00
C734   C     0.09352   0.55383   0.86158   0.00000  Uiso   1.00
C735   C     0.45466   0.44925   0.80889   0.00000  Uiso   1.00
C736   C     0.04534   0.55075   0.85778   0.00000  Uiso   1.00
C737   C     0.47722   0.49633   0.83660   0.00000  Uiso   1.00
C738   C     0.02278   0.50367   0.83006   0.00000  Uiso   1.00
C739   C     0.45594   0.53436   0.87474   0.00000  Uiso   1.00
C740   C     0.25152   0.59982   0.84848   0.00000  Uiso   1.00
C741   C     0.04406   0.46564   0.79192   0.00000  Uiso   1.00
C742   C     0.48326   0.40750   0.79454   0.00000  Uiso   1.00
C743   C     0.01674   0.59250   0.87212   0.00000  Uiso   1.00
C744   C     0.37875   0.39976   0.76794   0.00000  Uiso   1.00
C745   C     0.12125   0.60024   0.89873   0.00000  Uiso   1.00
C746   C     0.02209   0.41718   0.76909   0.00000  Uiso   1.00
C747   C     0.47791   0.58282   0.89758   0.00000  Uiso   1.00
C748   C     0.24649   0.34469   0.80959   0.00000  Uiso   1.00
C749   C     0.25351   0.65531   0.85708   0.00000  Uiso   1.00
C750   C     0.16443   0.50583   0.83239   0.00000  Uiso   1.00
C751   C     0.33557   0.49417   0.83428   0.00000  Uiso   1.00
C752   C     0.41256   0.52350   0.88516   0.00000  Uiso   1.00
Cu753  Cu    0.25500   0.50579   0.89479   0.00000  Uiso   1.00
Cu754  Cu    0.24499   0.49421   0.77187   0.00000  Uiso   1.00
H755   H     0.23887   0.65556   0.76317   0.00000  Uiso   1.00
H756   H     0.26113   0.34444   0.90349   0.00000  Uiso   1.00
H757   H     0.40052   0.36987   0.74545   0.00000  Uiso   1.00
H758   H     0.35992   0.38248   0.79807   0.00000  Uiso   1.00
H759   H     0.35386   0.41136   0.73168   0.00000  Uiso   1.00
H760   H     0.09947   0.63013   0.92121   0.00000  Uiso   1.00
H761   H     0.14614   0.58864   0.93499   0.00000  Uiso   1.00
H762   H     0.14008   0.61752   0.86859   0.00000  Uiso   1.00
I763   I     0.41027   0.51759   0.97693   0.00000  Uiso   1.00
I764   I     0.08973   0.48241   0.68974   0.00000  Uiso   1.00
I765   I     0.01045   0.39283   0.88253   0.00000  Uiso   1.00
I766   I     0.48954   0.60717   0.78414   0.00000  Uiso   1.00
I767   I     0.05774   0.35565   0.72113   0.00000  Uiso   1.00
I768   I     0.44226   0.64435   0.94554   0.00000  Uiso   1.00
I769   I     0.19409   0.42440   0.96457   0.00000  Uiso   1.00
I770   I     0.30591   0.57560   0.70210   0.00000  Uiso   1.00
N771   N     0.23744   0.48547   0.67951   0.00000  Uiso   1.00
N772   N     0.26255   0.51453   0.98716   0.00000  Uiso   1.00
O773   O     0.25325   0.42871   0.87326   0.00000  Uiso   1.00
O774   O     0.24674   0.57129   0.79341   0.00000  Uiso   1.00
O775   O     0.24480   0.41892   0.76945   0.00000  Uiso   1.00
O776   O     0.25520   0.58108   0.89721   0.00000  Uiso   1.00
O777   O     0.18935   0.50488   0.88524   0.00000  Uiso   1.00
O778   O     0.31064   0.49512   0.78143   0.00000  Uiso   1.00
O779   O     0.18090   0.49510   0.78143   0.00000  Uiso   1.00
O780   O     0.31910   0.50490   0.88523   0.00000  Uiso   1.00
C781   C     0.74848   0.40018   0.81819   0.00000  Uiso   1.00
C782   C     0.58744   0.47650   0.78151   0.00000  Uiso   1.00
C783   C     0.88516   0.48810   0.83945   0.00000  Uiso   1.00
C784   C     0.61484   0.51190   0.82722   0.00000  Uiso   1.00
C785   C     0.90648   0.44617   0.80508   0.00000  Uiso   1.00
C786   C     0.59352   0.55383   0.86158   0.00000  Uiso   1.00
C787   C     0.95466   0.44925   0.80889   0.00000  Uiso   1.00
C788   C     0.54534   0.55075   0.85778   0.00000  Uiso   1.00
C789   C     0.97722   0.49633   0.83660   0.00000  Uiso   1.00
C790   C     0.52278   0.50367   0.83006   0.00000  Uiso   1.00
C791   C     0.95594   0.53436   0.87474   0.00000  Uiso   1.00
C792   C     0.75152   0.59982   0.84848   0.00000  Uiso   1.00
C793   C     0.54406   0.46564   0.79192   0.00000  Uiso   1.00
C794   C     0.98326   0.40750   0.79454   0.00000  Uiso   1.00
C795   C     0.51674   0.59250   0.87212   0.00000  Uiso   1.00
C796   C     0.87875   0.39976   0.76794   0.00000  Uiso   1.00
C797   C     0.62125   0.60024   0.89873   0.00000  Uiso   1.00
C798   C     0.52209   0.41718   0.76909   0.00000  Uiso   1.00
C799   C     0.97791   0.58282   0.89758   0.00000  Uiso   1.00
C800   C     0.74649   0.34469   0.80959   0.00000  Uiso   1.00
C801   C     0.75351   0.65531   0.85708   0.00000  Uiso   1.00
C802   C     0.66443   0.50583   0.83239   0.00000  Uiso   1.00
C803   C     0.83557   0.49417   0.83428   0.00000  Uiso   1.00
C804   C     0.91256   0.52350   0.88516   0.00000  Uiso   1.00
Cu805  Cu    0.75500   0.50579   0.89479   0.00000  Uiso   1.00
Cu806  Cu    0.74499   0.49421   0.77187   0.00000  Uiso   1.00
H807   H     0.73887   0.65556   0.76317   0.00000  Uiso   1.00
H808   H     0.76113   0.34444   0.90349   0.00000  Uiso   1.00
H809   H     0.90052   0.36987   0.74545   0.00000  Uiso   1.00
H810   H     0.85992   0.38248   0.79807   0.00000  Uiso   1.00
H811   H     0.85386   0.41136   0.73168   0.00000  Uiso   1.00
H812   H     0.59947   0.63013   0.92121   0.00000  Uiso   1.00
H813   H     0.64614   0.58864   0.93499   0.00000  Uiso   1.00
H814   H     0.64008   0.61752   0.86859   0.00000  Uiso   1.00
I815   I     0.91027   0.51759   0.97693   0.00000  Uiso   1.00
I816   I     0.58973   0.48241   0.68974   0.00000  Uiso   1.00
I817   I     0.51045   0.39283   0.88253   0.00000  Uiso   1.00
I818   I     0.98954   0.60717   0.78414   0.00000  Uiso   1.00
I819   I     0.55774   0.35565   0.72113   0.00000  Uiso   1.00
I820   I     0.94226   0.64435   0.94554   0.00000  Uiso   1.00
I821   I     0.69409   0.42440   0.96457   0.00000  Uiso   1.00
I822   I     0.80591   0.57560   0.70210   0.00000  Uiso   1.00
N823   N     0.73744   0.48547   0.67951   0.00000  Uiso   1.00
N824   N     0.76255   0.51453   0.98716   0.00000  Uiso   1.00
O825   O     0.75325   0.42871   0.87326   0.00000  Uiso   1.00
O826   O     0.74674   0.57129   0.79341   0.00000  Uiso   1.00
O827   O     0.74480   0.41892   0.76945   0.00000  Uiso   1.00
O828   O     0.75520   0.58108   0.89721   0.00000  Uiso   1.00
O829   O     0.68935   0.50488   0.88524   0.00000  Uiso   1.00
O830   O     0.81064   0.49512   0.78143   0.00000  Uiso   1.00
O831   O     0.68090   0.49510   0.78143   0.00000  Uiso   1.00
O832   O     0.81910   0.50490   0.88523   0.00000  Uiso   1.00
C833   C     0.24848   0.73351   0.81819   0.00000  Uiso   1.00
C834   C     0.08744   0.80984   0.78151   0.00000  Uiso   1.00
C835   C     0.38516   0.82143   0.83945   0.00000  Uiso   1.00
C836   C     0.11484   0.84523   0.82722   0.00000  Uiso   1.00
C837   C     0.40648   0.77951   0.80508   0.00000  Uiso   1.00
C838   C     0.09352   0.88716   0.86158   0.00000  Uiso   1.00
C839   C     0.45466   0.78258   0.80889   0.00000  Uiso   1.00
C840   C     0.04534   0.88409   0.85778   0.00000  Uiso   1.00
C841   C     0.47722   0.82966   0.83660   0.00000  Uiso   1.00
C842   C     0.02278   0.83701   0.83006   0.00000  Uiso   1.00
C843   C     0.45594   0.86770   0.87474   0.00000  Uiso   1.00
C844   C     0.25152   0.93316   0.84848   0.00000  Uiso   1.00
C845   C     0.04406   0.79897   0.79192   0.00000  Uiso   1.00
C846   C     0.48326   0.74083   0.79454   0.00000  Uiso   1.00
C847   C     0.01674   0.92584   0.87212   0.00000  Uiso   1.00
C848   C     0.37875   0.73309   0.76794   0.00000  Uiso   1.00
C849   C     0.12125   0.93357   0.89873   0.00000  Uiso   1.00
C850   C     0.02209   0.75051   0.76909   0.00000  Uiso   1.00
C851   C     0.47791   0.91615   0.89758   0.00000  Uiso   1.00
C852   C     0.24649   0.67802   0.80959   0.00000  Uiso   1.00
C853   C     0.25351   0.98864   0.85708   0.00000  Uiso   1.00
C854   C     0.16443   0.83916   0.83239   0.00000  Uiso   1.00
C855   C     0.33557   0.82751   0.83428   0.00000  Uiso   1.00
C856   C     0.41256   0.85683   0.88516   0.00000  Uiso   1.00
Cu857  Cu    0.25500   0.83913   0.89479   0.00000  Uiso   1.00
Cu858  Cu    0.24499   0.82754   0.77187   0.00000  Uiso   1.00
H859   H     0.23887   0.98889   0.76317   0.00000  Uiso   1.00
H860   H     0.26113   0.67777   0.90349   0.00000  Uiso   1.00
H861   H     0.40052   0.70321   0.74545   0.00000  Uiso   1.00
H862   H     0.35992   0.71581   0.79807   0.00000  Uiso   1.00
H863   H     0.35386   0.74469   0.73168   0.00000  Uiso   1.00
H864   H     0.09947   0.96346   0.92121   0.00000  Uiso   1.00
H865   H     0.14614   0.92197   0.93499   0.00000  Uiso   1.00
H866   H     0.14008   0.95085   0.86859   0.00000  Uiso   1.00
I867   I     0.41027   0.85092   0.97693   0.00000  Uiso   1.00
I868   I     0.08973   0.81575   0.68974   0.00000  Uiso   1.00
I869   I     0.01045   0.72616   0.88253   0.00000  Uiso   1.00
I870   I     0.48954   0.94051   0.78414   0.00000  Uiso   1.00
I871   I     0.05774   0.68898   0.72113   0.00000  Uiso   1.00
I872   I     0.44226   0.97768   0.94554   0.00000  Uiso   1.00
I873   I     0.19409   0.75773   0.96457   0.00000  Uiso   1.00
I874   I     0.30591   0.90893   0.70210   0.00000  Uiso   1.00
N875   N     0.23744   0.81881   0.67951   0.00000  Uiso   1.00
N876   N     0.26255   0.84786   0.98716   0.00000  Uiso   1.00
O877   O     0.25325   0.76204   0.87326   0.00000  Uiso   1.00
O878   O     0.24674   0.90462   0.79341   0.00000  Uiso   1.00
O879   O     0.24480   0.75226   0.76945   0.00000  Uiso   1.00
O880   O     0.25520   0.91441   0.89721   0.00000  Uiso   1.00
O881   O     0.18935   0.83821   0.88524   0.00000  Uiso   1.00
O882   O     0.31064   0.82845   0.78143   0.00000  Uiso   1.00
O883   O     0.18090   0.82843   0.78143   0.00000  Uiso   1.00
O884   O     0.31910   0.83824   0.88523   0.00000  Uiso   1.00
C885   C     0.74848   0.73351   0.81819   0.00000  Uiso   1.00
C886   C     0.58744   0.80984   0.78151   0.00000  Uiso   1.00
C887   C     0.88516   0.82143   0.83945   0.00000  Uiso   1.00
C888   C     0.61484   0.84523   0.82722   0.00000  Uiso   1.00
C889   C     0.90648   0.77951   0.80508   0.00000  Uiso   1.00
C890   C     0.59352   0.88716   0.86158   0.00000  Uiso   1.00
C891   C     0.95466   0.78258   0.80889   0.00000  Uiso   1.00
C892   C     0.54534   0.88409   0.85778   0.00000  Uiso   1.00
C893   C     0.97722   0.82966   0.83660   0.00000  Uiso   1.00
C894   C     0.52278   0.83701   0.83006   0.00000  Uiso   1.00
C895   C     0.95594   0.86770   0.87474   0.00000  Uiso   1.00
C896   C     0.75152   0.93316   0.84848   0.00000  Uiso   1.00
C897   C     0.54406   0.79897   0.79192   0.00000  Uiso   1.00
C898   C     0.98326   0.74083   0.79454   0.00000  Uiso   1.00
C899   C     0.51674   0.92584   0.87212   0.00000  Uiso   1.00
C900   C     0.87875   0.73309   0.76794   0.00000  Uiso   1.00
C901   C     0.62125   0.93357   0.89873   0.00000  Uiso   1.00
C902   C     0.52209   0.75051   0.76909   0.00000  Uiso   1.00
C903   C     0.97791   0.91615   0.89758   0.00000  Uiso   1.00
C904   C     0.74649   0.67802   0.80959   0.00000  Uiso   1.00
C905   C     0.75351   0.98864   0.85708   0.00000  Uiso   1.00
C906   C     0.66443   0.83916   0.83239   0.00000  Uiso   1.00
C907   C     0.83557   0.82751   0.83428   0.00000  Uiso   1.00
C908   C     0.91256   0.85683   0.88516   0.00000  Uiso   1.00
Cu909  Cu    0.75500   0.83913   0.89479   0.00000  Uiso   1.00
Cu910  Cu    0.74499   0.82754   0.77187   0.00000  Uiso   1.00
H911   H     0.73887   0.98889   0.76317   0.00000  Uiso   1.00
H912   H     0.76113   0.67777   0.90349   0.00000  Uiso   1.00
H913   H     0.90052   0.70321   0.74545   0.00000  Uiso   1.00
H914   H     0.85992   0.71581   0.79807   0.00000  Uiso   1.00
H915   H     0.85386   0.74469   0.73168   0.00000  Uiso   1.00
H916   H     0.59947   0.96346   0.92121   0.00000  Uiso   1.00
H917   H     0.64614   0.92197   0.93499   0.00000  Uiso   1.00
H918   H     0.64008   0.95085   0.86859   0.00000  Uiso   1.00
I919   I     0.91027   0.85092   0.97693   0.00000  Uiso   1.00
I920   I     0.58973   0.81575   0.68974   0.00000  Uiso   1.00
I921   I     0.51045   0.72616   0.88253   0.00000  Uiso   1.00
I922   I     0.98954   0.94051   0.78414   0.00000  Uiso   1.00
I923   I     0.55774   0.68898   0.72113   0.00000  Uiso   1.00
I924   I     0.94226   0.97768   0.94554   0.00000  Uiso   1.00
I925   I     0.69409   0.75773   0.96457   0.00000  Uiso   1.00
I926   I     0.80591   0.90893   0.70210   0.00000  Uiso   1.00
N927   N     0.73744   0.81881   0.67951   0.00000  Uiso   1.00
N928   N     0.76255   0.84786   0.98716   0.00000  Uiso   1.00
O929   O     0.75325   0.76204   0.87326   0.00000  Uiso   1.00
O930   O     0.74674   0.90462   0.79341   0.00000  Uiso   1.00
O931   O     0.74480   0.75226   0.76945   0.00000  Uiso   1.00
O932   O     0.75520   0.91441   0.89721   0.00000  Uiso   1.00
O933   O     0.68935   0.83821   0.88524   0.00000  Uiso   1.00
O934   O     0.81064   0.82845   0.78143   0.00000  Uiso   1.00
O935   O     0.68090   0.82843   0.78143   0.00000  Uiso   1.00
O936   O     0.81910   0.83824   0.88523   0.00000  Uiso   1.00
loop_
_geom_bond_atom_site_label_1
_geom_bond_atom_site_label_2
_geom_bond_distance
_geom_bond_site_symmetry_2
_ccdc_geom_bond_type
C1     O45     1.305   .     A
C1     O47     1.292   .     A
C1     C20     1.446   .     S
C2     C4      1.401   .     A
C2     C13     1.382   .     A
C2     I36     2.127   .     S
C3     C23     1.465   .     S
C3     C24     1.401   .     A
C3     C5      1.423   .     A
C4     C22     1.465   .     S
C4     C6      1.423   .     A
C5     C7      1.417   .     A
C5     C16     1.507   .     S
C6     C17     1.507   .     S
C6     C8      1.417   .     A
C7     C9      1.399   .     A
C7     C14     1.406   .     A
C8     C10     1.399   .     A
C8     C15     1.406   .     A
C9     C11     1.400   .     A
C9     C62     1.397   .     S
C10    C13     1.400   .     A
C10    C61     1.397   1_455 S
C11    C19     1.406   .     A
C11    C24     1.382   .     A
C12    O48     1.292   .     A
C12    O46     1.305   .     A
C12    C21     1.446   .     S
C13    C18     1.406   .     A
C14    C70     1.408   .     S
C14    I89     2.145   .     S
C15    C71     1.408   1_455 S
C15    I90     2.145   1_455 S
C16    H30     1.111   .     S
C16    H29     1.110   .     S
C16    H31     1.110   .     S
C17    H33     1.110   .     S
C17    H34     1.111   .     S
C17    H32     1.110   .     S
C18    I39     2.135   .     S
C18    C66     1.408   1_455 S
C19    I40     2.135   .     S
C19    C67     1.408   .     S
C20    C229    1.328   1_545 S
C20    H235    1.086   1_545 S
C21    C124    1.328   .     S
C21    H132    1.086   .     S
C22    O49     1.312   .     A
C22    O51     1.297   .     A
C23    O52     1.297   .     A
C23    O50     1.312   .     A
C24    I35     2.127   .     S
Cu25   O52     1.941   .     S
Cu25   O48     1.989   .     S
Cu25   N44     2.033   .     S
Cu25   O49     1.922   .     S
Cu25   O45     2.003   .     S
Cu25   Cu26    2.706   .     S
Cu26   O51     1.941   .     S
Cu26   O47     1.989   .     S
Cu26   N43     2.033   .     S
Cu26   O50     1.922   .     S
Cu26   O46     2.003   .     S
H27    C124    1.086   .     S
H28    C229    1.086   1_545 S
I37    C66     2.145   1_455 S
I38    C67     2.145   .     S
I41    N355    2.081   .     S
I42    N668    2.081   1_554 S
N43    I665    2.081   1_554 S
N43    N668    1.344   1_554 S
N44    I354    2.081   .     S
N44    N355    1.344   .     S
C53    O97     1.305   .     A
C53    O99     1.292   .     A
C53    C72     1.446   .     S
C54    C56     1.401   .     A
C54    C65     1.382   .     A
C54    I88     2.127   .     S
C55    C75     1.465   .     S
C55    C76     1.401   .     A
C55    C57     1.423   .     A
C56    C74     1.465   .     S
C56    C58     1.423   .     A
C57    C59     1.417   .     A
C57    C68     1.507   .     S
C58    C69     1.507   .     S
C58    C60     1.417   .     A
C59    C61     1.399   .     A
C59    C66     1.406   .     A
C60    C62     1.399   .     A
C60    C67     1.406   .     A
C61    C63     1.400   .     A
C61    C10     1.397   1_655 S
C62    C65     1.400   .     A
C63    C71     1.406   .     A
C63    C76     1.382   .     A
C64    O100    1.292   .     A
C64    O98     1.305   .     A
C64    C73     1.446   .     S
C65    C70     1.406   .     A
C66    C18     1.408   1_655 S
C66    I37     2.145   1_655 S
C68    H82     1.111   .     S
C68    H81     1.110   .     S
C68    H83     1.110   .     S
C69    H85     1.110   .     S
C69    H86     1.111   .     S
C69    H84     1.110   .     S
C70    I91     2.135   .     S
C71    I92     2.135   .     S
C71    C15     1.408   1_655 S
C72    C281    1.328   1_545 S
C72    H287    1.086   1_545 S
C73    C176    1.328   .     S
C73    H184    1.086   .     S
C74    O101    1.312   .     A
C74    O103    1.297   .     A
C75    O104    1.297   .     A
C75    O102    1.312   .     A
C76    I87     2.127   .     S
Cu77   O104    1.941   .     S
Cu77   O100    1.989   .     S
Cu77   N96     2.033   .     S
Cu77   O101    1.922   .     S
Cu77   O97     2.003   .     S
Cu77   Cu78    2.706   .     S
Cu78   O103    1.941   .     S
Cu78   O99     1.989   .     S
Cu78   N95     2.033   .     S
Cu78   O102    1.922   .     S
Cu78   O98     2.003   .     S
H79    C176    1.086   .     S
H80    C281    1.086   1_545 S
I90    C15     2.145   1_655 S
I93    N407    2.081   .     S
I94    N720    2.081   1_554 S
N95    I717    2.081   1_554 S
N95    N720    1.344   1_554 S
N96    I406    2.081   .     S
N96    N407    1.344   .     S
C105   O149    1.305   .     A
C105   O151    1.292   .     A
C105   C124    1.446   .     S
C106   C108    1.401   .     A
C106   C117    1.382   .     A
C106   I140    2.127   .     S
C107   C127    1.465   .     S
C107   C128    1.401   .     A
C107   C109    1.423   .     A
C108   C126    1.465   .     S
C108   C110    1.423   .     A
C109   C111    1.417   .     A
C109   C120    1.507   .     S
C110   C121    1.507   .     S
C110   C112    1.417   .     A
C111   C113    1.399   .     A
C111   C118    1.406   .     A
C112   C114    1.399   .     A
C112   C119    1.406   .     A
C113   C115    1.400   .     A
C113   C166    1.397   .     S
C114   C117    1.400   .     A
C114   C165    1.397   1_455 S
C115   C123    1.406   .     A
C115   C128    1.382   .     A
C116   O152    1.292   .     A
C116   O150    1.305   .     A
C116   C125    1.446   .     S
C117   C122    1.406   .     A
C118   C174    1.408   .     S
C118   I193    2.145   .     S
C119   C175    1.408   1_455 S
C119   I194    2.145   1_455 S
C120   H134    1.111   .     S
C120   H133    1.110   .     S
C120   H135    1.110   .     S
C121   H137    1.110   .     S
C121   H138    1.111   .     S
C121   H136    1.110   .     S
C122   I143    2.135   .     S
C122   C170    1.408   1_455 S
C123   I144    2.135   .     S
C123   C171    1.408   .     S
C125   C228    1.328   .     S
C125   H236    1.086   .     S
C126   O153    1.312   .     A
C126   O155    1.297   .     A
C127   O156    1.297   .     A
C127   O154    1.312   .     A
C128   I139    2.127   .     S
Cu129  O156    1.941   .     S
Cu129  O152    1.989   .     S
Cu129  N148    2.033   .     S
Cu129  O153    1.922   .     S
Cu129  O149    2.003   .     S
Cu129  Cu130   2.706   .     S
Cu130  O155    1.941   .     S
Cu130  O151    1.989   .     S
Cu130  N147    2.033   .     S
Cu130  O154    1.922   .     S
Cu130  O150    2.003   .     S
H131   C228    1.086   .     S
I141   C170    2.145   1_455 S
I142   C171    2.145   .     S
I145   N459    2.081   .     S
I146   N772    2.081   1_554 S
N147   I769    2.081   1_554 S
N147   N772    1.344   1_554 S
N148   I458    2.081   .     S
N148   N459    1.344   .     S
C157   O201    1.305   .     A
C157   O203    1.292   .     A
C157   C176    1.446   .     S
C158   C160    1.401   .     A
C158   C169    1.382   .     A
C158   I192    2.127   .     S
C159   C179    1.465   .     S
C159   C180    1.401   .     A
C159   C161    1.423   .     A
C160   C178    1.465   .     S
C160   C162    1.423   .     A
C161   C163    1.417   .     A
C161   C172    1.507   .     S
C162   C173    1.507   .     S
C162   C164    1.417   .     A
C163   C165    1.399   .     A
C163   C170    1.406   .     A
C164   C166    1.399   .     A
C164   C171    1.406   .     A
C165   C167    1.400   .     A
C165   C114    1.397   1_655 S
C166   C169    1.400   .     A
C167   C175    1.406   .     A
C167   C180    1.382   .     A
C168   O204    1.292   .     A
C168   O202    1.305   .     A
C168   C177    1.446   .     S
C169   C174    1.406   .     A
C170   C122    1.408   1_655 S
C170   I141    2.145   1_655 S
C172   H186    1.111   .     S
C172   H185    1.110   .     S
C172   H187    1.110   .     S
C173   H189    1.110   .     S
C173   H190    1.111   .     S
C173   H188    1.110   .     S
C174   I195    2.135   .     S
C175   I196    2.135   .     S
C175   C119    1.408   1_655 S
C177   C280    1.328   .     S
C177   H288    1.086   .     S
C178   O205    1.312   .     A
C178   O207    1.297   .     A
C179   O208    1.297   .     A
C179   O206    1.312   .     A
C180   I191    2.127   .     S
Cu181  O208    1.941   .     S
Cu181  O204    1.989   .     S
Cu181  N200    2.033   .     S
Cu181  O205    1.922   .     S
Cu181  O201    2.003   .     S
Cu181  Cu182   2.706   .     S
Cu182  O207    1.941   .     S
Cu182  O203    1.989   .     S
Cu182  N199    2.033   .     S
Cu182  O206    1.922   .     S
Cu182  O202    2.003   .     S
H183   C280    1.086   .     S
I194   C119    2.145   1_655 S
I197   N511    2.081   .     S
I198   N824    2.081   1_554 S
N199   I821    2.081   1_554 S
N199   N824    1.344   1_554 S
N200   I510    2.081   .     S
N200   N511    1.344   .     S
C209   O253    1.305   .     A
C209   O255    1.292   .     A
C209   C228    1.446   .     S
C210   C212    1.401   .     A
C210   C221    1.382   .     A
C210   I244    2.127   .     S
C211   C231    1.465   .     S
C211   C232    1.401   .     A
C211   C213    1.423   .     A
C212   C230    1.465   .     S
C212   C214    1.423   .     A
C213   C215    1.417   .     A
C213   C224    1.507   .     S
C214   C225    1.507   .     S
C214   C216    1.417   .     A
C215   C217    1.399   .     A
C215   C222    1.406   .     A
C216   C218    1.399   .     A
C216   C223    1.406   .     A
C217   C219    1.400   .     A
C217   C270    1.397   .     S
C218   C221    1.400   .     A
C218   C269    1.397   1_455 S
C219   C227    1.406   .     A
C219   C232    1.382   .     A
C220   O256    1.292   .     A
C220   O254    1.305   .     A
C220   C229    1.446   .     S
C221   C226    1.406   .     A
C222   C278    1.408   .     S
C222   I297    2.145   .     S
C223   C279    1.408   1_455 S
C223   I298    2.145   1_455 S
C224   H238    1.111   .     S
C224   H237    1.110   .     S
C224   H239    1.110   .     S
C225   H241    1.110   .     S
C225   H242    1.111   .     S
C225   H240    1.110   .     S
C226   I247    2.135   .     S
C226   C274    1.408   1_455 S
C227   I248    2.135   .     S
C227   C275    1.408   .     S
C229   C20     1.328   1_565 S
C229   H28     1.086   1_565 S
C230   O257    1.312   .     A
C230   O259    1.297   .     A
C231   O260    1.297   .     A
C231   O258    1.312   .     A
C232   I243    2.127   .     S
Cu233  O260    1.941   .     S
Cu233  O256    1.989   .     S
Cu233  N252    2.033   .     S
Cu233  O257    1.922   .     S
Cu233  O253    2.003   .     S
Cu233  Cu234   2.706   .     S
Cu234  O259    1.941   .     S
Cu234  O255    1.989   .     S
Cu234  N251    2.033   .     S
Cu234  O258    1.922   .     S
Cu234  O254    2.003   .     S
H235   C20     1.086   1_565 S
I245   C274    2.145   1_455 S
I246   C275    2.145   .     S
I249   N563    2.081   .     S
I250   N876    2.081   1_554 S
N251   I873    2.081   1_554 S
N251   N876    1.344   1_554 S
N252   I562    2.081   .     S
N252   N563    1.344   .     S
C261   O305    1.305   .     A
C261   O307    1.292   .     A
C261   C280    1.446   .     S
C262   C264    1.401   .     A
C262   C273    1.382   .     A
C262   I296    2.127   .     S
C263   C283    1.465   .     S
C263   C284    1.401   .     A
C263   C265    1.423   .     A
C264   C282    1.465   .     S
C264   C266    1.423   .     A
C265   C267    1.417   .     A
C265   C276    1.507   .     S
C266   C277    1.507   .     S
C266   C268    1.417   .     A
C267   C269    1.399   .     A
C267   C274    1.406   .     A
C268   C270    1.399   .     A
C268   C275    1.406   .     A
C269   C271    1.400   .     A
C269   C218    1.397   1_655 S
C270   C273    1.400   .     A
C271   C279    1.406   .     A
C271   C284    1.382   .     A
C272   O308    1.292   .     A
C272   O306    1.305   .     A
C272   C281    1.446   .     S
C273   C278    1.406   .     A
C274   C226    1.408   1_655 S
C274   I245    2.145   1_655 S
C276   H290    1.111   .     S
C276   H289    1.110   .     S
C276   H291    1.110   .     S
C277   H293    1.110   .     S
C277   H294    1.111   .     S
C277   H292    1.110   .     S
C278   I299    2.135   .     S
C279   I300    2.135   .     S
C279   C223    1.408   1_655 S
C281   C72     1.328   1_565 S
C281   H80     1.086   1_565 S
C282   O309    1.312   .     A
C282   O311    1.297   .     A
C283   O312    1.297   .     A
C283   O310    1.312   .     A
C284   I295    2.127   .     S
Cu285  O312    1.941   .     S
Cu285  O308    1.989   .     S
Cu285  N304    2.033   .     S
Cu285  O309    1.922   .     S
Cu285  O305    2.003   .     S
Cu285  Cu286   2.706   .     S
Cu286  O311    1.941   .     S
Cu286  O307    1.989   .     S
Cu286  N303    2.033   .     S
Cu286  O310    1.922   .     S
Cu286  O306    2.003   .     S
H287   C72     1.086   1_565 S
I298   C223    2.145   1_655 S
I301   N615    2.081   .     S
I302   N928    2.081   1_554 S
N303   I925    2.081   1_554 S
N303   N928    1.344   1_554 S
N304   I614    2.081   .     S
N304   N615    1.344   .     S
C313   O357    1.305   .     A
C313   O359    1.292   .     A
C313   C332    1.446   .     S
C314   C316    1.401   .     A
C314   C325    1.382   .     A
C314   I348    2.127   .     S
C315   C335    1.465   .     S
C315   C336    1.401   .     A
C315   C317    1.423   .     A
C316   C334    1.465   .     S
C316   C318    1.423   .     A
C317   C319    1.417   .     A
C317   C328    1.507   .     S
C318   C329    1.507   .     S
C318   C320    1.417   .     A
C319   C321    1.399   .     A
C319   C326    1.406   .     A
C320   C322    1.399   .     A
C320   C327    1.406   .     A
C321   C323    1.400   .     A
C321   C374    1.397   .     S
C322   C325    1.400   .     A
C322   C373    1.397   1_455 S
C323   C331    1.406   .     A
C323   C336    1.382   .     A
C324   O360    1.292   .     A
C324   O358    1.305   .     A
C324   C333    1.446   .     S
C325   C330    1.406   .     A
C326   C382    1.408   .     S
C326   I401    2.145   .     S
C327   C383    1.408   1_455 S
C327   I402    2.145   1_455 S
C328   H342    1.111   .     S
C328   H341    1.110   .     S
C328   H343    1.110   .     S
C329   H345    1.110   .     S
C329   H346    1.111   .     S
C329   H344    1.110   .     S
C330   I351    2.135   .     S
C330   C378    1.408   1_455 S
C331   I352    2.135   .     S
C331   C379    1.408   .     S
C332   C541    1.328   1_545 S
C332   H547    1.086   1_545 S
C333   C436    1.328   .     S
C333   H444    1.086   .     S
C334   O361    1.312   .     A
C334   O363    1.297   .     A
C335   O364    1.297   .     A
C335   O362    1.312   .     A
C336   I347    2.127   .     S
Cu337  O364    1.941   .     S
Cu337  O360    1.989   .     S
Cu337  N356    2.033   .     S
Cu337  O361    1.922   .     S
Cu337  O357    2.003   .     S
Cu337  Cu338   2.706   .     S
Cu338  O363    1.941   .     S
Cu338  O359    1.989   .     S
Cu338  N355    2.033   .     S
Cu338  O362    1.922   .     S
Cu338  O358    2.003   .     S
H339   C436    1.086   .     S
H340   C541    1.086   1_545 S
I349   C378    2.145   1_455 S
I350   C379    2.145   .     S
I353   N667    2.081   .     S
N356   I666    2.081   .     S
N356   N667    1.344   .     S
C365   O409    1.305   .     A
C365   O411    1.292   .     A
C365   C384    1.446   .     S
C366   C368    1.401   .     A
C366   C377    1.382   .     A
C366   I400    2.127   .     S
C367   C387    1.465   .     S
C367   C388    1.401   .     A
C367   C369    1.423   .     A
C368   C386    1.465   .     S
C368   C370    1.423   .     A
C369   C371    1.417   .     A
C369   C380    1.507   .     S
C370   C381    1.507   .     S
C370   C372    1.417   .     A
C371   C373    1.399   .     A
C371   C378    1.406   .     A
C372   C374    1.399   .     A
C372   C379    1.406   .     A
C373   C375    1.400   .     A
C373   C322    1.397   1_655 S
C374   C377    1.400   .     A
C375   C383    1.406   .     A
C375   C388    1.382   .     A
C376   O412    1.292   .     A
C376   O410    1.305   .     A
C376   C385    1.446   .     S
C377   C382    1.406   .     A
C378   C330    1.408   1_655 S
C378   I349    2.145   1_655 S
C380   H394    1.111   .     S
C380   H393    1.110   .     S
C380   H395    1.110   .     S
C381   H397    1.110   .     S
C381   H398    1.111   .     S
C381   H396    1.110   .     S
C382   I403    2.135   .     S
C383   I404    2.135   .     S
C383   C327    1.408   1_655 S
C384   C593    1.328   1_545 S
C384   H599    1.086   1_545 S
C385   C488    1.328   .     S
C385   H496    1.086   .     S
C386   O413    1.312   .     A
C386   O415    1.297   .     A
C387   O416    1.297   .     A
C387   O414    1.312   .     A
C388   I399    2.127   .     S
Cu389  O416    1.941   .     S
Cu389  O412    1.989   .     S
Cu389  N408    2.033   .     S
Cu389  O413    1.922   .     S
Cu389  O409    2.003   .     S
Cu389  Cu390   2.706   .     S
Cu390  O415    1.941   .     S
Cu390  O411    1.989   .     S
Cu390  N407    2.033   .     S
Cu390  O414    1.922   .     S
Cu390  O410    2.003   .     S
H391   C488    1.086   .     S
H392   C593    1.086   1_545 S
I402   C327    2.145   1_655 S
I405   N719    2.081   .     S
N408   I718    2.081   .     S
N408   N719    1.344   .     S
C417   O461    1.305   .     A
C417   O463    1.292   .     A
C417   C436    1.446   .     S
C418   C420    1.401   .     A
C418   C429    1.382   .     A
C418   I452    2.127   .     S
C419   C439    1.465   .     S
C419   C440    1.401   .     A
C419   C421    1.423   .     A
C420   C438    1.465   .     S
C420   C422    1.423   .     A
C421   C423    1.417   .     A
C421   C432    1.507   .     S
C422   C433    1.507   .     S
C422   C424    1.417   .     A
C423   C425    1.399   .     A
C423   C430    1.406   .     A
C424   C426    1.399   .     A
C424   C431    1.406   .     A
C425   C427    1.400   .     A
C425   C478    1.397   .     S
C426   C429    1.400   .     A
C426   C477    1.397   1_455 S
C427   C435    1.406   .     A
C427   C440    1.382   .     A
C428   O464    1.292   .     A
C428   O462    1.305   .     A
C428   C437    1.446   .     S
C429   C434    1.406   .     A
C430   C486    1.408   .     S
C430   I505    2.145   .     S
C431   C487    1.408   1_455 S
C431   I506    2.145   1_455 S
C432   H446    1.111   .     S
C432   H445    1.110   .     S
C432   H447    1.110   .     S
C433   H449    1.110   .     S
C433   H450    1.111   .     S
C433   H448    1.110   .     S
C434   I455    2.135   .     S
C434   C482    1.408   1_455 S
C435   I456    2.135   .     S
C435   C483    1.408   .     S
C437   C540    1.328   .     S
C437   H548    1.086   .     S
C438   O465    1.312   .     A
C438   O467    1.297   .     A
C439   O468    1.297   .     A
C439   O466    1.312   .     A
C440   I451    2.127   .     S
Cu441  O468    1.941   .     S
Cu441  O464    1.989   .     S
Cu441  N460    2.033   .     S
Cu441  O465    1.922   .     S
Cu441  O461    2.003   .     S
Cu441  Cu442   2.706   .     S
Cu442  O467    1.941   .     S
Cu442  O463    1.989   .     S
Cu442  N459    2.033   .     S
Cu442  O466    1.922   .     S
Cu442  O462    2.003   .     S
H443   C540    1.086   .     S
I453   C482    2.145   1_455 S
I454   C483    2.145   .     S
I457   N771    2.081   .     S
N460   I770    2.081   .     S
N460   N771    1.344   .     S
C469   O513    1.305   .     A
C469   O515    1.292   .     A
C469   C488    1.446   .     S
C470   C472    1.401   .     A
C470   C481    1.382   .     A
C470   I504    2.127   .     S
C471   C491    1.465   .     S
C471   C492    1.401   .     A
C471   C473    1.423   .     A
C472   C490    1.465   .     S
C472   C474    1.423   .     A
C473   C475    1.417   .     A
C473   C484    1.507   .     S
C474   C485    1.507   .     S
C474   C476    1.417   .     A
C475   C477    1.399   .     A
C475   C482    1.406   .     A
C476   C478    1.399   .     A
C476   C483    1.406   .     A
C477   C479    1.400   .     A
C477   C426    1.397   1_655 S
C478   C481    1.400   .     A
C479   C487    1.406   .     A
C479   C492    1.382   .     A
C480   O516    1.292   .     A
C480   O514    1.305   .     A
C480   C489    1.446   .     S
C481   C486    1.406   .     A
C482   C434    1.408   1_655 S
C482   I453    2.145   1_655 S
C484   H498    1.111   .     S
C484   H497    1.110   .     S
C484   H499    1.110   .     S
C485   H501    1.110   .     S
C485   H502    1.111   .     S
C485   H500    1.110   .     S
C486   I507    2.135   .     S
C487   I508    2.135   .     S
C487   C431    1.408   1_655 S
C489   C592    1.328   .     S
C489   H600    1.086   .     S
C490   O517    1.312   .     A
C490   O519    1.297   .     A
C491   O520    1.297   .     A
C491   O518    1.312   .     A
C492   I503    2.127   .     S
Cu493  O520    1.941   .     S
Cu493  O516    1.989   .     S
Cu493  N512    2.033   .     S
Cu493  O517    1.922   .     S
Cu493  O513    2.003   .     S
Cu493  Cu494   2.706   .     S
Cu494  O519    1.941   .     S
Cu494  O515    1.989   .     S
Cu494  N511    2.033   .     S
Cu494  O518    1.922   .     S
Cu494  O514    2.003   .     S
H495   C592    1.086   .     S
I506   C431    2.145   1_655 S
I509   N823    2.081   .     S
N512   I822    2.081   .     S
N512   N823    1.344   .     S
C521   O565    1.305   .     A
C521   O567    1.292   .     A
C521   C540    1.446   .     S
C522   C524    1.401   .     A
C522   C533    1.382   .     A
C522   I556    2.127   .     S
C523   C543    1.465   .     S
C523   C544    1.401   .     A
C523   C525    1.423   .     A
C524   C542    1.465   .     S
C524   C526    1.423   .     A
C525   C527    1.417   .     A
C525   C536    1.507   .     S
C526   C537    1.507   .     S
C526   C528    1.417   .     A
C527   C529    1.399   .     A
C527   C534    1.406   .     A
C528   C530    1.399   .     A
C528   C535    1.406   .     A
C529   C531    1.400   .     A
C529   C582    1.397   .     S
C530   C533    1.400   .     A
C530   C581    1.397   1_455 S
C531   C539    1.406   .     A
C531   C544    1.382   .     A
C532   O568    1.292   .     A
C532   O566    1.305   .     A
C532   C541    1.446   .     S
C533   C538    1.406   .     A
C534   C590    1.408   .     S
C534   I609    2.145   .     S
C535   C591    1.408   1_455 S
C535   I610    2.145   1_455 S
C536   H550    1.111   .     S
C536   H549    1.110   .     S
C536   H551    1.110   .     S
C537   H553    1.110   .     S
C537   H554    1.111   .     S
C537   H552    1.110   .     S
C538   I559    2.135   .     S
C538   C586    1.408   1_455 S
C539   I560    2.135   .     S
C539   C587    1.408   .     S
C541   C332    1.328   1_565 S
C541   H340    1.086   1_565 S
C542   O569    1.312   .     A
C542   O571    1.297   .     A
C543   O572    1.297   .     A
C543   O570    1.312   .     A
C544   I555    2.127   .     S
Cu545  O572    1.941   .     S
Cu545  O568    1.989   .     S
Cu545  N564    2.033   .     S
Cu545  O569    1.922   .     S
Cu545  O565    2.003   .     S
Cu545  Cu546   2.706   .     S
Cu546  O571    1.941   .     S
Cu546  O567    1.989   .     S
Cu546  N563    2.033   .     S
Cu546  O570    1.922   .     S
Cu546  O566    2.003   .     S
H547   C332    1.086   1_565 S
I557   C586    2.145   1_455 S
I558   C587    2.145   .     S
I561   N875    2.081   .     S
N564   I874    2.081   .     S
N564   N875    1.344   .     S
C573   O617    1.305   .     A
C573   O619    1.292   .     A
C573   C592    1.446   .     S
C574   C576    1.401   .     A
C574   C585    1.382   .     A
C574   I608    2.127   .     S
C575   C595    1.465   .     S
C575   C596    1.401   .     A
C575   C577    1.423   .     A
C576   C594    1.465   .     S
C576   C578    1.423   .     A
C577   C579    1.417   .     A
C577   C588    1.507   .     S
C578   C589    1.507   .     S
C578   C580    1.417   .     A
C579   C581    1.399   .     A
C579   C586    1.406   .     A
C580   C582    1.399   .     A
C580   C587    1.406   .     A
C581   C583    1.400   .     A
C581   C530    1.397   1_655 S
C582   C585    1.400   .     A
C583   C591    1.406   .     A
C583   C596    1.382   .     A
C584   O620    1.292   .     A
C584   O618    1.305   .     A
C584   C593    1.446   .     S
C585   C590    1.406   .     A
C586   C538    1.408   1_655 S
C586   I557    2.145   1_655 S
C588   H602    1.111   .     S
C588   H601    1.110   .     S
C588   H603    1.110   .     S
C589   H605    1.110   .     S
C589   H606    1.111   .     S
C589   H604    1.110   .     S
C590   I611    2.135   .     S
C591   I612    2.135   .     S
C591   C535    1.408   1_655 S
C593   C384    1.328   1_565 S
C593   H392    1.086   1_565 S
C594   O621    1.312   .     A
C594   O623    1.297   .     A
C595   O624    1.297   .     A
C595   O622    1.312   .     A
C596   I607    2.127   .     S
Cu597  O624    1.941   .     S
Cu597  O620    1.989   .     S
Cu597  N616    2.033   .     S
Cu597  O621    1.922   .     S
Cu597  O617    2.003   .     S
Cu597  Cu598   2.706   .     S
Cu598  O623    1.941   .     S
Cu598  O619    1.989   .     S
Cu598  N615    2.033   .     S
Cu598  O622    1.922   .     S
Cu598  O618    2.003   .     S
H599   C384    1.086   1_565 S
I610   C535    2.145   1_655 S
I613   N927    2.081   .     S
N616   I926    2.081   .     S
N616   N927    1.344   .     S
C625   O669    1.305   .     A
C625   O671    1.292   .     A
C625   C644    1.446   .     S
C626   C628    1.401   .     A
C626   C637    1.382   .     A
C626   I660    2.127   .     S
C627   C647    1.465   .     S
C627   C648    1.401   .     A
C627   C629    1.423   .     A
C628   C646    1.465   .     S
C628   C630    1.423   .     A
C629   C631    1.417   .     A
C629   C640    1.507   .     S
C630   C641    1.507   .     S
C630   C632    1.417   .     A
C631   C633    1.399   .     A
C631   C638    1.406   .     A
C632   C634    1.399   .     A
C632   C639    1.406   .     A
C633   C635    1.400   .     A
C633   C686    1.397   .     S
C634   C637    1.400   .     A
C634   C685    1.397   1_455 S
C635   C643    1.406   .     A
C635   C648    1.382   .     A
C636   O672    1.292   .     A
C636   O670    1.305   .     A
C636   C645    1.446   .     S
C637   C642    1.406   .     A
C638   C694    1.408   .     S
C638   I713    2.145   .     S
C639   C695    1.408   1_455 S
C639   I714    2.145   1_455 S
C640   H654    1.111   .     S
C640   H653    1.110   .     S
C640   H655    1.110   .     S
C641   H657    1.110   .     S
C641   H658    1.111   .     S
C641   H656    1.110   .     S
C642   I663    2.135   .     S
C642   C690    1.408   1_455 S
C643   I664    2.135   .     S
C643   C691    1.408   .     S
C644   C853    1.328   1_545 S
C644   H859    1.086   1_545 S
C645   C748    1.328   .     S
C645   H756    1.086   .     S
C646   O673    1.312   .     A
C646   O675    1.297   .     A
C647   O676    1.297   .     A
C647   O674    1.312   .     A
C648   I659    2.127   .     S
Cu649  O676    1.941   .     S
Cu649  O672    1.989   .     S
Cu649  N668    2.033   .     S
Cu649  O673    1.922   .     S
Cu649  O669    2.003   .     S
Cu649  Cu650   2.706   .     S
Cu650  O675    1.941   .     S
Cu650  O671    1.989   .     S
Cu650  N667    2.033   .     S
Cu650  O674    1.922   .     S
Cu650  O670    2.003   .     S
H651   C748    1.086   .     S
H652   C853    1.086   1_545 S
I661   C690    2.145   1_455 S
I662   C691    2.145   .     S
I665   N43     2.081   1_556 S
N668   I42     2.081   1_556 S
N668   N43     1.344   1_556 S
C677   O721    1.305   .     A
C677   O723    1.292   .     A
C677   C696    1.446   .     S
C678   C680    1.401   .     A
C678   C689    1.382   .     A
C678   I712    2.127   .     S
C679   C699    1.465   .     S
C679   C700    1.401   .     A
C679   C681    1.423   .     A
C680   C698    1.465   .     S
C680   C682    1.423   .     A
C681   C683    1.417   .     A
C681   C692    1.507   .     S
C682   C693    1.507   .     S
C682   C684    1.417   .     A
C683   C685    1.399   .     A
C683   C690    1.406   .     A
C684   C686    1.399   .     A
C684   C691    1.406   .     A
C685   C687    1.400   .     A
C685   C634    1.397   1_655 S
C686   C689    1.400   .     A
C687   C695    1.406   .     A
C687   C700    1.382   .     A
C688   O724    1.292   .     A
C688   O722    1.305   .     A
C688   C697    1.446   .     S
C689   C694    1.406   .     A
C690   C642    1.408   1_655 S
C690   I661    2.145   1_655 S
C692   H706    1.111   .     S
C692   H705    1.110   .     S
C692   H707    1.110   .     S
C693   H709    1.110   .     S
C693   H710    1.111   .     S
C693   H708    1.110   .     S
C694   I715    2.135   .     S
C695   I716    2.135   .     S
C695   C639    1.408   1_655 S
C696   C905    1.328   1_545 S
C696   H911    1.086   1_545 S
C697   C800    1.328   .     S
C697   H808    1.086   .     S
C698   O725    1.312   .     A
C698   O727    1.297   .     A
C699   O728    1.297   .     A
C699   O726    1.312   .     A
C700   I711    2.127   .     S
Cu701  O728    1.941   .     S
Cu701  O724    1.989   .     S
Cu701  N720    2.033   .     S
Cu701  O725    1.922   .     S
Cu701  O721    2.003   .     S
Cu701  Cu702   2.706   .     S
Cu702  O727    1.941   .     S
Cu702  O723    1.989   .     S
Cu702  N719    2.033   .     S
Cu702  O726    1.922   .     S
Cu702  O722    2.003   .     S
H703   C800    1.086   .     S
H704   C905    1.086   1_545 S
I714   C639    2.145   1_655 S
I717   N95     2.081   1_556 S
N720   I94     2.081   1_556 S
N720   N95     1.344   1_556 S
C729   O773    1.305   .     A
C729   O775    1.292   .     A
C729   C748    1.446   .     S
C730   C732    1.401   .     A
C730   C741    1.382   .     A
C730   I764    2.127   .     S
C731   C751    1.465   .     S
C731   C752    1.401   .     A
C731   C733    1.423   .     A
C732   C750    1.465   .     S
C732   C734    1.423   .     A
C733   C735    1.417   .     A
C733   C744    1.507   .     S
C734   C745    1.507   .     S
C734   C736    1.417   .     A
C735   C737    1.399   .     A
C735   C742    1.406   .     A
C736   C738    1.399   .     A
C736   C743    1.406   .     A
C737   C739    1.400   .     A
C737   C790    1.397   .     S
C738   C741    1.400   .     A
C738   C789    1.397   1_455 S
C739   C747    1.406   .     A
C739   C752    1.382   .     A
C740   O776    1.292   .     A
C740   O774    1.305   .     A
C740   C749    1.446   .     S
C741   C746    1.406   .     A
C742   C798    1.408   .     S
C742   I817    2.145   .     S
C743   C799    1.408   1_455 S
C743   I818    2.145   1_455 S
C744   H758    1.111   .     S
C744   H757    1.110   .     S
C744   H759    1.110   .     S
C745   H761    1.110   .     S
C745   H762    1.111   .     S
C745   H760    1.110   .     S
C746   I767    2.135   .     S
C746   C794    1.408   1_455 S
C747   I768    2.135   .     S
C747   C795    1.408   .     S
C749   C852    1.328   .     S
C749   H860    1.086   .     S
C750   O777    1.312   .     A
C750   O779    1.297   .     A
C751   O780    1.297   .     A
C751   O778    1.312   .     A
C752   I763    2.127   .     S
Cu753  O780    1.941   .     S
Cu753  O776    1.989   .     S
Cu753  N772    2.033   .     S
Cu753  O777    1.922   .     S
Cu753  O773    2.003   .     S
Cu753  Cu754   2.706   .     S
Cu754  O779    1.941   .     S
Cu754  O775    1.989   .     S
Cu754  N771    2.033   .     S
Cu754  O778    1.922   .     S
Cu754  O774    2.003   .     S
H755   C852    1.086   .     S
I765   C794    2.145   1_455 S
I766   C795    2.145   .     S
I769   N147    2.081   1_556 S
N772   I146    2.081   1_556 S
N772   N147    1.344   1_556 S
C781   O825    1.305   .     A
C781   O827    1.292   .     A
C781   C800    1.446   .     S
C782   C784    1.401   .     A
C782   C793    1.382   .     A
C782   I816    2.127   .     S
C783   C803    1.465   .     S
C783   C804    1.401   .     A
C783   C785    1.423   .     A
C784   C802    1.465   .     S
C784   C786    1.423   .     A
C785   C787    1.417   .     A
C785   C796    1.507   .     S
C786   C797    1.507   .     S
C786   C788    1.417   .     A
C787   C789    1.399   .     A
C787   C794    1.406   .     A
C788   C790    1.399   .     A
C788   C795    1.406   .     A
C789   C791    1.400   .     A
C789   C738    1.397   1_655 S
C790   C793    1.400   .     A
C791   C799    1.406   .     A
C791   C804    1.382   .     A
C792   O828    1.292   .     A
C792   O826    1.305   .     A
C792   C801    1.446   .     S
C793   C798    1.406   .     A
C794   C746    1.408   1_655 S
C794   I765    2.145   1_655 S
C796   H810    1.111   .     S
C796   H809    1.110   .     S
C796   H811    1.110   .     S
C797   H813    1.110   .     S
C797   H814    1.111   .     S
C797   H812    1.110   .     S
C798   I819    2.135   .     S
C799   I820    2.135   .     S
C799   C743    1.408   1_655 S
C801   C904    1.328   .     S
C801   H912    1.086   .     S
C802   O829    1.312   .     A
C802   O831    1.297   .     A
C803   O832    1.297   .     A
C803   O830    1.312   .     A
C804   I815    2.127   .     S
Cu805  O832    1.941   .     S
Cu805  O828    1.989   .     S
Cu805  N824    2.033   .     S
Cu805  O829    1.922   .     S
Cu805  O825    2.003   .     S
Cu805  Cu806   2.706   .     S
Cu806  O831    1.941   .     S
Cu806  O827    1.989   .     S
Cu806  N823    2.033   .     S
Cu806  O830    1.922   .     S
Cu806  O826    2.003   .     S
H807   C904    1.086   .     S
I818   C743    2.145   1_655 S
I821   N199    2.081   1_556 S
N824   I198    2.081   1_556 S
N824   N199    1.344   1_556 S
C833   O877    1.305   .     A
C833   O879    1.292   .     A
C833   C852    1.446   .     S
C834   C836    1.401   .     A
C834   C845    1.382   .     A
C834   I868    2.127   .     S
C835   C855    1.465   .     S
C835   C856    1.401   .     A
C835   C837    1.423   .     A
C836   C854    1.465   .     S
C836   C838    1.423   .     A
C837   C839    1.417   .     A
C837   C848    1.507   .     S
C838   C849    1.507   .     S
C838   C840    1.417   .     A
C839   C841    1.399   .     A
C839   C846    1.406   .     A
C840   C842    1.399   .     A
C840   C847    1.406   .     A
C841   C843    1.400   .     A
C841   C894    1.397   .     S
C842   C845    1.400   .     A
C842   C893    1.397   1_455 S
C843   C851    1.406   .     A
C843   C856    1.382   .     A
C844   O880    1.292   .     A
C844   O878    1.305   .     A
C844   C853    1.446   .     S
C845   C850    1.406   .     A
C846   C902    1.408   .     S
C846   I921    2.145   .     S
C847   C903    1.408   1_455 S
C847   I922    2.145   1_455 S
C848   H862    1.111   .     S
C848   H861    1.110   .     S
C848   H863    1.110   .     S
C849   H865    1.110   .     S
C849   H866    1.111   .     S
C849   H864    1.110   .     S
C850   I871    2.135   .     S
C850   C898    1.408   1_455 S
C851   I872    2.135   .     S
C851   C899    1.408   .     S
C853   C644    1.328   1_565 S
C853   H652    1.086   1_565 S
C854   O881    1.312   .     A
C854   O883    1.297   .     A
C855   O884    1.297   .     A
C855   O882    1.312   .     A
C856   I867    2.127   .     S
Cu857  O884    1.941   .     S
Cu857  O880    1.989   .     S
Cu857  N876    2.033   .     S
Cu857  O881    1.922   .     S
Cu857  O877    2.003   .     S
Cu857  Cu858   2.706   .     S
Cu858  O883    1.941   .     S
Cu858  O879    1.989   .     S
Cu858  N875    2.033   .     S
Cu858  O882    1.922   .     S
Cu858  O878    2.003   .     S
H859   C644    1.086   1_565 S
I869   C898    2.145   1_455 S
I870   C899    2.145   .     S
I873   N251    2.081   1_556 S
N876   I250    2.081   1_556 S
N876   N251    1.344   1_556 S
C885   O929    1.305   .     A
C885   O931    1.292   .     A
C885   C904    1.446   .     S
C886   C888    1.401   .     A
C886   C897    1.382   .     A
C886   I920    2.127   .     S
C887   C907    1.465   .     S
C887   C908    1.401   .     A
C887   C889    1.423   .     A
C888   C906    1.465   .     S
C888   C890    1.423   .     A
C889   C891    1.417   .     A
C889   C900    1.507   .     S
C890   C901    1.507   .     S
C890   C892    1.417   .     A
C891   C893    1.399   .     A
C891   C898    1.406   .     A
C892   C894    1.399   .     A
C892   C899    1.406   .     A
C893   C895    1.400   .     A
C893   C842    1.397   1_655 S
C894   C897    1.400   .     A
C895   C903    1.406   .     A
C895   C908    1.382   .     A
C896   O932    1.292   .     A
C896   O930    1.305   .     A
C896   C905    1.446   .     S
C897   C902    1.406   .     A
C898   C850    1.408   1_655 S
C898   I869    2.145   1_655 S
C900   H914    1.111   .     S
C900   H913    1.110   .     S
C900   H915    1.110   .     S
C901   H917    1.110   .     S
C901   H918    1.111   .     S
C901   H916    1.110   .     S
C902   I923    2.135   .     S
C903   I924    2.135   .     S
C903   C847    1.408   1_655 S
C905   C696    1.328   1_565 S
C905   H704    1.086   1_565 S
C906   O933    1.312   .     A
C906   O935    1.297   .     A
C907   O936    1.297   .     A
C907   O934    1.312   .     A
C908   I919    2.127   .     S
Cu909  O936    1.941   .     S
Cu909  O932    1.989   .     S
Cu909  N928    2.033   .     S
Cu909  O933    1.922   .     S
Cu909  O929    2.003   .     S
Cu909  Cu910   2.706   .     S
Cu910  O935    1.941   .     S
Cu910  O931    1.989   .     S
Cu910  N927    2.033   .     S
Cu910  O934    1.922   .     S
Cu910  O930    2.003   .     S
H911   C696    1.086   1_565 S
I922   C847    2.145   1_655 S
I925   N303    2.081   1_556 S
N928   I302    2.081   1_556 S
N928   N303    1.344   1_556 S
