data_str_m2_o1_o16_pcu_sym.70
_audit_creation_date              2020-01-03
_audit_creation_method            'Materials Studio'
_symmetry_space_group_name_H-M    'P1'
_symmetry_Int_Tables_number       1
_symmetry_cell_setting            triclinic
loop_
_symmetry_equiv_pos_as_xyz
  x,y,z
_cell_length_a                    28.5423
_cell_length_b                    32.5087
_cell_length_c                    26.8142
_cell_angle_alpha                 89.7506
_cell_angle_beta                  73.0379
_cell_angle_gamma                 89.6404
loop_
_atom_site_label
_atom_site_type_symbol
_atom_site_fract_x
_atom_site_fract_y
_atom_site_fract_z
_atom_site_U_iso_or_equiv
_atom_site_adp_type
_atom_site_occupancy
C1     C     0.16680   0.24600   0.24860   0.00000  Uiso   1.00
C2     C     0.12741   0.14812   0.40490   0.00000  Uiso   1.00
C3     C     0.20305   0.31166   0.26225   0.00000  Uiso   1.00
C4     C     0.14118   0.16056   0.34924   0.00000  Uiso   1.00
C5     C     0.20356   0.02086   0.26257   0.00000  Uiso   1.00
C6     C     0.16737   0.04293   0.24817   0.00000  Uiso   1.00
C7     C     0.13154   0.02237   0.23193   0.00000  Uiso   1.00
C8     C     0.13113   0.31313   0.23058   0.00000  Uiso   1.00
C9     C     0.16672   0.29073   0.24690   0.00000  Uiso   1.00
C10    C     0.29905   0.19082   0.28399   0.00000  Uiso   1.00
C11    C     0.01532   0.19076   0.28405   0.00000  Uiso   1.00
C12    C     0.14771   0.14526   0.48753   0.00000  Uiso   1.00
C13    C     0.03428   0.14252   0.21599   0.00000  Uiso   1.00
C14    C     0.31798   0.14252   0.21603   0.00000  Uiso   1.00
C15    C     0.16690   0.08741   0.24956   0.00000  Uiso   1.00
C16    C     0.19279   0.16763   0.14977   0.00000  Uiso   1.00
C17    C     0.26847   0.16930   0.00771   0.00000  Uiso   1.00
C18    C     0.20775   0.16693   0.09235   0.00000  Uiso   1.00
C19    C     0.07767   0.14377   0.43226   0.00000  Uiso   1.00
C20    C     0.06334   0.13754   0.48590   0.00000  Uiso   1.00
C21    C     0.09731   0.14047   0.01376   0.00000  Uiso   1.00
C22    C     0.16298   0.14258   0.43232   0.00000  Uiso   1.00
C23    C     0.18364   0.15276   0.01369   0.00000  Uiso   1.00
C24    C     0.23338   0.15660   0.48413   0.00000  Uiso   1.00
C25    C     0.24801   0.14531   0.43185   0.00000  Uiso   1.00
C26    C     0.21323   0.13467   0.40738   0.00000  Uiso   1.00
C27    C     0.17184   0.15760   0.06789   0.00000  Uiso   1.00
C28    C     0.25619   0.17467   0.06151   0.00000  Uiso   1.00
Cl29   Cl    0.30266   0.19195   0.08749   0.00000  Uiso   1.00
Cl30   Cl    0.08647   0.29028   0.20596   0.00000  Uiso   1.00
Cl31   Cl    0.23294   0.10034   0.35451   0.00000  Uiso   1.00
Cu32   Cu    0.11978   0.16666   0.25000   0.00000  Uiso   1.00
Cu33   Cu    0.21355   0.16667   0.25000   0.00000  Uiso   1.00
H34    H     0.23178   0.03639   0.27480   0.00000  Uiso   1.00
H35    H     0.04979   0.14511   0.41222   0.00000  Uiso   1.00
H36    H     0.08294   0.13813   0.05552   0.00000  Uiso   1.00
H37    H     0.02539   0.13196   0.00656   0.00000  Uiso   1.00
H38    H     0.23083   0.29518   0.27468   0.00000  Uiso   1.00
H39    H     0.10416   0.03941   0.21947   0.00000  Uiso   1.00
H40    H     0.27277   0.21016   0.31125   0.00000  Uiso   1.00
H41    H     0.02643   0.21008   0.31134   0.00000  Uiso   1.00
H42    H     0.06055   0.12314   0.18879   0.00000  Uiso   1.00
H43    H     0.30684   0.12315   0.18883   0.00000  Uiso   1.00
H44    H     0.28660   0.14198   0.41106   0.00000  Uiso   1.00
H45    H     0.30554   0.17522   0.48397   0.00000  Uiso   1.00
H46    H     0.13481   0.15371   0.09208   0.00000  Uiso   1.00
N47    N     0.04931   0.16666   0.24998   0.00000  Uiso   1.00
N48    N     0.28402   0.16669   0.24999   0.00000  Uiso   1.00
O49    O     0.12708   0.22678   0.25000   0.00000  Uiso   1.00
O50    O     0.20627   0.22679   0.25000   0.00000  Uiso   1.00
O51    O     0.10775   0.16665   0.32549   0.00000  Uiso   1.00
O52    O     0.18694   0.16666   0.32549   0.00000  Uiso   1.00
O53    O     0.12706   0.10654   0.24999   0.00000  Uiso   1.00
O54    O     0.20625   0.10655   0.24999   0.00000  Uiso   1.00
O55    O     0.14640   0.16667   0.17451   0.00000  Uiso   1.00
O56    O     0.22559   0.16668   0.17451   0.00000  Uiso   1.00
C57    C     0.50014   0.24600   0.24860   0.00000  Uiso   1.00
C58    C     0.46074   0.14812   0.40490   0.00000  Uiso   1.00
C59    C     0.53638   0.31166   0.26225   0.00000  Uiso   1.00
C60    C     0.47452   0.16056   0.34924   0.00000  Uiso   1.00
C61    C     0.53689   0.02086   0.26257   0.00000  Uiso   1.00
C62    C     0.50070   0.04293   0.24817   0.00000  Uiso   1.00
C63    C     0.46487   0.02237   0.23193   0.00000  Uiso   1.00
C64    C     0.46446   0.31313   0.23058   0.00000  Uiso   1.00
C65    C     0.50005   0.29073   0.24690   0.00000  Uiso   1.00
C66    C     0.63239   0.19082   0.28399   0.00000  Uiso   1.00
C67    C     0.34865   0.19076   0.28405   0.00000  Uiso   1.00
C68    C     0.48104   0.14526   0.48753   0.00000  Uiso   1.00
C69    C     0.36761   0.14252   0.21599   0.00000  Uiso   1.00
C70    C     0.65132   0.14252   0.21603   0.00000  Uiso   1.00
C71    C     0.50024   0.08741   0.24956   0.00000  Uiso   1.00
C72    C     0.52612   0.16763   0.14977   0.00000  Uiso   1.00
C73    C     0.60180   0.16930   0.00771   0.00000  Uiso   1.00
C74    C     0.54109   0.16693   0.09235   0.00000  Uiso   1.00
C75    C     0.41101   0.14377   0.43226   0.00000  Uiso   1.00
C76    C     0.39668   0.13754   0.48590   0.00000  Uiso   1.00
C77    C     0.43064   0.14047   0.01376   0.00000  Uiso   1.00
C78    C     0.49631   0.14258   0.43232   0.00000  Uiso   1.00
C79    C     0.51697   0.15276   0.01369   0.00000  Uiso   1.00
C80    C     0.56671   0.15660   0.48413   0.00000  Uiso   1.00
C81    C     0.58135   0.14531   0.43185   0.00000  Uiso   1.00
C82    C     0.54656   0.13467   0.40738   0.00000  Uiso   1.00
C83    C     0.50517   0.15760   0.06789   0.00000  Uiso   1.00
C84    C     0.58952   0.17467   0.06151   0.00000  Uiso   1.00
Cl85   Cl    0.63599   0.19195   0.08749   0.00000  Uiso   1.00
Cl86   Cl    0.41980   0.29028   0.20596   0.00000  Uiso   1.00
Cl87   Cl    0.56628   0.10034   0.35451   0.00000  Uiso   1.00
Cu88   Cu    0.45311   0.16666   0.25000   0.00000  Uiso   1.00
Cu89   Cu    0.54689   0.16667   0.25000   0.00000  Uiso   1.00
H90    H     0.56512   0.03639   0.27480   0.00000  Uiso   1.00
H91    H     0.38312   0.14511   0.41222   0.00000  Uiso   1.00
H92    H     0.41627   0.13813   0.05552   0.00000  Uiso   1.00
H93    H     0.35872   0.13196   0.00656   0.00000  Uiso   1.00
H94    H     0.56416   0.29518   0.27468   0.00000  Uiso   1.00
H95    H     0.43749   0.03941   0.21947   0.00000  Uiso   1.00
H96    H     0.60610   0.21016   0.31125   0.00000  Uiso   1.00
H97    H     0.35976   0.21008   0.31134   0.00000  Uiso   1.00
H98    H     0.39388   0.12314   0.18879   0.00000  Uiso   1.00
H99    H     0.64018   0.12315   0.18883   0.00000  Uiso   1.00
H100   H     0.61994   0.14198   0.41106   0.00000  Uiso   1.00
H101   H     0.63887   0.17522   0.48397   0.00000  Uiso   1.00
H102   H     0.46814   0.15371   0.09208   0.00000  Uiso   1.00
N103   N     0.38265   0.16666   0.24998   0.00000  Uiso   1.00
N104   N     0.61735   0.16669   0.24999   0.00000  Uiso   1.00
O105   O     0.46042   0.22678   0.25000   0.00000  Uiso   1.00
O106   O     0.53961   0.22679   0.25000   0.00000  Uiso   1.00
O107   O     0.44108   0.16665   0.32549   0.00000  Uiso   1.00
O108   O     0.52027   0.16666   0.32549   0.00000  Uiso   1.00
O109   O     0.46039   0.10654   0.24999   0.00000  Uiso   1.00
O110   O     0.53958   0.10655   0.24999   0.00000  Uiso   1.00
O111   O     0.47973   0.16667   0.17451   0.00000  Uiso   1.00
O112   O     0.55892   0.16668   0.17451   0.00000  Uiso   1.00
C113   C     0.83347   0.24600   0.24860   0.00000  Uiso   1.00
C114   C     0.79407   0.14812   0.40490   0.00000  Uiso   1.00
C115   C     0.86972   0.31166   0.26225   0.00000  Uiso   1.00
C116   C     0.80785   0.16056   0.34924   0.00000  Uiso   1.00
C117   C     0.87023   0.02086   0.26257   0.00000  Uiso   1.00
C118   C     0.83403   0.04293   0.24817   0.00000  Uiso   1.00
C119   C     0.79820   0.02237   0.23193   0.00000  Uiso   1.00
C120   C     0.79779   0.31313   0.23058   0.00000  Uiso   1.00
C121   C     0.83339   0.29073   0.24690   0.00000  Uiso   1.00
C122   C     0.96572   0.19082   0.28399   0.00000  Uiso   1.00
C123   C     0.68199   0.19076   0.28405   0.00000  Uiso   1.00
C124   C     0.81437   0.14526   0.48753   0.00000  Uiso   1.00
C125   C     0.70095   0.14252   0.21599   0.00000  Uiso   1.00
C126   C     0.98465   0.14252   0.21603   0.00000  Uiso   1.00
C127   C     0.83357   0.08741   0.24956   0.00000  Uiso   1.00
C128   C     0.85945   0.16763   0.14977   0.00000  Uiso   1.00
C129   C     0.93513   0.16930   0.00771   0.00000  Uiso   1.00
C130   C     0.87442   0.16693   0.09235   0.00000  Uiso   1.00
C131   C     0.74434   0.14377   0.43226   0.00000  Uiso   1.00
C132   C     0.73001   0.13754   0.48590   0.00000  Uiso   1.00
C133   C     0.76398   0.14047   0.01376   0.00000  Uiso   1.00
C134   C     0.82965   0.14258   0.43232   0.00000  Uiso   1.00
C135   C     0.85031   0.15276   0.01369   0.00000  Uiso   1.00
C136   C     0.90004   0.15660   0.48413   0.00000  Uiso   1.00
C137   C     0.91468   0.14531   0.43185   0.00000  Uiso   1.00
C138   C     0.87990   0.13467   0.40738   0.00000  Uiso   1.00
C139   C     0.83851   0.15760   0.06789   0.00000  Uiso   1.00
C140   C     0.92285   0.17467   0.06151   0.00000  Uiso   1.00
Cl141  Cl    0.96933   0.19195   0.08749   0.00000  Uiso   1.00
Cl142  Cl    0.75314   0.29028   0.20596   0.00000  Uiso   1.00
Cl143  Cl    0.89961   0.10034   0.35451   0.00000  Uiso   1.00
Cu144  Cu    0.78645   0.16666   0.25000   0.00000  Uiso   1.00
Cu145  Cu    0.88022   0.16667   0.25000   0.00000  Uiso   1.00
H146   H     0.89845   0.03639   0.27480   0.00000  Uiso   1.00
H147   H     0.71646   0.14511   0.41222   0.00000  Uiso   1.00
H148   H     0.74960   0.13813   0.05552   0.00000  Uiso   1.00
H149   H     0.69206   0.13196   0.00656   0.00000  Uiso   1.00
H150   H     0.89750   0.29518   0.27468   0.00000  Uiso   1.00
H151   H     0.77082   0.03941   0.21947   0.00000  Uiso   1.00
H152   H     0.93943   0.21016   0.31125   0.00000  Uiso   1.00
H153   H     0.69310   0.21008   0.31134   0.00000  Uiso   1.00
H154   H     0.72722   0.12314   0.18879   0.00000  Uiso   1.00
H155   H     0.97351   0.12315   0.18883   0.00000  Uiso   1.00
H156   H     0.95327   0.14198   0.41106   0.00000  Uiso   1.00
H157   H     0.97220   0.17522   0.48397   0.00000  Uiso   1.00
H158   H     0.80148   0.15371   0.09208   0.00000  Uiso   1.00
N159   N     0.71598   0.16666   0.24998   0.00000  Uiso   1.00
N160   N     0.95069   0.16669   0.24999   0.00000  Uiso   1.00
O161   O     0.79375   0.22678   0.25000   0.00000  Uiso   1.00
O162   O     0.87294   0.22679   0.25000   0.00000  Uiso   1.00
O163   O     0.77441   0.16665   0.32549   0.00000  Uiso   1.00
O164   O     0.85360   0.16666   0.32549   0.00000  Uiso   1.00
O165   O     0.79373   0.10654   0.24999   0.00000  Uiso   1.00
O166   O     0.87292   0.10655   0.24999   0.00000  Uiso   1.00
O167   O     0.81306   0.16667   0.17451   0.00000  Uiso   1.00
O168   O     0.89225   0.16668   0.17451   0.00000  Uiso   1.00
C169   C     0.16680   0.57934   0.24860   0.00000  Uiso   1.00
C170   C     0.12741   0.48145   0.40490   0.00000  Uiso   1.00
C171   C     0.20305   0.64500   0.26225   0.00000  Uiso   1.00
C172   C     0.14118   0.49389   0.34924   0.00000  Uiso   1.00
C173   C     0.20356   0.35420   0.26257   0.00000  Uiso   1.00
C174   C     0.16737   0.37626   0.24817   0.00000  Uiso   1.00
C175   C     0.13154   0.35570   0.23193   0.00000  Uiso   1.00
C176   C     0.13113   0.64646   0.23058   0.00000  Uiso   1.00
C177   C     0.16672   0.62406   0.24690   0.00000  Uiso   1.00
C178   C     0.29905   0.52416   0.28399   0.00000  Uiso   1.00
C179   C     0.01532   0.52409   0.28405   0.00000  Uiso   1.00
C180   C     0.14771   0.47860   0.48753   0.00000  Uiso   1.00
C181   C     0.03428   0.47585   0.21599   0.00000  Uiso   1.00
C182   C     0.31798   0.47585   0.21603   0.00000  Uiso   1.00
C183   C     0.16690   0.42075   0.24956   0.00000  Uiso   1.00
C184   C     0.19279   0.50097   0.14977   0.00000  Uiso   1.00
C185   C     0.26847   0.50263   0.00771   0.00000  Uiso   1.00
C186   C     0.20775   0.50026   0.09235   0.00000  Uiso   1.00
C187   C     0.07767   0.47710   0.43226   0.00000  Uiso   1.00
C188   C     0.06334   0.47087   0.48590   0.00000  Uiso   1.00
C189   C     0.09731   0.47381   0.01376   0.00000  Uiso   1.00
C190   C     0.16298   0.47591   0.43232   0.00000  Uiso   1.00
C191   C     0.18364   0.48609   0.01369   0.00000  Uiso   1.00
C192   C     0.23338   0.48993   0.48413   0.00000  Uiso   1.00
C193   C     0.24801   0.47864   0.43185   0.00000  Uiso   1.00
C194   C     0.21323   0.46800   0.40738   0.00000  Uiso   1.00
C195   C     0.17184   0.49094   0.06789   0.00000  Uiso   1.00
C196   C     0.25619   0.50800   0.06151   0.00000  Uiso   1.00
Cl197  Cl    0.30266   0.52529   0.08749   0.00000  Uiso   1.00
Cl198  Cl    0.08647   0.62361   0.20596   0.00000  Uiso   1.00
Cl199  Cl    0.23294   0.43367   0.35451   0.00000  Uiso   1.00
Cu200  Cu    0.11978   0.49999   0.25000   0.00000  Uiso   1.00
Cu201  Cu    0.21355   0.50001   0.25000   0.00000  Uiso   1.00
H202   H     0.23178   0.36972   0.27480   0.00000  Uiso   1.00
H203   H     0.04979   0.47844   0.41222   0.00000  Uiso   1.00
H204   H     0.08294   0.47146   0.05552   0.00000  Uiso   1.00
H205   H     0.02539   0.46530   0.00656   0.00000  Uiso   1.00
H206   H     0.23083   0.62852   0.27468   0.00000  Uiso   1.00
H207   H     0.10416   0.37275   0.21947   0.00000  Uiso   1.00
H208   H     0.27277   0.54350   0.31125   0.00000  Uiso   1.00
H209   H     0.02643   0.54341   0.31134   0.00000  Uiso   1.00
H210   H     0.06055   0.45647   0.18879   0.00000  Uiso   1.00
H211   H     0.30684   0.45648   0.18883   0.00000  Uiso   1.00
H212   H     0.28660   0.47532   0.41106   0.00000  Uiso   1.00
H213   H     0.30554   0.50856   0.48397   0.00000  Uiso   1.00
H214   H     0.13481   0.48705   0.09208   0.00000  Uiso   1.00
N215   N     0.04931   0.49999   0.24998   0.00000  Uiso   1.00
N216   N     0.28402   0.50002   0.24999   0.00000  Uiso   1.00
O217   O     0.12708   0.56011   0.25000   0.00000  Uiso   1.00
O218   O     0.20627   0.56012   0.25000   0.00000  Uiso   1.00
O219   O     0.10775   0.49998   0.32549   0.00000  Uiso   1.00
O220   O     0.18694   0.49999   0.32549   0.00000  Uiso   1.00
O221   O     0.12706   0.43988   0.24999   0.00000  Uiso   1.00
O222   O     0.20625   0.43989   0.24999   0.00000  Uiso   1.00
O223   O     0.14640   0.50001   0.17451   0.00000  Uiso   1.00
O224   O     0.22559   0.50002   0.17451   0.00000  Uiso   1.00
C225   C     0.50014   0.57934   0.24860   0.00000  Uiso   1.00
C226   C     0.46074   0.48145   0.40490   0.00000  Uiso   1.00
C227   C     0.53638   0.64500   0.26225   0.00000  Uiso   1.00
C228   C     0.47452   0.49389   0.34924   0.00000  Uiso   1.00
C229   C     0.53689   0.35420   0.26257   0.00000  Uiso   1.00
C230   C     0.50070   0.37626   0.24817   0.00000  Uiso   1.00
C231   C     0.46487   0.35570   0.23193   0.00000  Uiso   1.00
C232   C     0.46446   0.64646   0.23058   0.00000  Uiso   1.00
C233   C     0.50005   0.62406   0.24690   0.00000  Uiso   1.00
C234   C     0.63239   0.52416   0.28399   0.00000  Uiso   1.00
C235   C     0.34865   0.52409   0.28405   0.00000  Uiso   1.00
C236   C     0.48104   0.47860   0.48753   0.00000  Uiso   1.00
C237   C     0.36761   0.47585   0.21599   0.00000  Uiso   1.00
C238   C     0.65132   0.47585   0.21603   0.00000  Uiso   1.00
C239   C     0.50024   0.42075   0.24956   0.00000  Uiso   1.00
C240   C     0.52612   0.50097   0.14977   0.00000  Uiso   1.00
C241   C     0.60180   0.50263   0.00771   0.00000  Uiso   1.00
C242   C     0.54109   0.50026   0.09235   0.00000  Uiso   1.00
C243   C     0.41101   0.47710   0.43226   0.00000  Uiso   1.00
C244   C     0.39668   0.47087   0.48590   0.00000  Uiso   1.00
C245   C     0.43064   0.47381   0.01376   0.00000  Uiso   1.00
C246   C     0.49631   0.47591   0.43232   0.00000  Uiso   1.00
C247   C     0.51697   0.48609   0.01369   0.00000  Uiso   1.00
C248   C     0.56671   0.48993   0.48413   0.00000  Uiso   1.00
C249   C     0.58135   0.47864   0.43185   0.00000  Uiso   1.00
C250   C     0.54656   0.46800   0.40738   0.00000  Uiso   1.00
C251   C     0.50517   0.49094   0.06789   0.00000  Uiso   1.00
C252   C     0.58952   0.50800   0.06151   0.00000  Uiso   1.00
Cl253  Cl    0.63599   0.52529   0.08749   0.00000  Uiso   1.00
Cl254  Cl    0.41980   0.62361   0.20596   0.00000  Uiso   1.00
Cl255  Cl    0.56628   0.43367   0.35451   0.00000  Uiso   1.00
Cu256  Cu    0.45311   0.49999   0.25000   0.00000  Uiso   1.00
Cu257  Cu    0.54689   0.50001   0.25000   0.00000  Uiso   1.00
H258   H     0.56512   0.36972   0.27480   0.00000  Uiso   1.00
H259   H     0.38312   0.47844   0.41222   0.00000  Uiso   1.00
H260   H     0.41627   0.47146   0.05552   0.00000  Uiso   1.00
H261   H     0.35872   0.46530   0.00656   0.00000  Uiso   1.00
H262   H     0.56416   0.62852   0.27468   0.00000  Uiso   1.00
H263   H     0.43749   0.37275   0.21947   0.00000  Uiso   1.00
H264   H     0.60610   0.54350   0.31125   0.00000  Uiso   1.00
H265   H     0.35976   0.54341   0.31134   0.00000  Uiso   1.00
H266   H     0.39388   0.45647   0.18879   0.00000  Uiso   1.00
H267   H     0.64018   0.45648   0.18883   0.00000  Uiso   1.00
H268   H     0.61994   0.47532   0.41106   0.00000  Uiso   1.00
H269   H     0.63887   0.50856   0.48397   0.00000  Uiso   1.00
H270   H     0.46814   0.48705   0.09208   0.00000  Uiso   1.00
N271   N     0.38265   0.49999   0.24998   0.00000  Uiso   1.00
N272   N     0.61735   0.50002   0.24999   0.00000  Uiso   1.00
O273   O     0.46042   0.56011   0.25000   0.00000  Uiso   1.00
O274   O     0.53961   0.56012   0.25000   0.00000  Uiso   1.00
O275   O     0.44108   0.49998   0.32549   0.00000  Uiso   1.00
O276   O     0.52027   0.49999   0.32549   0.00000  Uiso   1.00
O277   O     0.46039   0.43988   0.24999   0.00000  Uiso   1.00
O278   O     0.53958   0.43989   0.24999   0.00000  Uiso   1.00
O279   O     0.47973   0.50001   0.17451   0.00000  Uiso   1.00
O280   O     0.55892   0.50002   0.17451   0.00000  Uiso   1.00
C281   C     0.83347   0.57934   0.24860   0.00000  Uiso   1.00
C282   C     0.79407   0.48145   0.40490   0.00000  Uiso   1.00
C283   C     0.86972   0.64500   0.26225   0.00000  Uiso   1.00
C284   C     0.80785   0.49389   0.34924   0.00000  Uiso   1.00
C285   C     0.87023   0.35420   0.26257   0.00000  Uiso   1.00
C286   C     0.83403   0.37626   0.24817   0.00000  Uiso   1.00
C287   C     0.79820   0.35570   0.23193   0.00000  Uiso   1.00
C288   C     0.79779   0.64646   0.23058   0.00000  Uiso   1.00
C289   C     0.83339   0.62406   0.24690   0.00000  Uiso   1.00
C290   C     0.96572   0.52416   0.28399   0.00000  Uiso   1.00
C291   C     0.68199   0.52409   0.28405   0.00000  Uiso   1.00
C292   C     0.81437   0.47860   0.48753   0.00000  Uiso   1.00
C293   C     0.70095   0.47585   0.21599   0.00000  Uiso   1.00
C294   C     0.98465   0.47585   0.21603   0.00000  Uiso   1.00
C295   C     0.83357   0.42075   0.24956   0.00000  Uiso   1.00
C296   C     0.85945   0.50097   0.14977   0.00000  Uiso   1.00
C297   C     0.93513   0.50263   0.00771   0.00000  Uiso   1.00
C298   C     0.87442   0.50026   0.09235   0.00000  Uiso   1.00
C299   C     0.74434   0.47710   0.43226   0.00000  Uiso   1.00
C300   C     0.73001   0.47087   0.48590   0.00000  Uiso   1.00
C301   C     0.76398   0.47381   0.01376   0.00000  Uiso   1.00
C302   C     0.82965   0.47591   0.43232   0.00000  Uiso   1.00
C303   C     0.85031   0.48609   0.01369   0.00000  Uiso   1.00
C304   C     0.90004   0.48993   0.48413   0.00000  Uiso   1.00
C305   C     0.91468   0.47864   0.43185   0.00000  Uiso   1.00
C306   C     0.87990   0.46800   0.40738   0.00000  Uiso   1.00
C307   C     0.83851   0.49094   0.06789   0.00000  Uiso   1.00
C308   C     0.92285   0.50800   0.06151   0.00000  Uiso   1.00
Cl309  Cl    0.96933   0.52529   0.08749   0.00000  Uiso   1.00
Cl310  Cl    0.75314   0.62361   0.20596   0.00000  Uiso   1.00
Cl311  Cl    0.89961   0.43367   0.35451   0.00000  Uiso   1.00
Cu312  Cu    0.78645   0.49999   0.25000   0.00000  Uiso   1.00
Cu313  Cu    0.88022   0.50001   0.25000   0.00000  Uiso   1.00
H314   H     0.89845   0.36972   0.27480   0.00000  Uiso   1.00
H315   H     0.71646   0.47844   0.41222   0.00000  Uiso   1.00
H316   H     0.74960   0.47146   0.05552   0.00000  Uiso   1.00
H317   H     0.69206   0.46530   0.00656   0.00000  Uiso   1.00
H318   H     0.89750   0.62852   0.27468   0.00000  Uiso   1.00
H319   H     0.77082   0.37275   0.21947   0.00000  Uiso   1.00
H320   H     0.93943   0.54350   0.31125   0.00000  Uiso   1.00
H321   H     0.69310   0.54341   0.31134   0.00000  Uiso   1.00
H322   H     0.72722   0.45647   0.18879   0.00000  Uiso   1.00
H323   H     0.97351   0.45648   0.18883   0.00000  Uiso   1.00
H324   H     0.95327   0.47532   0.41106   0.00000  Uiso   1.00
H325   H     0.97220   0.50856   0.48397   0.00000  Uiso   1.00
H326   H     0.80148   0.48705   0.09208   0.00000  Uiso   1.00
N327   N     0.71598   0.49999   0.24998   0.00000  Uiso   1.00
N328   N     0.95069   0.50002   0.24999   0.00000  Uiso   1.00
O329   O     0.79375   0.56011   0.25000   0.00000  Uiso   1.00
O330   O     0.87294   0.56012   0.25000   0.00000  Uiso   1.00
O331   O     0.77441   0.49998   0.32549   0.00000  Uiso   1.00
O332   O     0.85360   0.49999   0.32549   0.00000  Uiso   1.00
O333   O     0.79373   0.43988   0.24999   0.00000  Uiso   1.00
O334   O     0.87292   0.43989   0.24999   0.00000  Uiso   1.00
O335   O     0.81306   0.50001   0.17451   0.00000  Uiso   1.00
O336   O     0.89225   0.50002   0.17451   0.00000  Uiso   1.00
C337   C     0.16680   0.91267   0.24860   0.00000  Uiso   1.00
C338   C     0.12741   0.81479   0.40490   0.00000  Uiso   1.00
C339   C     0.20305   0.97833   0.26225   0.00000  Uiso   1.00
C340   C     0.14118   0.82723   0.34924   0.00000  Uiso   1.00
C341   C     0.20356   0.68753   0.26257   0.00000  Uiso   1.00
C342   C     0.16737   0.70960   0.24817   0.00000  Uiso   1.00
C343   C     0.13154   0.68903   0.23193   0.00000  Uiso   1.00
C344   C     0.13113   0.97979   0.23058   0.00000  Uiso   1.00
C345   C     0.16672   0.95739   0.24690   0.00000  Uiso   1.00
C346   C     0.29905   0.85749   0.28399   0.00000  Uiso   1.00
C347   C     0.01532   0.85743   0.28405   0.00000  Uiso   1.00
C348   C     0.14771   0.81193   0.48753   0.00000  Uiso   1.00
C349   C     0.03428   0.80919   0.21599   0.00000  Uiso   1.00
C350   C     0.31798   0.80918   0.21603   0.00000  Uiso   1.00
C351   C     0.16690   0.75408   0.24956   0.00000  Uiso   1.00
C352   C     0.19279   0.83430   0.14977   0.00000  Uiso   1.00
C353   C     0.26847   0.83597   0.00771   0.00000  Uiso   1.00
C354   C     0.20775   0.83360   0.09235   0.00000  Uiso   1.00
C355   C     0.07767   0.81044   0.43226   0.00000  Uiso   1.00
C356   C     0.06334   0.80421   0.48590   0.00000  Uiso   1.00
C357   C     0.09731   0.80714   0.01376   0.00000  Uiso   1.00
C358   C     0.16298   0.80925   0.43232   0.00000  Uiso   1.00
C359   C     0.18364   0.81943   0.01369   0.00000  Uiso   1.00
C360   C     0.23338   0.82326   0.48413   0.00000  Uiso   1.00
C361   C     0.24801   0.81197   0.43185   0.00000  Uiso   1.00
C362   C     0.21323   0.80134   0.40738   0.00000  Uiso   1.00
C363   C     0.17184   0.82427   0.06789   0.00000  Uiso   1.00
C364   C     0.25619   0.84133   0.06151   0.00000  Uiso   1.00
Cl365  Cl    0.30266   0.85862   0.08749   0.00000  Uiso   1.00
Cl366  Cl    0.08647   0.95694   0.20596   0.00000  Uiso   1.00
Cl367  Cl    0.23294   0.76701   0.35451   0.00000  Uiso   1.00
Cu368  Cu    0.11978   0.83333   0.25000   0.00000  Uiso   1.00
Cu369  Cu    0.21355   0.83334   0.25000   0.00000  Uiso   1.00
H370   H     0.23178   0.70306   0.27480   0.00000  Uiso   1.00
H371   H     0.04979   0.81178   0.41222   0.00000  Uiso   1.00
H372   H     0.08294   0.80480   0.05552   0.00000  Uiso   1.00
H373   H     0.02539   0.79863   0.00656   0.00000  Uiso   1.00
H374   H     0.23083   0.96185   0.27468   0.00000  Uiso   1.00
H375   H     0.10416   0.70608   0.21947   0.00000  Uiso   1.00
H376   H     0.27277   0.87683   0.31125   0.00000  Uiso   1.00
H377   H     0.02643   0.87675   0.31134   0.00000  Uiso   1.00
H378   H     0.06055   0.78980   0.18879   0.00000  Uiso   1.00
H379   H     0.30684   0.78981   0.18883   0.00000  Uiso   1.00
H380   H     0.28660   0.80865   0.41106   0.00000  Uiso   1.00
H381   H     0.30554   0.84189   0.48397   0.00000  Uiso   1.00
H382   H     0.13481   0.82038   0.09208   0.00000  Uiso   1.00
N383   N     0.04931   0.83332   0.24998   0.00000  Uiso   1.00
N384   N     0.28402   0.83335   0.24999   0.00000  Uiso   1.00
O385   O     0.12708   0.89345   0.25000   0.00000  Uiso   1.00
O386   O     0.20627   0.89346   0.25000   0.00000  Uiso   1.00
O387   O     0.10775   0.83332   0.32549   0.00000  Uiso   1.00
O388   O     0.18694   0.83333   0.32549   0.00000  Uiso   1.00
O389   O     0.12706   0.77321   0.24999   0.00000  Uiso   1.00
O390   O     0.20625   0.77322   0.24999   0.00000  Uiso   1.00
O391   O     0.14640   0.83334   0.17451   0.00000  Uiso   1.00
O392   O     0.22559   0.83335   0.17451   0.00000  Uiso   1.00
C393   C     0.50014   0.91267   0.24860   0.00000  Uiso   1.00
C394   C     0.46074   0.81479   0.40490   0.00000  Uiso   1.00
C395   C     0.53638   0.97833   0.26225   0.00000  Uiso   1.00
C396   C     0.47452   0.82723   0.34924   0.00000  Uiso   1.00
C397   C     0.53689   0.68753   0.26257   0.00000  Uiso   1.00
C398   C     0.50070   0.70960   0.24817   0.00000  Uiso   1.00
C399   C     0.46487   0.68903   0.23193   0.00000  Uiso   1.00
C400   C     0.46446   0.97979   0.23058   0.00000  Uiso   1.00
C401   C     0.50005   0.95739   0.24690   0.00000  Uiso   1.00
C402   C     0.63239   0.85749   0.28399   0.00000  Uiso   1.00
C403   C     0.34865   0.85743   0.28405   0.00000  Uiso   1.00
C404   C     0.48104   0.81193   0.48753   0.00000  Uiso   1.00
C405   C     0.36761   0.80919   0.21599   0.00000  Uiso   1.00
C406   C     0.65132   0.80918   0.21603   0.00000  Uiso   1.00
C407   C     0.50024   0.75408   0.24956   0.00000  Uiso   1.00
C408   C     0.52612   0.83430   0.14977   0.00000  Uiso   1.00
C409   C     0.60180   0.83597   0.00771   0.00000  Uiso   1.00
C410   C     0.54109   0.83360   0.09235   0.00000  Uiso   1.00
C411   C     0.41101   0.81044   0.43226   0.00000  Uiso   1.00
C412   C     0.39668   0.80421   0.48590   0.00000  Uiso   1.00
C413   C     0.43064   0.80714   0.01376   0.00000  Uiso   1.00
C414   C     0.49631   0.80925   0.43232   0.00000  Uiso   1.00
C415   C     0.51697   0.81943   0.01369   0.00000  Uiso   1.00
C416   C     0.56671   0.82326   0.48413   0.00000  Uiso   1.00
C417   C     0.58135   0.81197   0.43185   0.00000  Uiso   1.00
C418   C     0.54656   0.80134   0.40738   0.00000  Uiso   1.00
C419   C     0.50517   0.82427   0.06789   0.00000  Uiso   1.00
C420   C     0.58952   0.84133   0.06151   0.00000  Uiso   1.00
Cl421  Cl    0.63599   0.85862   0.08749   0.00000  Uiso   1.00
Cl422  Cl    0.41980   0.95694   0.20596   0.00000  Uiso   1.00
Cl423  Cl    0.56628   0.76701   0.35451   0.00000  Uiso   1.00
Cu424  Cu    0.45311   0.83333   0.25000   0.00000  Uiso   1.00
Cu425  Cu    0.54689   0.83334   0.25000   0.00000  Uiso   1.00
H426   H     0.56512   0.70306   0.27480   0.00000  Uiso   1.00
H427   H     0.38312   0.81178   0.41222   0.00000  Uiso   1.00
H428   H     0.41627   0.80480   0.05552   0.00000  Uiso   1.00
H429   H     0.35872   0.79863   0.00656   0.00000  Uiso   1.00
H430   H     0.56416   0.96185   0.27468   0.00000  Uiso   1.00
H431   H     0.43749   0.70608   0.21947   0.00000  Uiso   1.00
H432   H     0.60610   0.87683   0.31125   0.00000  Uiso   1.00
H433   H     0.35976   0.87675   0.31134   0.00000  Uiso   1.00
H434   H     0.39388   0.78980   0.18879   0.00000  Uiso   1.00
H435   H     0.64018   0.78981   0.18883   0.00000  Uiso   1.00
H436   H     0.61994   0.80865   0.41106   0.00000  Uiso   1.00
H437   H     0.63887   0.84189   0.48397   0.00000  Uiso   1.00
H438   H     0.46814   0.82038   0.09208   0.00000  Uiso   1.00
N439   N     0.38265   0.83332   0.24998   0.00000  Uiso   1.00
N440   N     0.61735   0.83335   0.24999   0.00000  Uiso   1.00
O441   O     0.46042   0.89345   0.25000   0.00000  Uiso   1.00
O442   O     0.53961   0.89346   0.25000   0.00000  Uiso   1.00
O443   O     0.44108   0.83332   0.32549   0.00000  Uiso   1.00
O444   O     0.52027   0.83333   0.32549   0.00000  Uiso   1.00
O445   O     0.46039   0.77321   0.24999   0.00000  Uiso   1.00
O446   O     0.53958   0.77322   0.24999   0.00000  Uiso   1.00
O447   O     0.47973   0.83334   0.17451   0.00000  Uiso   1.00
O448   O     0.55892   0.83335   0.17451   0.00000  Uiso   1.00
C449   C     0.83347   0.91267   0.24860   0.00000  Uiso   1.00
C450   C     0.79407   0.81479   0.40490   0.00000  Uiso   1.00
C451   C     0.86972   0.97833   0.26225   0.00000  Uiso   1.00
C452   C     0.80785   0.82723   0.34924   0.00000  Uiso   1.00
C453   C     0.87023   0.68753   0.26257   0.00000  Uiso   1.00
C454   C     0.83403   0.70960   0.24817   0.00000  Uiso   1.00
C455   C     0.79820   0.68903   0.23193   0.00000  Uiso   1.00
C456   C     0.79779   0.97979   0.23058   0.00000  Uiso   1.00
C457   C     0.83339   0.95739   0.24690   0.00000  Uiso   1.00
C458   C     0.96572   0.85749   0.28399   0.00000  Uiso   1.00
C459   C     0.68199   0.85743   0.28405   0.00000  Uiso   1.00
C460   C     0.81437   0.81193   0.48753   0.00000  Uiso   1.00
C461   C     0.70095   0.80919   0.21599   0.00000  Uiso   1.00
C462   C     0.98465   0.80918   0.21603   0.00000  Uiso   1.00
C463   C     0.83357   0.75408   0.24956   0.00000  Uiso   1.00
C464   C     0.85945   0.83430   0.14977   0.00000  Uiso   1.00
C465   C     0.93513   0.83597   0.00771   0.00000  Uiso   1.00
C466   C     0.87442   0.83360   0.09235   0.00000  Uiso   1.00
C467   C     0.74434   0.81044   0.43226   0.00000  Uiso   1.00
C468   C     0.73001   0.80421   0.48590   0.00000  Uiso   1.00
C469   C     0.76398   0.80714   0.01376   0.00000  Uiso   1.00
C470   C     0.82965   0.80925   0.43232   0.00000  Uiso   1.00
C471   C     0.85031   0.81943   0.01369   0.00000  Uiso   1.00
C472   C     0.90004   0.82326   0.48413   0.00000  Uiso   1.00
C473   C     0.91468   0.81197   0.43185   0.00000  Uiso   1.00
C474   C     0.87990   0.80134   0.40738   0.00000  Uiso   1.00
C475   C     0.83851   0.82427   0.06789   0.00000  Uiso   1.00
C476   C     0.92285   0.84133   0.06151   0.00000  Uiso   1.00
Cl477  Cl    0.96933   0.85862   0.08749   0.00000  Uiso   1.00
Cl478  Cl    0.75314   0.95694   0.20596   0.00000  Uiso   1.00
Cl479  Cl    0.89961   0.76701   0.35451   0.00000  Uiso   1.00
Cu480  Cu    0.78645   0.83333   0.25000   0.00000  Uiso   1.00
Cu481  Cu    0.88022   0.83334   0.25000   0.00000  Uiso   1.00
H482   H     0.89845   0.70306   0.27480   0.00000  Uiso   1.00
H483   H     0.71646   0.81178   0.41222   0.00000  Uiso   1.00
H484   H     0.74960   0.80480   0.05552   0.00000  Uiso   1.00
H485   H     0.69206   0.79863   0.00656   0.00000  Uiso   1.00
H486   H     0.89750   0.96185   0.27468   0.00000  Uiso   1.00
H487   H     0.77082   0.70608   0.21947   0.00000  Uiso   1.00
H488   H     0.93943   0.87683   0.31125   0.00000  Uiso   1.00
H489   H     0.69310   0.87675   0.31134   0.00000  Uiso   1.00
H490   H     0.72722   0.78980   0.18879   0.00000  Uiso   1.00
H491   H     0.97351   0.78981   0.18883   0.00000  Uiso   1.00
H492   H     0.95327   0.80865   0.41106   0.00000  Uiso   1.00
H493   H     0.97220   0.84189   0.48397   0.00000  Uiso   1.00
H494   H     0.80148   0.82038   0.09208   0.00000  Uiso   1.00
N495   N     0.71598   0.83332   0.24998   0.00000  Uiso   1.00
N496   N     0.95069   0.83335   0.24999   0.00000  Uiso   1.00
O497   O     0.79375   0.89345   0.25000   0.00000  Uiso   1.00
O498   O     0.87294   0.89346   0.25000   0.00000  Uiso   1.00
O499   O     0.77441   0.83332   0.32549   0.00000  Uiso   1.00
O500   O     0.85360   0.83333   0.32549   0.00000  Uiso   1.00
O501   O     0.79373   0.77321   0.24999   0.00000  Uiso   1.00
O502   O     0.87292   0.77322   0.24999   0.00000  Uiso   1.00
O503   O     0.81306   0.83334   0.17451   0.00000  Uiso   1.00
O504   O     0.89225   0.83335   0.17451   0.00000  Uiso   1.00
C505   C     0.16680   0.24600   0.74860   0.00000  Uiso   1.00
C506   C     0.12741   0.14812   0.90490   0.00000  Uiso   1.00
C507   C     0.20305   0.31166   0.76225   0.00000  Uiso   1.00
C508   C     0.14118   0.16056   0.84924   0.00000  Uiso   1.00
C509   C     0.20356   0.02086   0.76257   0.00000  Uiso   1.00
C510   C     0.16737   0.04293   0.74817   0.00000  Uiso   1.00
C511   C     0.13154   0.02237   0.73193   0.00000  Uiso   1.00
C512   C     0.13113   0.31313   0.73058   0.00000  Uiso   1.00
C513   C     0.16672   0.29073   0.74690   0.00000  Uiso   1.00
C514   C     0.29905   0.19082   0.78399   0.00000  Uiso   1.00
C515   C     0.01532   0.19076   0.78405   0.00000  Uiso   1.00
C516   C     0.14771   0.14526   0.98753   0.00000  Uiso   1.00
C517   C     0.03428   0.14252   0.71599   0.00000  Uiso   1.00
C518   C     0.31798   0.14252   0.71603   0.00000  Uiso   1.00
C519   C     0.16690   0.08741   0.74956   0.00000  Uiso   1.00
C520   C     0.19279   0.16763   0.64977   0.00000  Uiso   1.00
C521   C     0.26847   0.16930   0.50771   0.00000  Uiso   1.00
C522   C     0.20775   0.16693   0.59235   0.00000  Uiso   1.00
C523   C     0.07767   0.14377   0.93226   0.00000  Uiso   1.00
C524   C     0.06334   0.13754   0.98590   0.00000  Uiso   1.00
C525   C     0.09731   0.14047   0.51376   0.00000  Uiso   1.00
C526   C     0.16298   0.14258   0.93232   0.00000  Uiso   1.00
C527   C     0.18364   0.15276   0.51369   0.00000  Uiso   1.00
C528   C     0.23338   0.15660   0.98413   0.00000  Uiso   1.00
C529   C     0.24801   0.14531   0.93185   0.00000  Uiso   1.00
C530   C     0.21323   0.13467   0.90738   0.00000  Uiso   1.00
C531   C     0.17184   0.15760   0.56789   0.00000  Uiso   1.00
C532   C     0.25619   0.17467   0.56151   0.00000  Uiso   1.00
Cl533  Cl    0.30266   0.19195   0.58749   0.00000  Uiso   1.00
Cl534  Cl    0.08647   0.29028   0.70596   0.00000  Uiso   1.00
Cl535  Cl    0.23294   0.10034   0.85451   0.00000  Uiso   1.00
Cu536  Cu    0.11978   0.16666   0.75000   0.00000  Uiso   1.00
Cu537  Cu    0.21355   0.16667   0.75000   0.00000  Uiso   1.00
H538   H     0.23178   0.03639   0.77480   0.00000  Uiso   1.00
H539   H     0.04979   0.14511   0.91222   0.00000  Uiso   1.00
H540   H     0.08294   0.13813   0.55552   0.00000  Uiso   1.00
H541   H     0.02539   0.13196   0.50656   0.00000  Uiso   1.00
H542   H     0.23083   0.29518   0.77468   0.00000  Uiso   1.00
H543   H     0.10416   0.03941   0.71947   0.00000  Uiso   1.00
H544   H     0.27277   0.21016   0.81125   0.00000  Uiso   1.00
H545   H     0.02643   0.21008   0.81134   0.00000  Uiso   1.00
H546   H     0.06055   0.12314   0.68879   0.00000  Uiso   1.00
H547   H     0.30684   0.12315   0.68883   0.00000  Uiso   1.00
H548   H     0.28660   0.14198   0.91106   0.00000  Uiso   1.00
H549   H     0.30554   0.17522   0.98397   0.00000  Uiso   1.00
H550   H     0.13481   0.15371   0.59208   0.00000  Uiso   1.00
N551   N     0.04931   0.16666   0.74998   0.00000  Uiso   1.00
N552   N     0.28402   0.16669   0.74999   0.00000  Uiso   1.00
O553   O     0.12708   0.22678   0.75000   0.00000  Uiso   1.00
O554   O     0.20627   0.22679   0.75000   0.00000  Uiso   1.00
O555   O     0.10775   0.16665   0.82549   0.00000  Uiso   1.00
O556   O     0.18694   0.16666   0.82549   0.00000  Uiso   1.00
O557   O     0.12706   0.10654   0.74999   0.00000  Uiso   1.00
O558   O     0.20625   0.10655   0.74999   0.00000  Uiso   1.00
O559   O     0.14640   0.16667   0.67451   0.00000  Uiso   1.00
O560   O     0.22559   0.16668   0.67451   0.00000  Uiso   1.00
C561   C     0.50014   0.24600   0.74860   0.00000  Uiso   1.00
C562   C     0.46074   0.14812   0.90490   0.00000  Uiso   1.00
C563   C     0.53638   0.31166   0.76225   0.00000  Uiso   1.00
C564   C     0.47452   0.16056   0.84924   0.00000  Uiso   1.00
C565   C     0.53689   0.02086   0.76257   0.00000  Uiso   1.00
C566   C     0.50070   0.04293   0.74817   0.00000  Uiso   1.00
C567   C     0.46487   0.02237   0.73193   0.00000  Uiso   1.00
C568   C     0.46446   0.31313   0.73058   0.00000  Uiso   1.00
C569   C     0.50005   0.29073   0.74690   0.00000  Uiso   1.00
C570   C     0.63239   0.19082   0.78399   0.00000  Uiso   1.00
C571   C     0.34865   0.19076   0.78405   0.00000  Uiso   1.00
C572   C     0.48104   0.14526   0.98753   0.00000  Uiso   1.00
C573   C     0.36761   0.14252   0.71599   0.00000  Uiso   1.00
C574   C     0.65132   0.14252   0.71603   0.00000  Uiso   1.00
C575   C     0.50024   0.08741   0.74956   0.00000  Uiso   1.00
C576   C     0.52612   0.16763   0.64977   0.00000  Uiso   1.00
C577   C     0.60180   0.16930   0.50771   0.00000  Uiso   1.00
C578   C     0.54109   0.16693   0.59235   0.00000  Uiso   1.00
C579   C     0.41101   0.14377   0.93226   0.00000  Uiso   1.00
C580   C     0.39668   0.13754   0.98590   0.00000  Uiso   1.00
C581   C     0.43064   0.14047   0.51376   0.00000  Uiso   1.00
C582   C     0.49631   0.14258   0.93232   0.00000  Uiso   1.00
C583   C     0.51697   0.15276   0.51369   0.00000  Uiso   1.00
C584   C     0.56671   0.15660   0.98413   0.00000  Uiso   1.00
C585   C     0.58135   0.14531   0.93185   0.00000  Uiso   1.00
C586   C     0.54656   0.13467   0.90738   0.00000  Uiso   1.00
C587   C     0.50517   0.15760   0.56789   0.00000  Uiso   1.00
C588   C     0.58952   0.17467   0.56151   0.00000  Uiso   1.00
Cl589  Cl    0.63599   0.19195   0.58749   0.00000  Uiso   1.00
Cl590  Cl    0.41980   0.29028   0.70596   0.00000  Uiso   1.00
Cl591  Cl    0.56628   0.10034   0.85451   0.00000  Uiso   1.00
Cu592  Cu    0.45311   0.16666   0.75000   0.00000  Uiso   1.00
Cu593  Cu    0.54689   0.16667   0.75000   0.00000  Uiso   1.00
H594   H     0.56512   0.03639   0.77480   0.00000  Uiso   1.00
H595   H     0.38312   0.14511   0.91222   0.00000  Uiso   1.00
H596   H     0.41627   0.13813   0.55552   0.00000  Uiso   1.00
H597   H     0.35872   0.13196   0.50656   0.00000  Uiso   1.00
H598   H     0.56416   0.29518   0.77468   0.00000  Uiso   1.00
H599   H     0.43749   0.03941   0.71947   0.00000  Uiso   1.00
H600   H     0.60610   0.21016   0.81125   0.00000  Uiso   1.00
H601   H     0.35976   0.21008   0.81134   0.00000  Uiso   1.00
H602   H     0.39388   0.12314   0.68879   0.00000  Uiso   1.00
H603   H     0.64018   0.12315   0.68883   0.00000  Uiso   1.00
H604   H     0.61994   0.14198   0.91106   0.00000  Uiso   1.00
H605   H     0.63887   0.17522   0.98397   0.00000  Uiso   1.00
H606   H     0.46814   0.15371   0.59208   0.00000  Uiso   1.00
N607   N     0.38265   0.16666   0.74998   0.00000  Uiso   1.00
N608   N     0.61735   0.16669   0.74999   0.00000  Uiso   1.00
O609   O     0.46042   0.22678   0.75000   0.00000  Uiso   1.00
O610   O     0.53961   0.22679   0.75000   0.00000  Uiso   1.00
O611   O     0.44108   0.16665   0.82549   0.00000  Uiso   1.00
O612   O     0.52027   0.16666   0.82549   0.00000  Uiso   1.00
O613   O     0.46039   0.10654   0.74999   0.00000  Uiso   1.00
O614   O     0.53958   0.10655   0.74999   0.00000  Uiso   1.00
O615   O     0.47973   0.16667   0.67451   0.00000  Uiso   1.00
O616   O     0.55892   0.16668   0.67451   0.00000  Uiso   1.00
C617   C     0.83347   0.24600   0.74860   0.00000  Uiso   1.00
C618   C     0.79407   0.14812   0.90490   0.00000  Uiso   1.00
C619   C     0.86972   0.31166   0.76225   0.00000  Uiso   1.00
C620   C     0.80785   0.16056   0.84924   0.00000  Uiso   1.00
C621   C     0.87023   0.02086   0.76257   0.00000  Uiso   1.00
C622   C     0.83403   0.04293   0.74817   0.00000  Uiso   1.00
C623   C     0.79820   0.02237   0.73193   0.00000  Uiso   1.00
C624   C     0.79779   0.31313   0.73058   0.00000  Uiso   1.00
C625   C     0.83339   0.29073   0.74690   0.00000  Uiso   1.00
C626   C     0.96572   0.19082   0.78399   0.00000  Uiso   1.00
C627   C     0.68199   0.19076   0.78405   0.00000  Uiso   1.00
C628   C     0.81437   0.14526   0.98753   0.00000  Uiso   1.00
C629   C     0.70095   0.14252   0.71599   0.00000  Uiso   1.00
C630   C     0.98465   0.14252   0.71603   0.00000  Uiso   1.00
C631   C     0.83357   0.08741   0.74956   0.00000  Uiso   1.00
C632   C     0.85945   0.16763   0.64977   0.00000  Uiso   1.00
C633   C     0.93513   0.16930   0.50771   0.00000  Uiso   1.00
C634   C     0.87442   0.16693   0.59235   0.00000  Uiso   1.00
C635   C     0.74434   0.14377   0.93226   0.00000  Uiso   1.00
C636   C     0.73001   0.13754   0.98590   0.00000  Uiso   1.00
C637   C     0.76398   0.14047   0.51376   0.00000  Uiso   1.00
C638   C     0.82965   0.14258   0.93232   0.00000  Uiso   1.00
C639   C     0.85031   0.15276   0.51369   0.00000  Uiso   1.00
C640   C     0.90004   0.15660   0.98413   0.00000  Uiso   1.00
C641   C     0.91468   0.14531   0.93185   0.00000  Uiso   1.00
C642   C     0.87990   0.13467   0.90738   0.00000  Uiso   1.00
C643   C     0.83851   0.15760   0.56789   0.00000  Uiso   1.00
C644   C     0.92285   0.17467   0.56151   0.00000  Uiso   1.00
Cl645  Cl    0.96933   0.19195   0.58749   0.00000  Uiso   1.00
Cl646  Cl    0.75314   0.29028   0.70596   0.00000  Uiso   1.00
Cl647  Cl    0.89961   0.10034   0.85451   0.00000  Uiso   1.00
Cu648  Cu    0.78645   0.16666   0.75000   0.00000  Uiso   1.00
Cu649  Cu    0.88022   0.16667   0.75000   0.00000  Uiso   1.00
H650   H     0.89845   0.03639   0.77480   0.00000  Uiso   1.00
H651   H     0.71646   0.14511   0.91222   0.00000  Uiso   1.00
H652   H     0.74960   0.13813   0.55552   0.00000  Uiso   1.00
H653   H     0.69206   0.13196   0.50656   0.00000  Uiso   1.00
H654   H     0.89750   0.29518   0.77468   0.00000  Uiso   1.00
H655   H     0.77082   0.03941   0.71947   0.00000  Uiso   1.00
H656   H     0.93943   0.21016   0.81125   0.00000  Uiso   1.00
H657   H     0.69310   0.21008   0.81134   0.00000  Uiso   1.00
H658   H     0.72722   0.12314   0.68879   0.00000  Uiso   1.00
H659   H     0.97351   0.12315   0.68883   0.00000  Uiso   1.00
H660   H     0.95327   0.14198   0.91106   0.00000  Uiso   1.00
H661   H     0.97220   0.17522   0.98397   0.00000  Uiso   1.00
H662   H     0.80148   0.15371   0.59208   0.00000  Uiso   1.00
N663   N     0.71598   0.16666   0.74998   0.00000  Uiso   1.00
N664   N     0.95069   0.16669   0.74999   0.00000  Uiso   1.00
O665   O     0.79375   0.22678   0.75000   0.00000  Uiso   1.00
O666   O     0.87294   0.22679   0.75000   0.00000  Uiso   1.00
O667   O     0.77441   0.16665   0.82549   0.00000  Uiso   1.00
O668   O     0.85360   0.16666   0.82549   0.00000  Uiso   1.00
O669   O     0.79373   0.10654   0.74999   0.00000  Uiso   1.00
O670   O     0.87292   0.10655   0.74999   0.00000  Uiso   1.00
O671   O     0.81306   0.16667   0.67451   0.00000  Uiso   1.00
O672   O     0.89225   0.16668   0.67451   0.00000  Uiso   1.00
C673   C     0.16680   0.57934   0.74860   0.00000  Uiso   1.00
C674   C     0.12741   0.48145   0.90490   0.00000  Uiso   1.00
C675   C     0.20305   0.64500   0.76225   0.00000  Uiso   1.00
C676   C     0.14118   0.49389   0.84924   0.00000  Uiso   1.00
C677   C     0.20356   0.35420   0.76257   0.00000  Uiso   1.00
C678   C     0.16737   0.37626   0.74817   0.00000  Uiso   1.00
C679   C     0.13154   0.35570   0.73193   0.00000  Uiso   1.00
C680   C     0.13113   0.64646   0.73058   0.00000  Uiso   1.00
C681   C     0.16672   0.62406   0.74690   0.00000  Uiso   1.00
C682   C     0.29905   0.52416   0.78399   0.00000  Uiso   1.00
C683   C     0.01532   0.52409   0.78405   0.00000  Uiso   1.00
C684   C     0.14771   0.47860   0.98753   0.00000  Uiso   1.00
C685   C     0.03428   0.47585   0.71599   0.00000  Uiso   1.00
C686   C     0.31798   0.47585   0.71603   0.00000  Uiso   1.00
C687   C     0.16690   0.42075   0.74956   0.00000  Uiso   1.00
C688   C     0.19279   0.50097   0.64977   0.00000  Uiso   1.00
C689   C     0.26847   0.50263   0.50771   0.00000  Uiso   1.00
C690   C     0.20775   0.50026   0.59235   0.00000  Uiso   1.00
C691   C     0.07767   0.47710   0.93226   0.00000  Uiso   1.00
C692   C     0.06334   0.47087   0.98590   0.00000  Uiso   1.00
C693   C     0.09731   0.47381   0.51376   0.00000  Uiso   1.00
C694   C     0.16298   0.47591   0.93232   0.00000  Uiso   1.00
C695   C     0.18364   0.48609   0.51369   0.00000  Uiso   1.00
C696   C     0.23338   0.48993   0.98413   0.00000  Uiso   1.00
C697   C     0.24801   0.47864   0.93185   0.00000  Uiso   1.00
C698   C     0.21323   0.46800   0.90738   0.00000  Uiso   1.00
C699   C     0.17184   0.49094   0.56789   0.00000  Uiso   1.00
C700   C     0.25619   0.50800   0.56151   0.00000  Uiso   1.00
Cl701  Cl    0.30266   0.52529   0.58749   0.00000  Uiso   1.00
Cl702  Cl    0.08647   0.62361   0.70596   0.00000  Uiso   1.00
Cl703  Cl    0.23294   0.43367   0.85451   0.00000  Uiso   1.00
Cu704  Cu    0.11978   0.49999   0.75000   0.00000  Uiso   1.00
Cu705  Cu    0.21355   0.50001   0.75000   0.00000  Uiso   1.00
H706   H     0.23178   0.36972   0.77480   0.00000  Uiso   1.00
H707   H     0.04979   0.47844   0.91222   0.00000  Uiso   1.00
H708   H     0.08294   0.47146   0.55552   0.00000  Uiso   1.00
H709   H     0.02539   0.46530   0.50656   0.00000  Uiso   1.00
H710   H     0.23083   0.62852   0.77468   0.00000  Uiso   1.00
H711   H     0.10416   0.37275   0.71947   0.00000  Uiso   1.00
H712   H     0.27277   0.54350   0.81125   0.00000  Uiso   1.00
H713   H     0.02643   0.54341   0.81134   0.00000  Uiso   1.00
H714   H     0.06055   0.45647   0.68879   0.00000  Uiso   1.00
H715   H     0.30684   0.45648   0.68883   0.00000  Uiso   1.00
H716   H     0.28660   0.47532   0.91106   0.00000  Uiso   1.00
H717   H     0.30554   0.50856   0.98397   0.00000  Uiso   1.00
H718   H     0.13481   0.48705   0.59208   0.00000  Uiso   1.00
N719   N     0.04931   0.49999   0.74998   0.00000  Uiso   1.00
N720   N     0.28402   0.50002   0.74999   0.00000  Uiso   1.00
O721   O     0.12708   0.56011   0.75000   0.00000  Uiso   1.00
O722   O     0.20627   0.56012   0.75000   0.00000  Uiso   1.00
O723   O     0.10775   0.49998   0.82549   0.00000  Uiso   1.00
O724   O     0.18694   0.49999   0.82549   0.00000  Uiso   1.00
O725   O     0.12706   0.43988   0.74999   0.00000  Uiso   1.00
O726   O     0.20625   0.43989   0.74999   0.00000  Uiso   1.00
O727   O     0.14640   0.50001   0.67451   0.00000  Uiso   1.00
O728   O     0.22559   0.50002   0.67451   0.00000  Uiso   1.00
C729   C     0.50014   0.57934   0.74860   0.00000  Uiso   1.00
C730   C     0.46074   0.48145   0.90490   0.00000  Uiso   1.00
C731   C     0.53638   0.64500   0.76225   0.00000  Uiso   1.00
C732   C     0.47452   0.49389   0.84924   0.00000  Uiso   1.00
C733   C     0.53689   0.35420   0.76257   0.00000  Uiso   1.00
C734   C     0.50070   0.37626   0.74817   0.00000  Uiso   1.00
C735   C     0.46487   0.35570   0.73193   0.00000  Uiso   1.00
C736   C     0.46446   0.64646   0.73058   0.00000  Uiso   1.00
C737   C     0.50005   0.62406   0.74690   0.00000  Uiso   1.00
C738   C     0.63239   0.52416   0.78399   0.00000  Uiso   1.00
C739   C     0.34865   0.52409   0.78405   0.00000  Uiso   1.00
C740   C     0.48104   0.47860   0.98753   0.00000  Uiso   1.00
C741   C     0.36761   0.47585   0.71599   0.00000  Uiso   1.00
C742   C     0.65132   0.47585   0.71603   0.00000  Uiso   1.00
C743   C     0.50024   0.42075   0.74956   0.00000  Uiso   1.00
C744   C     0.52612   0.50097   0.64977   0.00000  Uiso   1.00
C745   C     0.60180   0.50263   0.50771   0.00000  Uiso   1.00
C746   C     0.54109   0.50026   0.59235   0.00000  Uiso   1.00
C747   C     0.41101   0.47710   0.93226   0.00000  Uiso   1.00
C748   C     0.39668   0.47087   0.98590   0.00000  Uiso   1.00
C749   C     0.43064   0.47381   0.51376   0.00000  Uiso   1.00
C750   C     0.49631   0.47591   0.93232   0.00000  Uiso   1.00
C751   C     0.51697   0.48609   0.51369   0.00000  Uiso   1.00
C752   C     0.56671   0.48993   0.98413   0.00000  Uiso   1.00
C753   C     0.58135   0.47864   0.93185   0.00000  Uiso   1.00
C754   C     0.54656   0.46800   0.90738   0.00000  Uiso   1.00
C755   C     0.50517   0.49094   0.56789   0.00000  Uiso   1.00
C756   C     0.58952   0.50800   0.56151   0.00000  Uiso   1.00
Cl757  Cl    0.63599   0.52529   0.58749   0.00000  Uiso   1.00
Cl758  Cl    0.41980   0.62361   0.70596   0.00000  Uiso   1.00
Cl759  Cl    0.56628   0.43367   0.85451   0.00000  Uiso   1.00
Cu760  Cu    0.45311   0.49999   0.75000   0.00000  Uiso   1.00
Cu761  Cu    0.54689   0.50001   0.75000   0.00000  Uiso   1.00
H762   H     0.56512   0.36972   0.77480   0.00000  Uiso   1.00
H763   H     0.38312   0.47844   0.91222   0.00000  Uiso   1.00
H764   H     0.41627   0.47146   0.55552   0.00000  Uiso   1.00
H765   H     0.35872   0.46530   0.50656   0.00000  Uiso   1.00
H766   H     0.56416   0.62852   0.77468   0.00000  Uiso   1.00
H767   H     0.43749   0.37275   0.71947   0.00000  Uiso   1.00
H768   H     0.60610   0.54350   0.81125   0.00000  Uiso   1.00
H769   H     0.35976   0.54341   0.81134   0.00000  Uiso   1.00
H770   H     0.39388   0.45647   0.68879   0.00000  Uiso   1.00
H771   H     0.64018   0.45648   0.68883   0.00000  Uiso   1.00
H772   H     0.61994   0.47532   0.91106   0.00000  Uiso   1.00
H773   H     0.63887   0.50856   0.98397   0.00000  Uiso   1.00
H774   H     0.46814   0.48705   0.59208   0.00000  Uiso   1.00
N775   N     0.38265   0.49999   0.74998   0.00000  Uiso   1.00
N776   N     0.61735   0.50002   0.74999   0.00000  Uiso   1.00
O777   O     0.46042   0.56011   0.75000   0.00000  Uiso   1.00
O778   O     0.53961   0.56012   0.75000   0.00000  Uiso   1.00
O779   O     0.44108   0.49998   0.82549   0.00000  Uiso   1.00
O780   O     0.52027   0.49999   0.82549   0.00000  Uiso   1.00
O781   O     0.46039   0.43988   0.74999   0.00000  Uiso   1.00
O782   O     0.53958   0.43989   0.74999   0.00000  Uiso   1.00
O783   O     0.47973   0.50001   0.67451   0.00000  Uiso   1.00
O784   O     0.55892   0.50002   0.67451   0.00000  Uiso   1.00
C785   C     0.83347   0.57934   0.74860   0.00000  Uiso   1.00
C786   C     0.79407   0.48145   0.90490   0.00000  Uiso   1.00
C787   C     0.86972   0.64500   0.76225   0.00000  Uiso   1.00
C788   C     0.80785   0.49389   0.84924   0.00000  Uiso   1.00
C789   C     0.87023   0.35420   0.76257   0.00000  Uiso   1.00
C790   C     0.83403   0.37626   0.74817   0.00000  Uiso   1.00
C791   C     0.79820   0.35570   0.73193   0.00000  Uiso   1.00
C792   C     0.79779   0.64646   0.73058   0.00000  Uiso   1.00
C793   C     0.83339   0.62406   0.74690   0.00000  Uiso   1.00
C794   C     0.96572   0.52416   0.78399   0.00000  Uiso   1.00
C795   C     0.68199   0.52409   0.78405   0.00000  Uiso   1.00
C796   C     0.81437   0.47860   0.98753   0.00000  Uiso   1.00
C797   C     0.70095   0.47585   0.71599   0.00000  Uiso   1.00
C798   C     0.98465   0.47585   0.71603   0.00000  Uiso   1.00
C799   C     0.83357   0.42075   0.74956   0.00000  Uiso   1.00
C800   C     0.85945   0.50097   0.64977   0.00000  Uiso   1.00
C801   C     0.93513   0.50263   0.50771   0.00000  Uiso   1.00
C802   C     0.87442   0.50026   0.59235   0.00000  Uiso   1.00
C803   C     0.74434   0.47710   0.93226   0.00000  Uiso   1.00
C804   C     0.73001   0.47087   0.98590   0.00000  Uiso   1.00
C805   C     0.76398   0.47381   0.51376   0.00000  Uiso   1.00
C806   C     0.82965   0.47591   0.93232   0.00000  Uiso   1.00
C807   C     0.85031   0.48609   0.51369   0.00000  Uiso   1.00
C808   C     0.90004   0.48993   0.98413   0.00000  Uiso   1.00
C809   C     0.91468   0.47864   0.93185   0.00000  Uiso   1.00
C810   C     0.87990   0.46800   0.90738   0.00000  Uiso   1.00
C811   C     0.83851   0.49094   0.56789   0.00000  Uiso   1.00
C812   C     0.92285   0.50800   0.56151   0.00000  Uiso   1.00
Cl813  Cl    0.96933   0.52529   0.58749   0.00000  Uiso   1.00
Cl814  Cl    0.75314   0.62361   0.70596   0.00000  Uiso   1.00
Cl815  Cl    0.89961   0.43367   0.85451   0.00000  Uiso   1.00
Cu816  Cu    0.78645   0.49999   0.75000   0.00000  Uiso   1.00
Cu817  Cu    0.88022   0.50001   0.75000   0.00000  Uiso   1.00
H818   H     0.89845   0.36972   0.77480   0.00000  Uiso   1.00
H819   H     0.71646   0.47844   0.91222   0.00000  Uiso   1.00
H820   H     0.74960   0.47146   0.55552   0.00000  Uiso   1.00
H821   H     0.69206   0.46530   0.50656   0.00000  Uiso   1.00
H822   H     0.89750   0.62852   0.77468   0.00000  Uiso   1.00
H823   H     0.77082   0.37275   0.71947   0.00000  Uiso   1.00
H824   H     0.93943   0.54350   0.81125   0.00000  Uiso   1.00
H825   H     0.69310   0.54341   0.81134   0.00000  Uiso   1.00
H826   H     0.72722   0.45647   0.68879   0.00000  Uiso   1.00
H827   H     0.97351   0.45648   0.68883   0.00000  Uiso   1.00
H828   H     0.95327   0.47532   0.91106   0.00000  Uiso   1.00
H829   H     0.97220   0.50856   0.98397   0.00000  Uiso   1.00
H830   H     0.80148   0.48705   0.59208   0.00000  Uiso   1.00
N831   N     0.71598   0.49999   0.74998   0.00000  Uiso   1.00
N832   N     0.95069   0.50002   0.74999   0.00000  Uiso   1.00
O833   O     0.79375   0.56011   0.75000   0.00000  Uiso   1.00
O834   O     0.87294   0.56012   0.75000   0.00000  Uiso   1.00
O835   O     0.77441   0.49998   0.82549   0.00000  Uiso   1.00
O836   O     0.85360   0.49999   0.82549   0.00000  Uiso   1.00
O837   O     0.79373   0.43988   0.74999   0.00000  Uiso   1.00
O838   O     0.87292   0.43989   0.74999   0.00000  Uiso   1.00
O839   O     0.81306   0.50001   0.67451   0.00000  Uiso   1.00
O840   O     0.89225   0.50002   0.67451   0.00000  Uiso   1.00
C841   C     0.16680   0.91267   0.74860   0.00000  Uiso   1.00
C842   C     0.12741   0.81479   0.90490   0.00000  Uiso   1.00
C843   C     0.20305   0.97833   0.76225   0.00000  Uiso   1.00
C844   C     0.14118   0.82723   0.84924   0.00000  Uiso   1.00
C845   C     0.20356   0.68753   0.76257   0.00000  Uiso   1.00
C846   C     0.16737   0.70960   0.74817   0.00000  Uiso   1.00
C847   C     0.13154   0.68903   0.73193   0.00000  Uiso   1.00
C848   C     0.13113   0.97979   0.73058   0.00000  Uiso   1.00
C849   C     0.16672   0.95739   0.74690   0.00000  Uiso   1.00
C850   C     0.29905   0.85749   0.78399   0.00000  Uiso   1.00
C851   C     0.01532   0.85743   0.78405   0.00000  Uiso   1.00
C852   C     0.14771   0.81193   0.98753   0.00000  Uiso   1.00
C853   C     0.03428   0.80919   0.71599   0.00000  Uiso   1.00
C854   C     0.31798   0.80918   0.71603   0.00000  Uiso   1.00
C855   C     0.16690   0.75408   0.74956   0.00000  Uiso   1.00
C856   C     0.19279   0.83430   0.64977   0.00000  Uiso   1.00
C857   C     0.26847   0.83597   0.50771   0.00000  Uiso   1.00
C858   C     0.20775   0.83360   0.59235   0.00000  Uiso   1.00
C859   C     0.07767   0.81044   0.93226   0.00000  Uiso   1.00
C860   C     0.06334   0.80421   0.98590   0.00000  Uiso   1.00
C861   C     0.09731   0.80714   0.51376   0.00000  Uiso   1.00
C862   C     0.16298   0.80925   0.93232   0.00000  Uiso   1.00
C863   C     0.18364   0.81943   0.51369   0.00000  Uiso   1.00
C864   C     0.23338   0.82326   0.98413   0.00000  Uiso   1.00
C865   C     0.24801   0.81197   0.93185   0.00000  Uiso   1.00
C866   C     0.21323   0.80134   0.90738   0.00000  Uiso   1.00
C867   C     0.17184   0.82427   0.56789   0.00000  Uiso   1.00
C868   C     0.25619   0.84133   0.56151   0.00000  Uiso   1.00
Cl869  Cl    0.30266   0.85862   0.58749   0.00000  Uiso   1.00
Cl870  Cl    0.08647   0.95694   0.70596   0.00000  Uiso   1.00
Cl871  Cl    0.23294   0.76701   0.85451   0.00000  Uiso   1.00
Cu872  Cu    0.11978   0.83333   0.75000   0.00000  Uiso   1.00
Cu873  Cu    0.21355   0.83334   0.75000   0.00000  Uiso   1.00
H874   H     0.23178   0.70306   0.77480   0.00000  Uiso   1.00
H875   H     0.04979   0.81178   0.91222   0.00000  Uiso   1.00
H876   H     0.08294   0.80480   0.55552   0.00000  Uiso   1.00
H877   H     0.02539   0.79863   0.50656   0.00000  Uiso   1.00
H878   H     0.23083   0.96185   0.77468   0.00000  Uiso   1.00
H879   H     0.10416   0.70608   0.71947   0.00000  Uiso   1.00
H880   H     0.27277   0.87683   0.81125   0.00000  Uiso   1.00
H881   H     0.02643   0.87675   0.81134   0.00000  Uiso   1.00
H882   H     0.06055   0.78980   0.68879   0.00000  Uiso   1.00
H883   H     0.30684   0.78981   0.68883   0.00000  Uiso   1.00
H884   H     0.28660   0.80865   0.91106   0.00000  Uiso   1.00
H885   H     0.30554   0.84189   0.98397   0.00000  Uiso   1.00
H886   H     0.13481   0.82038   0.59208   0.00000  Uiso   1.00
N887   N     0.04931   0.83332   0.74998   0.00000  Uiso   1.00
N888   N     0.28402   0.83335   0.74999   0.00000  Uiso   1.00
O889   O     0.12708   0.89345   0.75000   0.00000  Uiso   1.00
O890   O     0.20627   0.89346   0.75000   0.00000  Uiso   1.00
O891   O     0.10775   0.83332   0.82549   0.00000  Uiso   1.00
O892   O     0.18694   0.83333   0.82549   0.00000  Uiso   1.00
O893   O     0.12706   0.77321   0.74999   0.00000  Uiso   1.00
O894   O     0.20625   0.77322   0.74999   0.00000  Uiso   1.00
O895   O     0.14640   0.83334   0.67451   0.00000  Uiso   1.00
O896   O     0.22559   0.83335   0.67451   0.00000  Uiso   1.00
C897   C     0.50014   0.91267   0.74860   0.00000  Uiso   1.00
C898   C     0.46074   0.81479   0.90490   0.00000  Uiso   1.00
C899   C     0.53638   0.97833   0.76225   0.00000  Uiso   1.00
C900   C     0.47452   0.82723   0.84924   0.00000  Uiso   1.00
C901   C     0.53689   0.68753   0.76257   0.00000  Uiso   1.00
C902   C     0.50070   0.70960   0.74817   0.00000  Uiso   1.00
C903   C     0.46487   0.68903   0.73193   0.00000  Uiso   1.00
C904   C     0.46446   0.97979   0.73058   0.00000  Uiso   1.00
C905   C     0.50005   0.95739   0.74690   0.00000  Uiso   1.00
C906   C     0.63239   0.85749   0.78399   0.00000  Uiso   1.00
C907   C     0.34865   0.85743   0.78405   0.00000  Uiso   1.00
C908   C     0.48104   0.81193   0.98753   0.00000  Uiso   1.00
C909   C     0.36761   0.80919   0.71599   0.00000  Uiso   1.00
C910   C     0.65132   0.80918   0.71603   0.00000  Uiso   1.00
C911   C     0.50024   0.75408   0.74956   0.00000  Uiso   1.00
C912   C     0.52612   0.83430   0.64977   0.00000  Uiso   1.00
C913   C     0.60180   0.83597   0.50771   0.00000  Uiso   1.00
C914   C     0.54109   0.83360   0.59235   0.00000  Uiso   1.00
C915   C     0.41101   0.81044   0.93226   0.00000  Uiso   1.00
C916   C     0.39668   0.80421   0.98590   0.00000  Uiso   1.00
C917   C     0.43064   0.80714   0.51376   0.00000  Uiso   1.00
C918   C     0.49631   0.80925   0.93232   0.00000  Uiso   1.00
C919   C     0.51697   0.81943   0.51369   0.00000  Uiso   1.00
C920   C     0.56671   0.82326   0.98413   0.00000  Uiso   1.00
C921   C     0.58135   0.81197   0.93185   0.00000  Uiso   1.00
C922   C     0.54656   0.80134   0.90738   0.00000  Uiso   1.00
C923   C     0.50517   0.82427   0.56789   0.00000  Uiso   1.00
C924   C     0.58952   0.84133   0.56151   0.00000  Uiso   1.00
Cl925  Cl    0.63599   0.85862   0.58749   0.00000  Uiso   1.00
Cl926  Cl    0.41980   0.95694   0.70596   0.00000  Uiso   1.00
Cl927  Cl    0.56628   0.76701   0.85451   0.00000  Uiso   1.00
Cu928  Cu    0.45311   0.83333   0.75000   0.00000  Uiso   1.00
Cu929  Cu    0.54689   0.83334   0.75000   0.00000  Uiso   1.00
H930   H     0.56512   0.70306   0.77480   0.00000  Uiso   1.00
H931   H     0.38312   0.81178   0.91222   0.00000  Uiso   1.00
H932   H     0.41627   0.80480   0.55552   0.00000  Uiso   1.00
H933   H     0.35872   0.79863   0.50656   0.00000  Uiso   1.00
H934   H     0.56416   0.96185   0.77468   0.00000  Uiso   1.00
H935   H     0.43749   0.70608   0.71947   0.00000  Uiso   1.00
H936   H     0.60610   0.87683   0.81125   0.00000  Uiso   1.00
H937   H     0.35976   0.87675   0.81134   0.00000  Uiso   1.00
H938   H     0.39388   0.78980   0.68879   0.00000  Uiso   1.00
H939   H     0.64018   0.78981   0.68883   0.00000  Uiso   1.00
H940   H     0.61994   0.80865   0.91106   0.00000  Uiso   1.00
H941   H     0.63887   0.84189   0.98397   0.00000  Uiso   1.00
H942   H     0.46814   0.82038   0.59208   0.00000  Uiso   1.00
N943   N     0.38265   0.83332   0.74998   0.00000  Uiso   1.00
N944   N     0.61735   0.83335   0.74999   0.00000  Uiso   1.00
O945   O     0.46042   0.89345   0.75000   0.00000  Uiso   1.00
O946   O     0.53961   0.89346   0.75000   0.00000  Uiso   1.00
O947   O     0.44108   0.83332   0.82549   0.00000  Uiso   1.00
O948   O     0.52027   0.83333   0.82549   0.00000  Uiso   1.00
O949   O     0.46039   0.77321   0.74999   0.00000  Uiso   1.00
O950   O     0.53958   0.77322   0.74999   0.00000  Uiso   1.00
O951   O     0.47973   0.83334   0.67451   0.00000  Uiso   1.00
O952   O     0.55892   0.83335   0.67451   0.00000  Uiso   1.00
C953   C     0.83347   0.91267   0.74860   0.00000  Uiso   1.00
C954   C     0.79407   0.81479   0.90490   0.00000  Uiso   1.00
C955   C     0.86972   0.97833   0.76225   0.00000  Uiso   1.00
C956   C     0.80785   0.82723   0.84924   0.00000  Uiso   1.00
C957   C     0.87023   0.68753   0.76257   0.00000  Uiso   1.00
C958   C     0.83403   0.70960   0.74817   0.00000  Uiso   1.00
C959   C     0.79820   0.68903   0.73193   0.00000  Uiso   1.00
C960   C     0.79779   0.97979   0.73058   0.00000  Uiso   1.00
C961   C     0.83339   0.95739   0.74690   0.00000  Uiso   1.00
C962   C     0.96572   0.85749   0.78399   0.00000  Uiso   1.00
C963   C     0.68199   0.85743   0.78405   0.00000  Uiso   1.00
C964   C     0.81437   0.81193   0.98753   0.00000  Uiso   1.00
C965   C     0.70095   0.80919   0.71599   0.00000  Uiso   1.00
C966   C     0.98465   0.80918   0.71603   0.00000  Uiso   1.00
C967   C     0.83357   0.75408   0.74956   0.00000  Uiso   1.00
C968   C     0.85945   0.83430   0.64977   0.00000  Uiso   1.00
C969   C     0.93513   0.83597   0.50771   0.00000  Uiso   1.00
C970   C     0.87442   0.83360   0.59235   0.00000  Uiso   1.00
C971   C     0.74434   0.81044   0.93226   0.00000  Uiso   1.00
C972   C     0.73001   0.80421   0.98590   0.00000  Uiso   1.00
C973   C     0.76398   0.80714   0.51376   0.00000  Uiso   1.00
C974   C     0.82965   0.80925   0.93232   0.00000  Uiso   1.00
C975   C     0.85031   0.81943   0.51369   0.00000  Uiso   1.00
C976   C     0.90004   0.82326   0.98413   0.00000  Uiso   1.00
C977   C     0.91468   0.81197   0.93185   0.00000  Uiso   1.00
C978   C     0.87990   0.80134   0.90738   0.00000  Uiso   1.00
C979   C     0.83851   0.82427   0.56789   0.00000  Uiso   1.00
C980   C     0.92285   0.84133   0.56151   0.00000  Uiso   1.00
Cl981  Cl    0.96933   0.85862   0.58749   0.00000  Uiso   1.00
Cl982  Cl    0.75314   0.95694   0.70596   0.00000  Uiso   1.00
Cl983  Cl    0.89961   0.76701   0.85451   0.00000  Uiso   1.00
Cu984  Cu    0.78645   0.83333   0.75000   0.00000  Uiso   1.00
Cu985  Cu    0.88022   0.83334   0.75000   0.00000  Uiso   1.00
H986   H     0.89845   0.70306   0.77480   0.00000  Uiso   1.00
H987   H     0.71646   0.81178   0.91222   0.00000  Uiso   1.00
H988   H     0.74960   0.80480   0.55552   0.00000  Uiso   1.00
H989   H     0.69206   0.79863   0.50656   0.00000  Uiso   1.00
H990   H     0.89750   0.96185   0.77468   0.00000  Uiso   1.00
H991   H     0.77082   0.70608   0.71947   0.00000  Uiso   1.00
H992   H     0.93943   0.87683   0.81125   0.00000  Uiso   1.00
H993   H     0.69310   0.87675   0.81134   0.00000  Uiso   1.00
H994   H     0.72722   0.78980   0.68879   0.00000  Uiso   1.00
H995   H     0.97351   0.78981   0.68883   0.00000  Uiso   1.00
H996   H     0.95327   0.80865   0.91106   0.00000  Uiso   1.00
H997   H     0.97220   0.84189   0.98397   0.00000  Uiso   1.00
H998   H     0.80148   0.82038   0.59208   0.00000  Uiso   1.00
N999   N     0.71598   0.83332   0.74998   0.00000  Uiso   1.00
N1000  N     0.95069   0.83335   0.74999   0.00000  Uiso   1.00
O1001  O     0.79375   0.89345   0.75000   0.00000  Uiso   1.00
O1002  O     0.87294   0.89346   0.75000   0.00000  Uiso   1.00
O1003  O     0.77441   0.83332   0.82549   0.00000  Uiso   1.00
O1004  O     0.85360   0.83333   0.82549   0.00000  Uiso   1.00
O1005  O     0.79373   0.77321   0.74999   0.00000  Uiso   1.00
O1006  O     0.87292   0.77322   0.74999   0.00000  Uiso   1.00
O1007  O     0.81306   0.83334   0.67451   0.00000  Uiso   1.00
O1008  O     0.89225   0.83335   0.67451   0.00000  Uiso   1.00
loop_
_geom_bond_atom_site_label_1
_geom_bond_atom_site_label_2
_geom_bond_distance
_geom_bond_site_symmetry_2
_ccdc_geom_bond_type
C1     O50     1.295   .     A
C1     C9      1.454   .     S
C1     O49     1.289   .     A
C2     C22     1.427   .     A
C2     C4      1.483   .     S
C2     C19     1.403   .     A
C3     C9      1.403   .     A
C3     H38     1.084   .     S
C3     C173    1.383   .     S
C4     O52     1.291   .     A
C4     O51     1.306   .     A
C5     H34     1.083   .     S
C5     C6      1.397   .     A
C5     C339    1.383   1_545 S
C6     C7      1.398   .     A
C6     C15     1.447   .     S
C7     H39     1.084   .     S
C7     C344    1.385   1_545 S
C8     Cl30    1.766   .     S
C8     C9      1.415   .     A
C8     C175    1.385   .     S
C10    N48     1.367   .     A
C10    H40     1.082   .     S
C10    C67     1.416   .     S
C11    N47     1.367   .     A
C11    H41     1.083   .     S
C11    C122    1.416   1_455 S
C12    C22     1.419   .     A
C12    C525    1.414   .     S
C12    C527    1.424   .     S
C13    N47     1.367   .     A
C13    H42     1.082   .     S
C13    C126    1.416   1_455 S
C14    N48     1.367   .     A
C14    H43     1.082   .     S
C14    C69     1.416   .     S
C15    O53     1.290   .     A
C15    O54     1.290   .     A
C16    O56     1.296   .     A
C16    O55     1.297   .     A
C16    C18     1.473   .     S
C17    C28     1.393   .     A
C17    C528    1.397   1_554 S
C17    H549    1.082   1_554 S
C18    C28     1.412   .     A
C18    C27     1.404   .     A
C19    C20     1.390   .     A
C19    H35     1.083   .     S
C20    C525    1.390   .     S
C20    H541    1.079   .     S
C21    H36     1.077   .     S
C21    C524    1.390   1_554 S
C21    C516    1.414   1_554 S
C22    C26     1.417   .     A
C23    C27     1.402   .     A
C23    C516    1.424   1_554 S
C23    C528    1.416   1_554 S
C24    C25     1.391   .     A
C24    C521    1.397   .     S
C24    C527    1.416   .     S
C25    H44     1.085   .     S
C25    C26     1.387   .     A
C26    Cl31    1.764   .     S
C27    H46     1.075   .     S
C28    Cl29    1.764   .     S
Cu32   O51     1.952   .     S
Cu32   O55     1.944   .     S
Cu32   Cu33    2.677   .     S
Cu32   N47     2.011   .     S
Cu32   O49     1.967   .     S
Cu32   O53     1.964   .     S
Cu33   O56     1.952   .     S
Cu33   O52     1.944   .     S
Cu33   O54     1.967   .     S
Cu33   N48     2.011   .     S
Cu33   O50     1.964   .     S
H37    C524    1.079   1_554 S
H45    C521    1.082   .     S
C57    O106    1.295   .     A
C57    C65     1.454   .     S
C57    O105    1.289   .     A
C58    C78     1.427   .     A
C58    C60     1.483   .     S
C58    C75     1.403   .     A
C59    C65     1.403   .     A
C59    H94     1.084   .     S
C59    C229    1.383   .     S
C60    O108    1.291   .     A
C60    O107    1.306   .     A
C61    H90     1.083   .     S
C61    C62     1.397   .     A
C61    C395    1.383   1_545 S
C62    C63     1.398   .     A
C62    C71     1.447   .     S
C63    H95     1.084   .     S
C63    C400    1.385   1_545 S
C64    Cl86    1.766   .     S
C64    C65     1.415   .     A
C64    C231    1.385   .     S
C66    N104    1.367   .     A
C66    H96     1.082   .     S
C66    C123    1.416   .     S
C67    N103    1.367   .     A
C67    H97     1.083   .     S
C68    C78     1.419   .     A
C68    C581    1.414   .     S
C68    C583    1.424   .     S
C69    N103    1.367   .     A
C69    H98     1.082   .     S
C70    N104    1.367   .     A
C70    H99     1.082   .     S
C70    C125    1.416   .     S
C71    O109    1.290   .     A
C71    O110    1.290   .     A
C72    O112    1.296   .     A
C72    O111    1.297   .     A
C72    C74     1.473   .     S
C73    C84     1.393   .     A
C73    C584    1.397   1_554 S
C73    H605    1.082   1_554 S
C74    C84     1.412   .     A
C74    C83     1.404   .     A
C75    C76     1.390   .     A
C75    H91     1.083   .     S
C76    C581    1.390   .     S
C76    H597    1.079   .     S
C77    H92     1.077   .     S
C77    C580    1.390   1_554 S
C77    C572    1.414   1_554 S
C78    C82     1.417   .     A
C79    C83     1.402   .     A
C79    C572    1.424   1_554 S
C79    C584    1.416   1_554 S
C80    C81     1.391   .     A
C80    C577    1.397   .     S
C80    C583    1.416   .     S
C81    H100    1.085   .     S
C81    C82     1.387   .     A
C82    Cl87    1.764   .     S
C83    H102    1.075   .     S
C84    Cl85    1.764   .     S
Cu88   O107    1.952   .     S
Cu88   O111    1.944   .     S
Cu88   Cu89    2.677   .     S
Cu88   N103    2.011   .     S
Cu88   O105    1.967   .     S
Cu88   O109    1.964   .     S
Cu89   O112    1.952   .     S
Cu89   O108    1.944   .     S
Cu89   O110    1.967   .     S
Cu89   N104    2.011   .     S
Cu89   O106    1.964   .     S
H93    C580    1.079   1_554 S
H101   C577    1.082   .     S
C113   O162    1.295   .     A
C113   C121    1.454   .     S
C113   O161    1.289   .     A
C114   C134    1.427   .     A
C114   C116    1.483   .     S
C114   C131    1.403   .     A
C115   C121    1.403   .     A
C115   H150    1.084   .     S
C115   C285    1.383   .     S
C116   O164    1.291   .     A
C116   O163    1.306   .     A
C117   H146    1.083   .     S
C117   C118    1.397   .     A
C117   C451    1.383   1_545 S
C118   C119    1.398   .     A
C118   C127    1.447   .     S
C119   H151    1.084   .     S
C119   C456    1.385   1_545 S
C120   Cl142   1.766   .     S
C120   C121    1.415   .     A
C120   C287    1.385   .     S
C122   N160    1.367   .     A
C122   H152    1.082   .     S
C122   C11     1.416   1_655 S
C123   N159    1.367   .     A
C123   H153    1.083   .     S
C124   C134    1.419   .     A
C124   C637    1.414   .     S
C124   C639    1.424   .     S
C125   N159    1.367   .     A
C125   H154    1.082   .     S
C126   N160    1.367   .     A
C126   H155    1.082   .     S
C126   C13     1.416   1_655 S
C127   O165    1.290   .     A
C127   O166    1.290   .     A
C128   O168    1.296   .     A
C128   O167    1.297   .     A
C128   C130    1.473   .     S
C129   C140    1.393   .     A
C129   C640    1.397   1_554 S
C129   H661    1.082   1_554 S
C130   C140    1.412   .     A
C130   C139    1.404   .     A
C131   C132    1.390   .     A
C131   H147    1.083   .     S
C132   C637    1.390   .     S
C132   H653    1.079   .     S
C133   H148    1.077   .     S
C133   C636    1.390   1_554 S
C133   C628    1.414   1_554 S
C134   C138    1.417   .     A
C135   C139    1.402   .     A
C135   C628    1.424   1_554 S
C135   C640    1.416   1_554 S
C136   C137    1.391   .     A
C136   C633    1.397   .     S
C136   C639    1.416   .     S
C137   H156    1.085   .     S
C137   C138    1.387   .     A
C138   Cl143   1.764   .     S
C139   H158    1.075   .     S
C140   Cl141   1.764   .     S
Cu144  O163    1.952   .     S
Cu144  O167    1.944   .     S
Cu144  Cu145   2.677   .     S
Cu144  N159    2.011   .     S
Cu144  O161    1.967   .     S
Cu144  O165    1.964   .     S
Cu145  O168    1.952   .     S
Cu145  O164    1.944   .     S
Cu145  O166    1.967   .     S
Cu145  N160    2.011   .     S
Cu145  O162    1.964   .     S
H149   C636    1.079   1_554 S
H157   C633    1.082   .     S
C169   O218    1.295   .     A
C169   C177    1.454   .     S
C169   O217    1.289   .     A
C170   C190    1.427   .     A
C170   C172    1.483   .     S
C170   C187    1.403   .     A
C171   C177    1.403   .     A
C171   H206    1.084   .     S
C171   C341    1.383   .     S
C172   O220    1.291   .     A
C172   O219    1.306   .     A
C173   H202    1.083   .     S
C173   C174    1.397   .     A
C174   C175    1.398   .     A
C174   C183    1.447   .     S
C175   H207    1.084   .     S
C176   Cl198   1.766   .     S
C176   C177    1.415   .     A
C176   C343    1.385   .     S
C178   N216    1.367   .     A
C178   H208    1.082   .     S
C178   C235    1.416   .     S
C179   N215    1.367   .     A
C179   H209    1.083   .     S
C179   C290    1.416   1_455 S
C180   C190    1.419   .     A
C180   C693    1.414   .     S
C180   C695    1.424   .     S
C181   N215    1.367   .     A
C181   H210    1.082   .     S
C181   C294    1.416   1_455 S
C182   N216    1.367   .     A
C182   H211    1.082   .     S
C182   C237    1.416   .     S
C183   O221    1.290   .     A
C183   O222    1.290   .     A
C184   O224    1.296   .     A
C184   O223    1.297   .     A
C184   C186    1.473   .     S
C185   C196    1.393   .     A
C185   C696    1.397   1_554 S
C185   H717    1.082   1_554 S
C186   C196    1.412   .     A
C186   C195    1.404   .     A
C187   C188    1.390   .     A
C187   H203    1.083   .     S
C188   C693    1.390   .     S
C188   H709    1.079   .     S
C189   H204    1.077   .     S
C189   C692    1.390   1_554 S
C189   C684    1.414   1_554 S
C190   C194    1.417   .     A
C191   C195    1.402   .     A
C191   C684    1.424   1_554 S
C191   C696    1.416   1_554 S
C192   C193    1.391   .     A
C192   C689    1.397   .     S
C192   C695    1.416   .     S
C193   H212    1.085   .     S
C193   C194    1.387   .     A
C194   Cl199   1.764   .     S
C195   H214    1.075   .     S
C196   Cl197   1.764   .     S
Cu200  O219    1.952   .     S
Cu200  O223    1.944   .     S
Cu200  Cu201   2.677   .     S
Cu200  N215    2.011   .     S
Cu200  O217    1.967   .     S
Cu200  O221    1.964   .     S
Cu201  O224    1.952   .     S
Cu201  O220    1.944   .     S
Cu201  O222    1.967   .     S
Cu201  N216    2.011   .     S
Cu201  O218    1.964   .     S
H205   C692    1.079   1_554 S
H213   C689    1.082   .     S
C225   O274    1.295   .     A
C225   C233    1.454   .     S
C225   O273    1.289   .     A
C226   C246    1.427   .     A
C226   C228    1.483   .     S
C226   C243    1.403   .     A
C227   C233    1.403   .     A
C227   H262    1.084   .     S
C227   C397    1.383   .     S
C228   O276    1.291   .     A
C228   O275    1.306   .     A
C229   H258    1.083   .     S
C229   C230    1.397   .     A
C230   C231    1.398   .     A
C230   C239    1.447   .     S
C231   H263    1.084   .     S
C232   Cl254   1.766   .     S
C232   C233    1.415   .     A
C232   C399    1.385   .     S
C234   N272    1.367   .     A
C234   H264    1.082   .     S
C234   C291    1.416   .     S
C235   N271    1.367   .     A
C235   H265    1.083   .     S
C236   C246    1.419   .     A
C236   C749    1.414   .     S
C236   C751    1.424   .     S
C237   N271    1.367   .     A
C237   H266    1.082   .     S
C238   N272    1.367   .     A
C238   H267    1.082   .     S
C238   C293    1.416   .     S
C239   O277    1.290   .     A
C239   O278    1.290   .     A
C240   O280    1.296   .     A
C240   O279    1.297   .     A
C240   C242    1.473   .     S
C241   C252    1.393   .     A
C241   C752    1.397   1_554 S
C241   H773    1.082   1_554 S
C242   C252    1.412   .     A
C242   C251    1.404   .     A
C243   C244    1.390   .     A
C243   H259    1.083   .     S
C244   C749    1.390   .     S
C244   H765    1.079   .     S
C245   H260    1.077   .     S
C245   C748    1.390   1_554 S
C245   C740    1.414   1_554 S
C246   C250    1.417   .     A
C247   C251    1.402   .     A
C247   C740    1.424   1_554 S
C247   C752    1.416   1_554 S
C248   C249    1.391   .     A
C248   C745    1.397   .     S
C248   C751    1.416   .     S
C249   H268    1.085   .     S
C249   C250    1.387   .     A
C250   Cl255   1.764   .     S
C251   H270    1.075   .     S
C252   Cl253   1.764   .     S
Cu256  O275    1.952   .     S
Cu256  O279    1.944   .     S
Cu256  Cu257   2.677   .     S
Cu256  N271    2.011   .     S
Cu256  O273    1.967   .     S
Cu256  O277    1.964   .     S
Cu257  O280    1.952   .     S
Cu257  O276    1.944   .     S
Cu257  O278    1.967   .     S
Cu257  N272    2.011   .     S
Cu257  O274    1.964   .     S
H261   C748    1.079   1_554 S
H269   C745    1.082   .     S
C281   O330    1.295   .     A
C281   C289    1.454   .     S
C281   O329    1.289   .     A
C282   C302    1.427   .     A
C282   C284    1.483   .     S
C282   C299    1.403   .     A
C283   C289    1.403   .     A
C283   H318    1.084   .     S
C283   C453    1.383   .     S
C284   O332    1.291   .     A
C284   O331    1.306   .     A
C285   H314    1.083   .     S
C285   C286    1.397   .     A
C286   C287    1.398   .     A
C286   C295    1.447   .     S
C287   H319    1.084   .     S
C288   Cl310   1.766   .     S
C288   C289    1.415   .     A
C288   C455    1.385   .     S
C290   N328    1.367   .     A
C290   H320    1.082   .     S
C290   C179    1.416   1_655 S
C291   N327    1.367   .     A
C291   H321    1.083   .     S
C292   C302    1.419   .     A
C292   C805    1.414   .     S
C292   C807    1.424   .     S
C293   N327    1.367   .     A
C293   H322    1.082   .     S
C294   N328    1.367   .     A
C294   H323    1.082   .     S
C294   C181    1.416   1_655 S
C295   O333    1.290   .     A
C295   O334    1.290   .     A
C296   O336    1.296   .     A
C296   O335    1.297   .     A
C296   C298    1.473   .     S
C297   C308    1.393   .     A
C297   C808    1.397   1_554 S
C297   H829    1.082   1_554 S
C298   C308    1.412   .     A
C298   C307    1.404   .     A
C299   C300    1.390   .     A
C299   H315    1.083   .     S
C300   C805    1.390   .     S
C300   H821    1.079   .     S
C301   H316    1.077   .     S
C301   C804    1.390   1_554 S
C301   C796    1.414   1_554 S
C302   C306    1.417   .     A
C303   C307    1.402   .     A
C303   C796    1.424   1_554 S
C303   C808    1.416   1_554 S
C304   C305    1.391   .     A
C304   C801    1.397   .     S
C304   C807    1.416   .     S
C305   H324    1.085   .     S
C305   C306    1.387   .     A
C306   Cl311   1.764   .     S
C307   H326    1.075   .     S
C308   Cl309   1.764   .     S
Cu312  O331    1.952   .     S
Cu312  O335    1.944   .     S
Cu312  Cu313   2.677   .     S
Cu312  N327    2.011   .     S
Cu312  O329    1.967   .     S
Cu312  O333    1.964   .     S
Cu313  O336    1.952   .     S
Cu313  O332    1.944   .     S
Cu313  O334    1.967   .     S
Cu313  N328    2.011   .     S
Cu313  O330    1.964   .     S
H317   C804    1.079   1_554 S
H325   C801    1.082   .     S
C337   O386    1.295   .     A
C337   C345    1.454   .     S
C337   O385    1.289   .     A
C338   C358    1.427   .     A
C338   C340    1.483   .     S
C338   C355    1.403   .     A
C339   C345    1.403   .     A
C339   H374    1.084   .     S
C339   C5      1.383   1_565 S
C340   O388    1.291   .     A
C340   O387    1.306   .     A
C341   H370    1.083   .     S
C341   C342    1.397   .     A
C342   C343    1.398   .     A
C342   C351    1.447   .     S
C343   H375    1.084   .     S
C344   Cl366   1.766   .     S
C344   C345    1.415   .     A
C344   C7      1.385   1_565 S
C346   N384    1.367   .     A
C346   H376    1.082   .     S
C346   C403    1.416   .     S
C347   N383    1.367   .     A
C347   H377    1.083   .     S
C347   C458    1.416   1_455 S
C348   C358    1.419   .     A
C348   C861    1.414   .     S
C348   C863    1.424   .     S
C349   N383    1.367   .     A
C349   H378    1.082   .     S
C349   C462    1.416   1_455 S
C350   N384    1.367   .     A
C350   H379    1.082   .     S
C350   C405    1.416   .     S
C351   O389    1.290   .     A
C351   O390    1.290   .     A
C352   O392    1.296   .     A
C352   O391    1.297   .     A
C352   C354    1.473   .     S
C353   C364    1.393   .     A
C353   C864    1.397   1_554 S
C353   H885    1.082   1_554 S
C354   C364    1.412   .     A
C354   C363    1.404   .     A
C355   C356    1.390   .     A
C355   H371    1.083   .     S
C356   C861    1.390   .     S
C356   H877    1.079   .     S
C357   H372    1.077   .     S
C357   C860    1.390   1_554 S
C357   C852    1.414   1_554 S
C358   C362    1.417   .     A
C359   C363    1.402   .     A
C359   C852    1.424   1_554 S
C359   C864    1.416   1_554 S
C360   C361    1.391   .     A
C360   C857    1.397   .     S
C360   C863    1.416   .     S
C361   H380    1.085   .     S
C361   C362    1.387   .     A
C362   Cl367   1.764   .     S
C363   H382    1.075   .     S
C364   Cl365   1.764   .     S
Cu368  O387    1.952   .     S
Cu368  O391    1.944   .     S
Cu368  Cu369   2.677   .     S
Cu368  N383    2.011   .     S
Cu368  O385    1.967   .     S
Cu368  O389    1.964   .     S
Cu369  O392    1.952   .     S
Cu369  O388    1.944   .     S
Cu369  O390    1.967   .     S
Cu369  N384    2.011   .     S
Cu369  O386    1.964   .     S
H373   C860    1.079   1_554 S
H381   C857    1.082   .     S
C393   O442    1.295   .     A
C393   C401    1.454   .     S
C393   O441    1.289   .     A
C394   C414    1.427   .     A
C394   C396    1.483   .     S
C394   C411    1.403   .     A
C395   C401    1.403   .     A
C395   H430    1.084   .     S
C395   C61     1.383   1_565 S
C396   O444    1.291   .     A
C396   O443    1.306   .     A
C397   H426    1.083   .     S
C397   C398    1.397   .     A
C398   C399    1.398   .     A
C398   C407    1.447   .     S
C399   H431    1.084   .     S
C400   Cl422   1.766   .     S
C400   C401    1.415   .     A
C400   C63     1.385   1_565 S
C402   N440    1.367   .     A
C402   H432    1.082   .     S
C402   C459    1.416   .     S
C403   N439    1.367   .     A
C403   H433    1.083   .     S
C404   C414    1.419   .     A
C404   C917    1.414   .     S
C404   C919    1.424   .     S
C405   N439    1.367   .     A
C405   H434    1.082   .     S
C406   N440    1.367   .     A
C406   H435    1.082   .     S
C406   C461    1.416   .     S
C407   O445    1.290   .     A
C407   O446    1.290   .     A
C408   O448    1.296   .     A
C408   O447    1.297   .     A
C408   C410    1.473   .     S
C409   C420    1.393   .     A
C409   C920    1.397   1_554 S
C409   H941    1.082   1_554 S
C410   C420    1.412   .     A
C410   C419    1.404   .     A
C411   C412    1.390   .     A
C411   H427    1.083   .     S
C412   C917    1.390   .     S
C412   H933    1.079   .     S
C413   H428    1.077   .     S
C413   C916    1.390   1_554 S
C413   C908    1.414   1_554 S
C414   C418    1.417   .     A
C415   C419    1.402   .     A
C415   C908    1.424   1_554 S
C415   C920    1.416   1_554 S
C416   C417    1.391   .     A
C416   C913    1.397   .     S
C416   C919    1.416   .     S
C417   H436    1.085   .     S
C417   C418    1.387   .     A
C418   Cl423   1.764   .     S
C419   H438    1.075   .     S
C420   Cl421   1.764   .     S
Cu424  O443    1.952   .     S
Cu424  O447    1.944   .     S
Cu424  Cu425   2.677   .     S
Cu424  N439    2.011   .     S
Cu424  O441    1.967   .     S
Cu424  O445    1.964   .     S
Cu425  O448    1.952   .     S
Cu425  O444    1.944   .     S
Cu425  O446    1.967   .     S
Cu425  N440    2.011   .     S
Cu425  O442    1.964   .     S
H429   C916    1.079   1_554 S
H437   C913    1.082   .     S
C449   O498    1.295   .     A
C449   C457    1.454   .     S
C449   O497    1.289   .     A
C450   C470    1.427   .     A
C450   C452    1.483   .     S
C450   C467    1.403   .     A
C451   C457    1.403   .     A
C451   H486    1.084   .     S
C451   C117    1.383   1_565 S
C452   O500    1.291   .     A
C452   O499    1.306   .     A
C453   H482    1.083   .     S
C453   C454    1.397   .     A
C454   C455    1.398   .     A
C454   C463    1.447   .     S
C455   H487    1.084   .     S
C456   Cl478   1.766   .     S
C456   C457    1.415   .     A
C456   C119    1.385   1_565 S
C458   N496    1.367   .     A
C458   H488    1.082   .     S
C458   C347    1.416   1_655 S
C459   N495    1.367   .     A
C459   H489    1.083   .     S
C460   C470    1.419   .     A
C460   C973    1.414   .     S
C460   C975    1.424   .     S
C461   N495    1.367   .     A
C461   H490    1.082   .     S
C462   N496    1.367   .     A
C462   H491    1.082   .     S
C462   C349    1.416   1_655 S
C463   O501    1.290   .     A
C463   O502    1.290   .     A
C464   O504    1.296   .     A
C464   O503    1.297   .     A
C464   C466    1.473   .     S
C465   C476    1.393   .     A
C465   C976    1.397   1_554 S
C465   H997    1.082   1_554 S
C466   C476    1.412   .     A
C466   C475    1.404   .     A
C467   C468    1.390   .     A
C467   H483    1.083   .     S
C468   C973    1.390   .     S
C468   H989    1.079   .     S
C469   H484    1.077   .     S
C469   C972    1.390   1_554 S
C469   C964    1.414   1_554 S
C470   C474    1.417   .     A
C471   C475    1.402   .     A
C471   C964    1.424   1_554 S
C471   C976    1.416   1_554 S
C472   C473    1.391   .     A
C472   C969    1.397   .     S
C472   C975    1.416   .     S
C473   H492    1.085   .     S
C473   C474    1.387   .     A
C474   Cl479   1.764   .     S
C475   H494    1.075   .     S
C476   Cl477   1.764   .     S
Cu480  O499    1.952   .     S
Cu480  O503    1.944   .     S
Cu480  Cu481   2.677   .     S
Cu480  N495    2.011   .     S
Cu480  O497    1.967   .     S
Cu480  O501    1.964   .     S
Cu481  O504    1.952   .     S
Cu481  O500    1.944   .     S
Cu481  O502    1.967   .     S
Cu481  N496    2.011   .     S
Cu481  O498    1.964   .     S
H485   C972    1.079   1_554 S
H493   C969    1.082   .     S
C505   O554    1.295   .     A
C505   C513    1.454   .     S
C505   O553    1.289   .     A
C506   C526    1.427   .     A
C506   C508    1.483   .     S
C506   C523    1.403   .     A
C507   C513    1.403   .     A
C507   H542    1.084   .     S
C507   C677    1.383   .     S
C508   O556    1.291   .     A
C508   O555    1.306   .     A
C509   H538    1.083   .     S
C509   C510    1.397   .     A
C509   C843    1.383   1_545 S
C510   C511    1.398   .     A
C510   C519    1.447   .     S
C511   H543    1.084   .     S
C511   C848    1.385   1_545 S
C512   Cl534   1.766   .     S
C512   C513    1.415   .     A
C512   C679    1.385   .     S
C514   N552    1.367   .     A
C514   H544    1.082   .     S
C514   C571    1.416   .     S
C515   N551    1.367   .     A
C515   H545    1.083   .     S
C515   C626    1.416   1_455 S
C516   C526    1.419   .     A
C516   C21     1.414   1_556 S
C516   C23     1.424   1_556 S
C517   N551    1.367   .     A
C517   H546    1.082   .     S
C517   C630    1.416   1_455 S
C518   N552    1.367   .     A
C518   H547    1.082   .     S
C518   C573    1.416   .     S
C519   O557    1.290   .     A
C519   O558    1.290   .     A
C520   O560    1.296   .     A
C520   O559    1.297   .     A
C520   C522    1.473   .     S
C521   C532    1.393   .     A
C522   C532    1.412   .     A
C522   C531    1.404   .     A
C523   C524    1.390   .     A
C523   H539    1.083   .     S
C524   C21     1.390   1_556 S
C524   H37     1.079   1_556 S
C525   H540    1.077   .     S
C526   C530    1.417   .     A
C527   C531    1.402   .     A
C528   C529    1.391   .     A
C528   C17     1.397   1_556 S
C528   C23     1.416   1_556 S
C529   H548    1.085   .     S
C529   C530    1.387   .     A
C530   Cl535   1.764   .     S
C531   H550    1.075   .     S
C532   Cl533   1.764   .     S
Cu536  O555    1.952   .     S
Cu536  O559    1.944   .     S
Cu536  Cu537   2.677   .     S
Cu536  N551    2.011   .     S
Cu536  O553    1.967   .     S
Cu536  O557    1.964   .     S
Cu537  O560    1.952   .     S
Cu537  O556    1.944   .     S
Cu537  O558    1.967   .     S
Cu537  N552    2.011   .     S
Cu537  O554    1.964   .     S
H549   C17     1.082   1_556 S
C561   O610    1.295   .     A
C561   C569    1.454   .     S
C561   O609    1.289   .     A
C562   C582    1.427   .     A
C562   C564    1.483   .     S
C562   C579    1.403   .     A
C563   C569    1.403   .     A
C563   H598    1.084   .     S
C563   C733    1.383   .     S
C564   O612    1.291   .     A
C564   O611    1.306   .     A
C565   H594    1.083   .     S
C565   C566    1.397   .     A
C565   C899    1.383   1_545 S
C566   C567    1.398   .     A
C566   C575    1.447   .     S
C567   H599    1.084   .     S
C567   C904    1.385   1_545 S
C568   Cl590   1.766   .     S
C568   C569    1.415   .     A
C568   C735    1.385   .     S
C570   N608    1.367   .     A
C570   H600    1.082   .     S
C570   C627    1.416   .     S
C571   N607    1.367   .     A
C571   H601    1.083   .     S
C572   C582    1.419   .     A
C572   C77     1.414   1_556 S
C572   C79     1.424   1_556 S
C573   N607    1.367   .     A
C573   H602    1.082   .     S
C574   N608    1.367   .     A
C574   H603    1.082   .     S
C574   C629    1.416   .     S
C575   O613    1.290   .     A
C575   O614    1.290   .     A
C576   O616    1.296   .     A
C576   O615    1.297   .     A
C576   C578    1.473   .     S
C577   C588    1.393   .     A
C578   C588    1.412   .     A
C578   C587    1.404   .     A
C579   C580    1.390   .     A
C579   H595    1.083   .     S
C580   C77     1.390   1_556 S
C580   H93     1.079   1_556 S
C581   H596    1.077   .     S
C582   C586    1.417   .     A
C583   C587    1.402   .     A
C584   C585    1.391   .     A
C584   C73     1.397   1_556 S
C584   C79     1.416   1_556 S
C585   H604    1.085   .     S
C585   C586    1.387   .     A
C586   Cl591   1.764   .     S
C587   H606    1.075   .     S
C588   Cl589   1.764   .     S
Cu592  O611    1.952   .     S
Cu592  O615    1.944   .     S
Cu592  Cu593   2.677   .     S
Cu592  N607    2.011   .     S
Cu592  O609    1.967   .     S
Cu592  O613    1.964   .     S
Cu593  O616    1.952   .     S
Cu593  O612    1.944   .     S
Cu593  O614    1.967   .     S
Cu593  N608    2.011   .     S
Cu593  O610    1.964   .     S
H605   C73     1.082   1_556 S
C617   O666    1.295   .     A
C617   C625    1.454   .     S
C617   O665    1.289   .     A
C618   C638    1.427   .     A
C618   C620    1.483   .     S
C618   C635    1.403   .     A
C619   C625    1.403   .     A
C619   H654    1.084   .     S
C619   C789    1.383   .     S
C620   O668    1.291   .     A
C620   O667    1.306   .     A
C621   H650    1.083   .     S
C621   C622    1.397   .     A
C621   C955    1.383   1_545 S
C622   C623    1.398   .     A
C622   C631    1.447   .     S
C623   H655    1.084   .     S
C623   C960    1.385   1_545 S
C624   Cl646   1.766   .     S
C624   C625    1.415   .     A
C624   C791    1.385   .     S
C626   N664    1.367   .     A
C626   H656    1.082   .     S
C626   C515    1.416   1_655 S
C627   N663    1.367   .     A
C627   H657    1.083   .     S
C628   C638    1.419   .     A
C628   C133    1.414   1_556 S
C628   C135    1.424   1_556 S
C629   N663    1.367   .     A
C629   H658    1.082   .     S
C630   N664    1.367   .     A
C630   H659    1.082   .     S
C630   C517    1.416   1_655 S
C631   O669    1.290   .     A
C631   O670    1.290   .     A
C632   O672    1.296   .     A
C632   O671    1.297   .     A
C632   C634    1.473   .     S
C633   C644    1.393   .     A
C634   C644    1.412   .     A
C634   C643    1.404   .     A
C635   C636    1.390   .     A
C635   H651    1.083   .     S
C636   C133    1.390   1_556 S
C636   H149    1.079   1_556 S
C637   H652    1.077   .     S
C638   C642    1.417   .     A
C639   C643    1.402   .     A
C640   C641    1.391   .     A
C640   C129    1.397   1_556 S
C640   C135    1.416   1_556 S
C641   H660    1.085   .     S
C641   C642    1.387   .     A
C642   Cl647   1.764   .     S
C643   H662    1.075   .     S
C644   Cl645   1.764   .     S
Cu648  O667    1.952   .     S
Cu648  O671    1.944   .     S
Cu648  Cu649   2.677   .     S
Cu648  N663    2.011   .     S
Cu648  O665    1.967   .     S
Cu648  O669    1.964   .     S
Cu649  O672    1.952   .     S
Cu649  O668    1.944   .     S
Cu649  O670    1.967   .     S
Cu649  N664    2.011   .     S
Cu649  O666    1.964   .     S
H661   C129    1.082   1_556 S
C673   O722    1.295   .     A
C673   C681    1.454   .     S
C673   O721    1.289   .     A
C674   C694    1.427   .     A
C674   C676    1.483   .     S
C674   C691    1.403   .     A
C675   C681    1.403   .     A
C675   H710    1.084   .     S
C675   C845    1.383   .     S
C676   O724    1.291   .     A
C676   O723    1.306   .     A
C677   H706    1.083   .     S
C677   C678    1.397   .     A
C678   C679    1.398   .     A
C678   C687    1.447   .     S
C679   H711    1.084   .     S
C680   Cl702   1.766   .     S
C680   C681    1.415   .     A
C680   C847    1.385   .     S
C682   N720    1.367   .     A
C682   H712    1.082   .     S
C682   C739    1.416   .     S
C683   N719    1.367   .     A
C683   H713    1.083   .     S
C683   C794    1.416   1_455 S
C684   C694    1.419   .     A
C684   C189    1.414   1_556 S
C684   C191    1.424   1_556 S
C685   N719    1.367   .     A
C685   H714    1.082   .     S
C685   C798    1.416   1_455 S
C686   N720    1.367   .     A
C686   H715    1.082   .     S
C686   C741    1.416   .     S
C687   O725    1.290   .     A
C687   O726    1.290   .     A
C688   O728    1.296   .     A
C688   O727    1.297   .     A
C688   C690    1.473   .     S
C689   C700    1.393   .     A
C690   C700    1.412   .     A
C690   C699    1.404   .     A
C691   C692    1.390   .     A
C691   H707    1.083   .     S
C692   C189    1.390   1_556 S
C692   H205    1.079   1_556 S
C693   H708    1.077   .     S
C694   C698    1.417   .     A
C695   C699    1.402   .     A
C696   C697    1.391   .     A
C696   C185    1.397   1_556 S
C696   C191    1.416   1_556 S
C697   H716    1.085   .     S
C697   C698    1.387   .     A
C698   Cl703   1.764   .     S
C699   H718    1.075   .     S
C700   Cl701   1.764   .     S
Cu704  O723    1.952   .     S
Cu704  O727    1.944   .     S
Cu704  Cu705   2.677   .     S
Cu704  N719    2.011   .     S
Cu704  O721    1.967   .     S
Cu704  O725    1.964   .     S
Cu705  O728    1.952   .     S
Cu705  O724    1.944   .     S
Cu705  O726    1.967   .     S
Cu705  N720    2.011   .     S
Cu705  O722    1.964   .     S
H717   C185    1.082   1_556 S
C729   O778    1.295   .     A
C729   C737    1.454   .     S
C729   O777    1.289   .     A
C730   C750    1.427   .     A
C730   C732    1.483   .     S
C730   C747    1.403   .     A
C731   C737    1.403   .     A
C731   H766    1.084   .     S
C731   C901    1.383   .     S
C732   O780    1.291   .     A
C732   O779    1.306   .     A
C733   H762    1.083   .     S
C733   C734    1.397   .     A
C734   C735    1.398   .     A
C734   C743    1.447   .     S
C735   H767    1.084   .     S
C736   Cl758   1.766   .     S
C736   C737    1.415   .     A
C736   C903    1.385   .     S
C738   N776    1.367   .     A
C738   H768    1.082   .     S
C738   C795    1.416   .     S
C739   N775    1.367   .     A
C739   H769    1.083   .     S
C740   C750    1.419   .     A
C740   C245    1.414   1_556 S
C740   C247    1.424   1_556 S
C741   N775    1.367   .     A
C741   H770    1.082   .     S
C742   N776    1.367   .     A
C742   H771    1.082   .     S
C742   C797    1.416   .     S
C743   O781    1.290   .     A
C743   O782    1.290   .     A
C744   O784    1.296   .     A
C744   O783    1.297   .     A
C744   C746    1.473   .     S
C745   C756    1.393   .     A
C746   C756    1.412   .     A
C746   C755    1.404   .     A
C747   C748    1.390   .     A
C747   H763    1.083   .     S
C748   C245    1.390   1_556 S
C748   H261    1.079   1_556 S
C749   H764    1.077   .     S
C750   C754    1.417   .     A
C751   C755    1.402   .     A
C752   C753    1.391   .     A
C752   C241    1.397   1_556 S
C752   C247    1.416   1_556 S
C753   H772    1.085   .     S
C753   C754    1.387   .     A
C754   Cl759   1.764   .     S
C755   H774    1.075   .     S
C756   Cl757   1.764   .     S
Cu760  O779    1.952   .     S
Cu760  O783    1.944   .     S
Cu760  Cu761   2.677   .     S
Cu760  N775    2.011   .     S
Cu760  O777    1.967   .     S
Cu760  O781    1.964   .     S
Cu761  O784    1.952   .     S
Cu761  O780    1.944   .     S
Cu761  O782    1.967   .     S
Cu761  N776    2.011   .     S
Cu761  O778    1.964   .     S
H773   C241    1.082   1_556 S
C785   O834    1.295   .     A
C785   C793    1.454   .     S
C785   O833    1.289   .     A
C786   C806    1.427   .     A
C786   C788    1.483   .     S
C786   C803    1.403   .     A
C787   C793    1.403   .     A
C787   H822    1.084   .     S
C787   C957    1.383   .     S
C788   O836    1.291   .     A
C788   O835    1.306   .     A
C789   H818    1.083   .     S
C789   C790    1.397   .     A
C790   C791    1.398   .     A
C790   C799    1.447   .     S
C791   H823    1.084   .     S
C792   Cl814   1.766   .     S
C792   C793    1.415   .     A
C792   C959    1.385   .     S
C794   N832    1.367   .     A
C794   H824    1.082   .     S
C794   C683    1.416   1_655 S
C795   N831    1.367   .     A
C795   H825    1.083   .     S
C796   C806    1.419   .     A
C796   C301    1.414   1_556 S
C796   C303    1.424   1_556 S
C797   N831    1.367   .     A
C797   H826    1.082   .     S
C798   N832    1.367   .     A
C798   H827    1.082   .     S
C798   C685    1.416   1_655 S
C799   O837    1.290   .     A
C799   O838    1.290   .     A
C800   O840    1.296   .     A
C800   O839    1.297   .     A
C800   C802    1.473   .     S
C801   C812    1.393   .     A
C802   C812    1.412   .     A
C802   C811    1.404   .     A
C803   C804    1.390   .     A
C803   H819    1.083   .     S
C804   C301    1.390   1_556 S
C804   H317    1.079   1_556 S
C805   H820    1.077   .     S
C806   C810    1.417   .     A
C807   C811    1.402   .     A
C808   C809    1.391   .     A
C808   C297    1.397   1_556 S
C808   C303    1.416   1_556 S
C809   H828    1.085   .     S
C809   C810    1.387   .     A
C810   Cl815   1.764   .     S
C811   H830    1.075   .     S
C812   Cl813   1.764   .     S
Cu816  O835    1.952   .     S
Cu816  O839    1.944   .     S
Cu816  Cu817   2.677   .     S
Cu816  N831    2.011   .     S
Cu816  O833    1.967   .     S
Cu816  O837    1.964   .     S
Cu817  O840    1.952   .     S
Cu817  O836    1.944   .     S
Cu817  O838    1.967   .     S
Cu817  N832    2.011   .     S
Cu817  O834    1.964   .     S
H829   C297    1.082   1_556 S
C841   O890    1.295   .     A
C841   C849    1.454   .     S
C841   O889    1.289   .     A
C842   C862    1.427   .     A
C842   C844    1.483   .     S
C842   C859    1.403   .     A
C843   C849    1.403   .     A
C843   H878    1.084   .     S
C843   C509    1.383   1_565 S
C844   O892    1.291   .     A
C844   O891    1.306   .     A
C845   H874    1.083   .     S
C845   C846    1.397   .     A
C846   C847    1.398   .     A
C846   C855    1.447   .     S
C847   H879    1.084   .     S
C848   Cl870   1.766   .     S
C848   C849    1.415   .     A
C848   C511    1.385   1_565 S
C850   N888    1.367   .     A
C850   H880    1.082   .     S
C850   C907    1.416   .     S
C851   N887    1.367   .     A
C851   H881    1.083   .     S
C851   C962    1.416   1_455 S
C852   C862    1.419   .     A
C852   C357    1.414   1_556 S
C852   C359    1.424   1_556 S
C853   N887    1.367   .     A
C853   H882    1.082   .     S
C853   C966    1.416   1_455 S
C854   N888    1.367   .     A
C854   H883    1.082   .     S
C854   C909    1.416   .     S
C855   O893    1.290   .     A
C855   O894    1.290   .     A
C856   O896    1.296   .     A
C856   O895    1.297   .     A
C856   C858    1.473   .     S
C857   C868    1.393   .     A
C858   C868    1.412   .     A
C858   C867    1.404   .     A
C859   C860    1.390   .     A
C859   H875    1.083   .     S
C860   C357    1.390   1_556 S
C860   H373    1.079   1_556 S
C861   H876    1.077   .     S
C862   C866    1.417   .     A
C863   C867    1.402   .     A
C864   C865    1.391   .     A
C864   C353    1.397   1_556 S
C864   C359    1.416   1_556 S
C865   H884    1.085   .     S
C865   C866    1.387   .     A
C866   Cl871   1.764   .     S
C867   H886    1.075   .     S
C868   Cl869   1.764   .     S
Cu872  O891    1.952   .     S
Cu872  O895    1.944   .     S
Cu872  Cu873   2.677   .     S
Cu872  N887    2.011   .     S
Cu872  O889    1.967   .     S
Cu872  O893    1.964   .     S
Cu873  O896    1.952   .     S
Cu873  O892    1.944   .     S
Cu873  O894    1.967   .     S
Cu873  N888    2.011   .     S
Cu873  O890    1.964   .     S
H885   C353    1.082   1_556 S
C897   O946    1.295   .     A
C897   C905    1.454   .     S
C897   O945    1.289   .     A
C898   C918    1.427   .     A
C898   C900    1.483   .     S
C898   C915    1.403   .     A
C899   C905    1.403   .     A
C899   H934    1.084   .     S
C899   C565    1.383   1_565 S
C900   O948    1.291   .     A
C900   O947    1.306   .     A
C901   H930    1.083   .     S
C901   C902    1.397   .     A
C902   C903    1.398   .     A
C902   C911    1.447   .     S
C903   H935    1.084   .     S
C904   Cl926   1.766   .     S
C904   C905    1.415   .     A
C904   C567    1.385   1_565 S
C906   N944    1.367   .     A
C906   H936    1.082   .     S
C906   C963    1.416   .     S
C907   N943    1.367   .     A
C907   H937    1.083   .     S
C908   C918    1.419   .     A
C908   C413    1.414   1_556 S
C908   C415    1.424   1_556 S
C909   N943    1.367   .     A
C909   H938    1.082   .     S
C910   N944    1.367   .     A
C910   H939    1.082   .     S
C910   C965    1.416   .     S
C911   O949    1.290   .     A
C911   O950    1.290   .     A
C912   O952    1.296   .     A
C912   O951    1.297   .     A
C912   C914    1.473   .     S
C913   C924    1.393   .     A
C914   C924    1.412   .     A
C914   C923    1.404   .     A
C915   C916    1.390   .     A
C915   H931    1.083   .     S
C916   C413    1.390   1_556 S
C916   H429    1.079   1_556 S
C917   H932    1.077   .     S
C918   C922    1.417   .     A
C919   C923    1.402   .     A
C920   C921    1.391   .     A
C920   C409    1.397   1_556 S
C920   C415    1.416   1_556 S
C921   H940    1.085   .     S
C921   C922    1.387   .     A
C922   Cl927   1.764   .     S
C923   H942    1.075   .     S
C924   Cl925   1.764   .     S
Cu928  O947    1.952   .     S
Cu928  O951    1.944   .     S
Cu928  Cu929   2.677   .     S
Cu928  N943    2.011   .     S
Cu928  O945    1.967   .     S
Cu928  O949    1.964   .     S
Cu929  O952    1.952   .     S
Cu929  O948    1.944   .     S
Cu929  O950    1.967   .     S
Cu929  N944    2.011   .     S
Cu929  O946    1.964   .     S
H941   C409    1.082   1_556 S
C953   O1002   1.295   .     A
C953   C961    1.454   .     S
C953   O1001   1.289   .     A
C954   C974    1.427   .     A
C954   C956    1.483   .     S
C954   C971    1.403   .     A
C955   C961    1.403   .     A
C955   H990    1.084   .     S
C955   C621    1.383   1_565 S
C956   O1004   1.291   .     A
C956   O1003   1.306   .     A
C957   H986    1.083   .     S
C957   C958    1.397   .     A
C958   C959    1.398   .     A
C958   C967    1.447   .     S
C959   H991    1.084   .     S
C960   Cl982   1.766   .     S
C960   C961    1.415   .     A
C960   C623    1.385   1_565 S
C962   N1000   1.367   .     A
C962   H992    1.082   .     S
C962   C851    1.416   1_655 S
C963   N999    1.367   .     A
C963   H993    1.083   .     S
C964   C974    1.419   .     A
C964   C469    1.414   1_556 S
C964   C471    1.424   1_556 S
C965   N999    1.367   .     A
C965   H994    1.082   .     S
C966   N1000   1.367   .     A
C966   H995    1.082   .     S
C966   C853    1.416   1_655 S
C967   O1005   1.290   .     A
C967   O1006   1.290   .     A
C968   O1008   1.296   .     A
C968   O1007   1.297   .     A
C968   C970    1.473   .     S
C969   C980    1.393   .     A
C970   C980    1.412   .     A
C970   C979    1.404   .     A
C971   C972    1.390   .     A
C971   H987    1.083   .     S
C972   C469    1.390   1_556 S
C972   H485    1.079   1_556 S
C973   H988    1.077   .     S
C974   C978    1.417   .     A
C975   C979    1.402   .     A
C976   C977    1.391   .     A
C976   C465    1.397   1_556 S
C976   C471    1.416   1_556 S
C977   H996    1.085   .     S
C977   C978    1.387   .     A
C978   Cl983   1.764   .     S
C979   H998    1.075   .     S
C980   Cl981   1.764   .     S
Cu984  O1003   1.952   .     S
Cu984  O1007   1.944   .     S
Cu984  Cu985   2.677   .     S
Cu984  N999    2.011   .     S
Cu984  O1001   1.967   .     S
Cu984  O1005   1.964   .     S
Cu985  O1008   1.952   .     S
Cu985  O1004   1.944   .     S
Cu985  O1006   1.967   .     S
Cu985  N1000   2.011   .     S
Cu985  O1002   1.964   .     S
H997   C465    1.082   1_556 S
