data_str_m2_o2_o10_pcu_sym.196
_audit_creation_date              2020-01-03
_audit_creation_method            'Materials Studio'
_symmetry_space_group_name_H-M    'P1'
_symmetry_Int_Tables_number       1
_symmetry_cell_setting            triclinic
loop_
_symmetry_equiv_pos_as_xyz
  x,y,z
_cell_length_a                    26.2038
_cell_length_b                    30.1936
_cell_length_c                    27.7370
_cell_angle_alpha                 90.2055
_cell_angle_beta                  97.9336
_cell_angle_gamma                 90.1206
loop_
_atom_site_label
_atom_site_type_symbol
_atom_site_fract_x
_atom_site_fract_y
_atom_site_fract_z
_atom_site_U_iso_or_equiv
_atom_site_adp_type
_atom_site_occupancy
C1     C     0.16708   0.16492   0.24995   0.00000  Uiso   1.00
C2     C     0.16715   0.33509   0.25017   0.00000  Uiso   1.00
C3     C     0.19060   0.28417   0.05721   0.00000  Uiso   1.00
C4     C     0.12712   0.22917   0.44081   0.00000  Uiso   1.00
C5     C     0.19046   0.28337   0.10791   0.00000  Uiso   1.00
C6     C     0.12805   0.22927   0.39021   0.00000  Uiso   1.00
C7     C     0.14295   0.21661   0.10146   0.00000  Uiso   1.00
C8     C     0.20529   0.27072   0.40041   0.00000  Uiso   1.00
C9     C     0.14284   0.21580   0.05072   0.00000  Uiso   1.00
C10    C     0.20625   0.27082   0.45126   0.00000  Uiso   1.00
C11    C     0.16671   0.24999   0.02734   0.00000  Uiso   1.00
C12    C     0.16670   0.24999   0.47266   0.00000  Uiso   1.00
C13    C     0.06790   0.24998   0.23756   0.00000  Uiso   1.00
C14    C     0.26544   0.25001   0.26245   0.00000  Uiso   1.00
C15    C     0.01263   0.24999   0.23069   0.00000  Uiso   1.00
C16    C     0.32070   0.24999   0.26932   0.00000  Uiso   1.00
C17    C     0.15337   0.04644   0.28610   0.00000  Uiso   1.00
C18    C     0.15390   0.45349   0.21027   0.00000  Uiso   1.00
C19    C     0.14996   0.09233   0.28589   0.00000  Uiso   1.00
C20    C     0.15052   0.40758   0.20957   0.00000  Uiso   1.00
C21    C     0.16997   0.11667   0.24997   0.00000  Uiso   1.00
C22    C     0.17008   0.38335   0.25087   0.00000  Uiso   1.00
C23    C     0.19424   0.09484   0.21473   0.00000  Uiso   1.00
C24    C     0.19394   0.40533   0.29261   0.00000  Uiso   1.00
C25    C     0.19979   0.04895   0.21561   0.00000  Uiso   1.00
C26    C     0.19943   0.45125   0.29321   0.00000  Uiso   1.00
C27    C     0.17832   0.02435   0.25141   0.00000  Uiso   1.00
C28    C     0.17836   0.47572   0.25164   0.00000  Uiso   1.00
Cu29   Cu    0.16667   0.25000   0.29822   0.00000  Uiso   1.00
Cu30   Cu    0.16667   0.25001   0.20179   0.00000  Uiso   1.00
H31    H     0.32599   0.25002   0.19363   0.00000  Uiso   1.00
H32    H     0.00734   0.24996   0.30639   0.00000  Uiso   1.00
H33    H     0.13631   0.02797   0.31328   0.00000  Uiso   1.00
H34    H     0.13716   0.47186   0.17850   0.00000  Uiso   1.00
H35    H     0.13089   0.10875   0.31324   0.00000  Uiso   1.00
H36    H     0.13182   0.39106   0.17711   0.00000  Uiso   1.00
H37    H     0.21058   0.11361   0.18731   0.00000  Uiso   1.00
H38    H     0.20997   0.38665   0.32441   0.00000  Uiso   1.00
H39    H     0.20881   0.31187   0.04173   0.00000  Uiso   1.00
H40    H     0.09504   0.21330   0.45454   0.00000  Uiso   1.00
H41    H     0.20939   0.30975   0.13008   0.00000  Uiso   1.00
H42    H     0.09752   0.21278   0.36656   0.00000  Uiso   1.00
H43    H     0.12408   0.19021   0.11852   0.00000  Uiso   1.00
H44    H     0.23581   0.28719   0.38482   0.00000  Uiso   1.00
H45    H     0.12466   0.18808   0.03027   0.00000  Uiso   1.00
H46    H     0.23834   0.28670   0.47347   0.00000  Uiso   1.00
N47    N     0.16667   0.25001   0.12935   0.00000  Uiso   1.00
N48    N     0.16667   0.24999   0.37066   0.00000  Uiso   1.00
O49    O     0.16667   0.18573   0.29072   0.00000  Uiso   1.00
O50    O     0.16666   0.31428   0.20929   0.00000  Uiso   1.00
O51    O     0.16667   0.18573   0.20928   0.00000  Uiso   1.00
O52    O     0.16666   0.31427   0.29072   0.00000  Uiso   1.00
O53    O     0.09161   0.25000   0.28132   0.00000  Uiso   1.00
O54    O     0.24172   0.25001   0.21868   0.00000  Uiso   1.00
O55    O     0.09161   0.25000   0.19989   0.00000  Uiso   1.00
O56    O     0.24172   0.25000   0.30012   0.00000  Uiso   1.00
O57    O     0.22682   0.02994   0.18151   0.00000  Uiso   1.00
H58    H     0.23677   0.49939   0.19153   0.00000  Uiso   1.00
O59    O     0.22601   0.47042   0.33455   0.00000  Uiso   1.00
H60    H     0.23599   0.00102   0.32723   0.00000  Uiso   1.00
C61    C     0.50042   0.16492   0.24995   0.00000  Uiso   1.00
C62    C     0.50049   0.33509   0.25017   0.00000  Uiso   1.00
C63    C     0.52393   0.28417   0.05721   0.00000  Uiso   1.00
C64    C     0.46045   0.22917   0.44081   0.00000  Uiso   1.00
C65    C     0.52380   0.28337   0.10791   0.00000  Uiso   1.00
C66    C     0.46139   0.22927   0.39021   0.00000  Uiso   1.00
C67    C     0.47628   0.21661   0.10146   0.00000  Uiso   1.00
C68    C     0.53862   0.27072   0.40041   0.00000  Uiso   1.00
C69    C     0.47617   0.21580   0.05072   0.00000  Uiso   1.00
C70    C     0.53958   0.27082   0.45126   0.00000  Uiso   1.00
C71    C     0.50005   0.24999   0.02734   0.00000  Uiso   1.00
C72    C     0.50003   0.24999   0.47266   0.00000  Uiso   1.00
C73    C     0.40123   0.24998   0.23756   0.00000  Uiso   1.00
C74    C     0.59877   0.25001   0.26245   0.00000  Uiso   1.00
C75    C     0.34597   0.24999   0.23069   0.00000  Uiso   1.00
C76    C     0.65403   0.24999   0.26932   0.00000  Uiso   1.00
C77    C     0.48671   0.04644   0.28610   0.00000  Uiso   1.00
C78    C     0.48723   0.45349   0.21027   0.00000  Uiso   1.00
C79    C     0.48329   0.09233   0.28589   0.00000  Uiso   1.00
C80    C     0.48386   0.40758   0.20957   0.00000  Uiso   1.00
C81    C     0.50330   0.11667   0.24997   0.00000  Uiso   1.00
C82    C     0.50341   0.38335   0.25087   0.00000  Uiso   1.00
C83    C     0.52757   0.09484   0.21473   0.00000  Uiso   1.00
C84    C     0.52727   0.40533   0.29261   0.00000  Uiso   1.00
C85    C     0.53312   0.04895   0.21561   0.00000  Uiso   1.00
C86    C     0.53277   0.45125   0.29321   0.00000  Uiso   1.00
C87    C     0.51165   0.02435   0.25141   0.00000  Uiso   1.00
C88    C     0.51169   0.47572   0.25164   0.00000  Uiso   1.00
Cu89   Cu    0.50000   0.25000   0.29822   0.00000  Uiso   1.00
Cu90   Cu    0.50000   0.25001   0.20179   0.00000  Uiso   1.00
H91    H     0.65932   0.25002   0.19363   0.00000  Uiso   1.00
H92    H     0.34067   0.24996   0.30639   0.00000  Uiso   1.00
H93    H     0.46964   0.02797   0.31328   0.00000  Uiso   1.00
H94    H     0.47049   0.47186   0.17850   0.00000  Uiso   1.00
H95    H     0.46422   0.10875   0.31324   0.00000  Uiso   1.00
H96    H     0.46516   0.39106   0.17711   0.00000  Uiso   1.00
H97    H     0.54391   0.11361   0.18731   0.00000  Uiso   1.00
H98    H     0.54330   0.38665   0.32441   0.00000  Uiso   1.00
H99    H     0.54214   0.31187   0.04173   0.00000  Uiso   1.00
H100   H     0.42838   0.21330   0.45454   0.00000  Uiso   1.00
H101   H     0.54272   0.30975   0.13008   0.00000  Uiso   1.00
H102   H     0.43085   0.21278   0.36656   0.00000  Uiso   1.00
H103   H     0.45741   0.19021   0.11852   0.00000  Uiso   1.00
H104   H     0.56914   0.28719   0.38482   0.00000  Uiso   1.00
H105   H     0.45799   0.18808   0.03027   0.00000  Uiso   1.00
H106   H     0.57167   0.28670   0.47347   0.00000  Uiso   1.00
N107   N     0.50000   0.25001   0.12935   0.00000  Uiso   1.00
N108   N     0.50000   0.24999   0.37066   0.00000  Uiso   1.00
O109   O     0.50000   0.18573   0.29072   0.00000  Uiso   1.00
O110   O     0.50000   0.31428   0.20929   0.00000  Uiso   1.00
O111   O     0.50000   0.18573   0.20928   0.00000  Uiso   1.00
O112   O     0.50000   0.31427   0.29072   0.00000  Uiso   1.00
O113   O     0.42495   0.25000   0.28132   0.00000  Uiso   1.00
O114   O     0.57505   0.25001   0.21868   0.00000  Uiso   1.00
O115   O     0.42495   0.25000   0.19989   0.00000  Uiso   1.00
O116   O     0.57505   0.25000   0.30012   0.00000  Uiso   1.00
O117   O     0.56015   0.02994   0.18151   0.00000  Uiso   1.00
H118   H     0.57010   0.49939   0.19153   0.00000  Uiso   1.00
O119   O     0.55934   0.47042   0.33455   0.00000  Uiso   1.00
H120   H     0.56933   0.00102   0.32723   0.00000  Uiso   1.00
C121   C     0.83375   0.16492   0.24995   0.00000  Uiso   1.00
C122   C     0.83382   0.33509   0.25017   0.00000  Uiso   1.00
C123   C     0.85727   0.28417   0.05721   0.00000  Uiso   1.00
C124   C     0.79379   0.22917   0.44081   0.00000  Uiso   1.00
C125   C     0.85713   0.28337   0.10791   0.00000  Uiso   1.00
C126   C     0.79472   0.22927   0.39021   0.00000  Uiso   1.00
C127   C     0.80961   0.21661   0.10146   0.00000  Uiso   1.00
C128   C     0.87196   0.27072   0.40041   0.00000  Uiso   1.00
C129   C     0.80951   0.21580   0.05072   0.00000  Uiso   1.00
C130   C     0.87292   0.27082   0.45126   0.00000  Uiso   1.00
C131   C     0.83338   0.24999   0.02734   0.00000  Uiso   1.00
C132   C     0.83336   0.24999   0.47266   0.00000  Uiso   1.00
C133   C     0.73456   0.24998   0.23756   0.00000  Uiso   1.00
C134   C     0.93210   0.25001   0.26245   0.00000  Uiso   1.00
C135   C     0.67930   0.24999   0.23069   0.00000  Uiso   1.00
C136   C     0.98737   0.24999   0.26932   0.00000  Uiso   1.00
C137   C     0.82004   0.04644   0.28610   0.00000  Uiso   1.00
C138   C     0.82056   0.45349   0.21027   0.00000  Uiso   1.00
C139   C     0.81662   0.09233   0.28589   0.00000  Uiso   1.00
C140   C     0.81719   0.40758   0.20957   0.00000  Uiso   1.00
C141   C     0.83663   0.11667   0.24997   0.00000  Uiso   1.00
C142   C     0.83675   0.38335   0.25087   0.00000  Uiso   1.00
C143   C     0.86091   0.09484   0.21473   0.00000  Uiso   1.00
C144   C     0.86060   0.40533   0.29261   0.00000  Uiso   1.00
C145   C     0.86646   0.04895   0.21561   0.00000  Uiso   1.00
C146   C     0.86610   0.45125   0.29321   0.00000  Uiso   1.00
C147   C     0.84498   0.02435   0.25141   0.00000  Uiso   1.00
C148   C     0.84503   0.47572   0.25164   0.00000  Uiso   1.00
Cu149  Cu    0.83333   0.25000   0.29822   0.00000  Uiso   1.00
Cu150  Cu    0.83333   0.25001   0.20179   0.00000  Uiso   1.00
H151   H     0.99266   0.25002   0.19363   0.00000  Uiso   1.00
H152   H     0.67401   0.24996   0.30639   0.00000  Uiso   1.00
H153   H     0.80297   0.02797   0.31328   0.00000  Uiso   1.00
H154   H     0.80383   0.47186   0.17850   0.00000  Uiso   1.00
H155   H     0.79756   0.10875   0.31324   0.00000  Uiso   1.00
H156   H     0.79849   0.39106   0.17711   0.00000  Uiso   1.00
H157   H     0.87725   0.11361   0.18731   0.00000  Uiso   1.00
H158   H     0.87663   0.38665   0.32441   0.00000  Uiso   1.00
H159   H     0.87548   0.31187   0.04173   0.00000  Uiso   1.00
H160   H     0.76171   0.21330   0.45454   0.00000  Uiso   1.00
H161   H     0.87606   0.30975   0.13008   0.00000  Uiso   1.00
H162   H     0.76418   0.21278   0.36656   0.00000  Uiso   1.00
H163   H     0.79074   0.19021   0.11852   0.00000  Uiso   1.00
H164   H     0.90247   0.28719   0.38482   0.00000  Uiso   1.00
H165   H     0.79133   0.18808   0.03027   0.00000  Uiso   1.00
H166   H     0.90501   0.28670   0.47347   0.00000  Uiso   1.00
N167   N     0.83333   0.25001   0.12935   0.00000  Uiso   1.00
N168   N     0.83333   0.24999   0.37066   0.00000  Uiso   1.00
O169   O     0.83334   0.18573   0.29072   0.00000  Uiso   1.00
O170   O     0.83333   0.31428   0.20929   0.00000  Uiso   1.00
O171   O     0.83334   0.18573   0.20928   0.00000  Uiso   1.00
O172   O     0.83333   0.31427   0.29072   0.00000  Uiso   1.00
O173   O     0.75828   0.25000   0.28132   0.00000  Uiso   1.00
O174   O     0.90839   0.25001   0.21868   0.00000  Uiso   1.00
O175   O     0.75828   0.25000   0.19989   0.00000  Uiso   1.00
O176   O     0.90839   0.25000   0.30012   0.00000  Uiso   1.00
O177   O     0.89348   0.02994   0.18151   0.00000  Uiso   1.00
H178   H     0.90343   0.49939   0.19153   0.00000  Uiso   1.00
O179   O     0.89267   0.47042   0.33455   0.00000  Uiso   1.00
H180   H     0.90266   0.00102   0.32723   0.00000  Uiso   1.00
C181   C     0.16708   0.66492   0.24995   0.00000  Uiso   1.00
C182   C     0.16715   0.83509   0.25017   0.00000  Uiso   1.00
C183   C     0.19060   0.78417   0.05721   0.00000  Uiso   1.00
C184   C     0.12712   0.72917   0.44081   0.00000  Uiso   1.00
C185   C     0.19046   0.78337   0.10791   0.00000  Uiso   1.00
C186   C     0.12805   0.72927   0.39021   0.00000  Uiso   1.00
C187   C     0.14295   0.71661   0.10146   0.00000  Uiso   1.00
C188   C     0.20529   0.77072   0.40041   0.00000  Uiso   1.00
C189   C     0.14284   0.71580   0.05072   0.00000  Uiso   1.00
C190   C     0.20625   0.77082   0.45126   0.00000  Uiso   1.00
C191   C     0.16671   0.74999   0.02734   0.00000  Uiso   1.00
C192   C     0.16670   0.74999   0.47266   0.00000  Uiso   1.00
C193   C     0.06790   0.74998   0.23756   0.00000  Uiso   1.00
C194   C     0.26544   0.75001   0.26245   0.00000  Uiso   1.00
C195   C     0.01263   0.74999   0.23069   0.00000  Uiso   1.00
C196   C     0.32070   0.74999   0.26932   0.00000  Uiso   1.00
C197   C     0.15337   0.54644   0.28610   0.00000  Uiso   1.00
C198   C     0.15390   0.95349   0.21027   0.00000  Uiso   1.00
C199   C     0.14996   0.59233   0.28589   0.00000  Uiso   1.00
C200   C     0.15052   0.90758   0.20957   0.00000  Uiso   1.00
C201   C     0.16997   0.61667   0.24997   0.00000  Uiso   1.00
C202   C     0.17008   0.88335   0.25087   0.00000  Uiso   1.00
C203   C     0.19424   0.59484   0.21473   0.00000  Uiso   1.00
C204   C     0.19394   0.90533   0.29261   0.00000  Uiso   1.00
C205   C     0.19979   0.54895   0.21561   0.00000  Uiso   1.00
C206   C     0.19943   0.95125   0.29321   0.00000  Uiso   1.00
C207   C     0.17832   0.52435   0.25141   0.00000  Uiso   1.00
C208   C     0.17836   0.97572   0.25164   0.00000  Uiso   1.00
Cu209  Cu    0.16667   0.75000   0.29822   0.00000  Uiso   1.00
Cu210  Cu    0.16667   0.75001   0.20179   0.00000  Uiso   1.00
H211   H     0.32599   0.75002   0.19363   0.00000  Uiso   1.00
H212   H     0.00734   0.74996   0.30639   0.00000  Uiso   1.00
H213   H     0.13631   0.52797   0.31328   0.00000  Uiso   1.00
H214   H     0.13716   0.97186   0.17850   0.00000  Uiso   1.00
H215   H     0.13089   0.60875   0.31324   0.00000  Uiso   1.00
H216   H     0.13182   0.89106   0.17711   0.00000  Uiso   1.00
H217   H     0.21058   0.61361   0.18731   0.00000  Uiso   1.00
H218   H     0.20997   0.88665   0.32441   0.00000  Uiso   1.00
H219   H     0.20881   0.81187   0.04173   0.00000  Uiso   1.00
H220   H     0.09504   0.71330   0.45454   0.00000  Uiso   1.00
H221   H     0.20939   0.80975   0.13008   0.00000  Uiso   1.00
H222   H     0.09752   0.71278   0.36656   0.00000  Uiso   1.00
H223   H     0.12408   0.69021   0.11852   0.00000  Uiso   1.00
H224   H     0.23581   0.78719   0.38482   0.00000  Uiso   1.00
H225   H     0.12466   0.68808   0.03027   0.00000  Uiso   1.00
H226   H     0.23834   0.78670   0.47347   0.00000  Uiso   1.00
N227   N     0.16667   0.75001   0.12935   0.00000  Uiso   1.00
N228   N     0.16667   0.74999   0.37066   0.00000  Uiso   1.00
O229   O     0.16667   0.68573   0.29072   0.00000  Uiso   1.00
O230   O     0.16666   0.81428   0.20929   0.00000  Uiso   1.00
O231   O     0.16667   0.68573   0.20928   0.00000  Uiso   1.00
O232   O     0.16666   0.81427   0.29072   0.00000  Uiso   1.00
O233   O     0.09161   0.75000   0.28132   0.00000  Uiso   1.00
O234   O     0.24172   0.75001   0.21868   0.00000  Uiso   1.00
O235   O     0.09161   0.75000   0.19989   0.00000  Uiso   1.00
O236   O     0.24172   0.75000   0.30012   0.00000  Uiso   1.00
O237   O     0.22682   0.52994   0.18151   0.00000  Uiso   1.00
H238   H     0.23677   0.99939   0.19153   0.00000  Uiso   1.00
O239   O     0.22601   0.97042   0.33455   0.00000  Uiso   1.00
H240   H     0.23599   0.50102   0.32723   0.00000  Uiso   1.00
C241   C     0.50042   0.66492   0.24995   0.00000  Uiso   1.00
C242   C     0.50049   0.83509   0.25017   0.00000  Uiso   1.00
C243   C     0.52393   0.78417   0.05721   0.00000  Uiso   1.00
C244   C     0.46045   0.72917   0.44081   0.00000  Uiso   1.00
C245   C     0.52380   0.78337   0.10791   0.00000  Uiso   1.00
C246   C     0.46139   0.72927   0.39021   0.00000  Uiso   1.00
C247   C     0.47628   0.71661   0.10146   0.00000  Uiso   1.00
C248   C     0.53862   0.77072   0.40041   0.00000  Uiso   1.00
C249   C     0.47617   0.71580   0.05072   0.00000  Uiso   1.00
C250   C     0.53958   0.77082   0.45126   0.00000  Uiso   1.00
C251   C     0.50005   0.74999   0.02734   0.00000  Uiso   1.00
C252   C     0.50003   0.74999   0.47266   0.00000  Uiso   1.00
C253   C     0.40123   0.74998   0.23756   0.00000  Uiso   1.00
C254   C     0.59877   0.75001   0.26245   0.00000  Uiso   1.00
C255   C     0.34597   0.74999   0.23069   0.00000  Uiso   1.00
C256   C     0.65403   0.74999   0.26932   0.00000  Uiso   1.00
C257   C     0.48671   0.54644   0.28610   0.00000  Uiso   1.00
C258   C     0.48723   0.95349   0.21027   0.00000  Uiso   1.00
C259   C     0.48329   0.59233   0.28589   0.00000  Uiso   1.00
C260   C     0.48386   0.90758   0.20957   0.00000  Uiso   1.00
C261   C     0.50330   0.61667   0.24997   0.00000  Uiso   1.00
C262   C     0.50341   0.88335   0.25087   0.00000  Uiso   1.00
C263   C     0.52757   0.59484   0.21473   0.00000  Uiso   1.00
C264   C     0.52727   0.90533   0.29261   0.00000  Uiso   1.00
C265   C     0.53312   0.54895   0.21561   0.00000  Uiso   1.00
C266   C     0.53277   0.95125   0.29321   0.00000  Uiso   1.00
C267   C     0.51165   0.52435   0.25141   0.00000  Uiso   1.00
C268   C     0.51169   0.97572   0.25164   0.00000  Uiso   1.00
Cu269  Cu    0.50000   0.75000   0.29822   0.00000  Uiso   1.00
Cu270  Cu    0.50000   0.75001   0.20179   0.00000  Uiso   1.00
H271   H     0.65932   0.75002   0.19363   0.00000  Uiso   1.00
H272   H     0.34067   0.74996   0.30639   0.00000  Uiso   1.00
H273   H     0.46964   0.52797   0.31328   0.00000  Uiso   1.00
H274   H     0.47049   0.97186   0.17850   0.00000  Uiso   1.00
H275   H     0.46422   0.60875   0.31324   0.00000  Uiso   1.00
H276   H     0.46516   0.89106   0.17711   0.00000  Uiso   1.00
H277   H     0.54391   0.61361   0.18731   0.00000  Uiso   1.00
H278   H     0.54330   0.88665   0.32441   0.00000  Uiso   1.00
H279   H     0.54214   0.81187   0.04173   0.00000  Uiso   1.00
H280   H     0.42838   0.71330   0.45454   0.00000  Uiso   1.00
H281   H     0.54272   0.80975   0.13008   0.00000  Uiso   1.00
H282   H     0.43085   0.71278   0.36656   0.00000  Uiso   1.00
H283   H     0.45741   0.69021   0.11852   0.00000  Uiso   1.00
H284   H     0.56914   0.78719   0.38482   0.00000  Uiso   1.00
H285   H     0.45799   0.68808   0.03027   0.00000  Uiso   1.00
H286   H     0.57167   0.78670   0.47347   0.00000  Uiso   1.00
N287   N     0.50000   0.75001   0.12935   0.00000  Uiso   1.00
N288   N     0.50000   0.74999   0.37066   0.00000  Uiso   1.00
O289   O     0.50000   0.68573   0.29072   0.00000  Uiso   1.00
O290   O     0.50000   0.81428   0.20929   0.00000  Uiso   1.00
O291   O     0.50000   0.68573   0.20928   0.00000  Uiso   1.00
O292   O     0.50000   0.81427   0.29072   0.00000  Uiso   1.00
O293   O     0.42495   0.75000   0.28132   0.00000  Uiso   1.00
O294   O     0.57505   0.75001   0.21868   0.00000  Uiso   1.00
O295   O     0.42495   0.75000   0.19989   0.00000  Uiso   1.00
O296   O     0.57505   0.75000   0.30012   0.00000  Uiso   1.00
O297   O     0.56015   0.52994   0.18151   0.00000  Uiso   1.00
H298   H     0.57010   0.99939   0.19153   0.00000  Uiso   1.00
O299   O     0.55934   0.97042   0.33455   0.00000  Uiso   1.00
H300   H     0.56933   0.50102   0.32723   0.00000  Uiso   1.00
C301   C     0.83375   0.66492   0.24995   0.00000  Uiso   1.00
C302   C     0.83382   0.83509   0.25017   0.00000  Uiso   1.00
C303   C     0.85727   0.78417   0.05721   0.00000  Uiso   1.00
C304   C     0.79379   0.72917   0.44081   0.00000  Uiso   1.00
C305   C     0.85713   0.78337   0.10791   0.00000  Uiso   1.00
C306   C     0.79472   0.72927   0.39021   0.00000  Uiso   1.00
C307   C     0.80961   0.71661   0.10146   0.00000  Uiso   1.00
C308   C     0.87196   0.77072   0.40041   0.00000  Uiso   1.00
C309   C     0.80951   0.71580   0.05072   0.00000  Uiso   1.00
C310   C     0.87292   0.77082   0.45126   0.00000  Uiso   1.00
C311   C     0.83338   0.74999   0.02734   0.00000  Uiso   1.00
C312   C     0.83336   0.74999   0.47266   0.00000  Uiso   1.00
C313   C     0.73456   0.74998   0.23756   0.00000  Uiso   1.00
C314   C     0.93210   0.75001   0.26245   0.00000  Uiso   1.00
C315   C     0.67930   0.74999   0.23069   0.00000  Uiso   1.00
C316   C     0.98737   0.74999   0.26932   0.00000  Uiso   1.00
C317   C     0.82004   0.54644   0.28610   0.00000  Uiso   1.00
C318   C     0.82056   0.95349   0.21027   0.00000  Uiso   1.00
C319   C     0.81662   0.59233   0.28589   0.00000  Uiso   1.00
C320   C     0.81719   0.90758   0.20957   0.00000  Uiso   1.00
C321   C     0.83663   0.61667   0.24997   0.00000  Uiso   1.00
C322   C     0.83675   0.88335   0.25087   0.00000  Uiso   1.00
C323   C     0.86091   0.59484   0.21473   0.00000  Uiso   1.00
C324   C     0.86060   0.90533   0.29261   0.00000  Uiso   1.00
C325   C     0.86646   0.54895   0.21561   0.00000  Uiso   1.00
C326   C     0.86610   0.95125   0.29321   0.00000  Uiso   1.00
C327   C     0.84498   0.52435   0.25141   0.00000  Uiso   1.00
C328   C     0.84503   0.97572   0.25164   0.00000  Uiso   1.00
Cu329  Cu    0.83333   0.75000   0.29822   0.00000  Uiso   1.00
Cu330  Cu    0.83333   0.75001   0.20179   0.00000  Uiso   1.00
H331   H     0.99266   0.75002   0.19363   0.00000  Uiso   1.00
H332   H     0.67401   0.74996   0.30639   0.00000  Uiso   1.00
H333   H     0.80297   0.52797   0.31328   0.00000  Uiso   1.00
H334   H     0.80383   0.97186   0.17850   0.00000  Uiso   1.00
H335   H     0.79756   0.60875   0.31324   0.00000  Uiso   1.00
H336   H     0.79849   0.89106   0.17711   0.00000  Uiso   1.00
H337   H     0.87725   0.61361   0.18731   0.00000  Uiso   1.00
H338   H     0.87663   0.88665   0.32441   0.00000  Uiso   1.00
H339   H     0.87548   0.81187   0.04173   0.00000  Uiso   1.00
H340   H     0.76171   0.71330   0.45454   0.00000  Uiso   1.00
H341   H     0.87606   0.80975   0.13008   0.00000  Uiso   1.00
H342   H     0.76418   0.71278   0.36656   0.00000  Uiso   1.00
H343   H     0.79074   0.69021   0.11852   0.00000  Uiso   1.00
H344   H     0.90247   0.78719   0.38482   0.00000  Uiso   1.00
H345   H     0.79133   0.68808   0.03027   0.00000  Uiso   1.00
H346   H     0.90501   0.78670   0.47347   0.00000  Uiso   1.00
N347   N     0.83333   0.75001   0.12935   0.00000  Uiso   1.00
N348   N     0.83333   0.74999   0.37066   0.00000  Uiso   1.00
O349   O     0.83334   0.68573   0.29072   0.00000  Uiso   1.00
O350   O     0.83333   0.81428   0.20929   0.00000  Uiso   1.00
O351   O     0.83334   0.68573   0.20928   0.00000  Uiso   1.00
O352   O     0.83333   0.81427   0.29072   0.00000  Uiso   1.00
O353   O     0.75828   0.75000   0.28132   0.00000  Uiso   1.00
O354   O     0.90839   0.75001   0.21868   0.00000  Uiso   1.00
O355   O     0.75828   0.75000   0.19989   0.00000  Uiso   1.00
O356   O     0.90839   0.75000   0.30012   0.00000  Uiso   1.00
O357   O     0.89348   0.52994   0.18151   0.00000  Uiso   1.00
H358   H     0.90343   0.99939   0.19153   0.00000  Uiso   1.00
O359   O     0.89267   0.97042   0.33455   0.00000  Uiso   1.00
H360   H     0.90266   0.50102   0.32723   0.00000  Uiso   1.00
C361   C     0.16708   0.16492   0.74995   0.00000  Uiso   1.00
C362   C     0.16715   0.33509   0.75017   0.00000  Uiso   1.00
C363   C     0.19060   0.28417   0.55721   0.00000  Uiso   1.00
C364   C     0.12712   0.22917   0.94081   0.00000  Uiso   1.00
C365   C     0.19046   0.28337   0.60791   0.00000  Uiso   1.00
C366   C     0.12805   0.22927   0.89021   0.00000  Uiso   1.00
C367   C     0.14295   0.21661   0.60146   0.00000  Uiso   1.00
C368   C     0.20529   0.27072   0.90041   0.00000  Uiso   1.00
C369   C     0.14284   0.21580   0.55072   0.00000  Uiso   1.00
C370   C     0.20625   0.27082   0.95126   0.00000  Uiso   1.00
C371   C     0.16671   0.24999   0.52734   0.00000  Uiso   1.00
C372   C     0.16670   0.24999   0.97266   0.00000  Uiso   1.00
C373   C     0.06790   0.24998   0.73756   0.00000  Uiso   1.00
C374   C     0.26544   0.25001   0.76245   0.00000  Uiso   1.00
C375   C     0.01263   0.24999   0.73069   0.00000  Uiso   1.00
C376   C     0.32070   0.24999   0.76932   0.00000  Uiso   1.00
C377   C     0.15337   0.04644   0.78610   0.00000  Uiso   1.00
C378   C     0.15390   0.45349   0.71027   0.00000  Uiso   1.00
C379   C     0.14996   0.09233   0.78589   0.00000  Uiso   1.00
C380   C     0.15052   0.40758   0.70957   0.00000  Uiso   1.00
C381   C     0.16997   0.11667   0.74997   0.00000  Uiso   1.00
C382   C     0.17008   0.38335   0.75087   0.00000  Uiso   1.00
C383   C     0.19424   0.09484   0.71473   0.00000  Uiso   1.00
C384   C     0.19394   0.40533   0.79261   0.00000  Uiso   1.00
C385   C     0.19979   0.04895   0.71561   0.00000  Uiso   1.00
C386   C     0.19943   0.45125   0.79321   0.00000  Uiso   1.00
C387   C     0.17832   0.02435   0.75141   0.00000  Uiso   1.00
C388   C     0.17836   0.47572   0.75164   0.00000  Uiso   1.00
Cu389  Cu    0.16667   0.25000   0.79822   0.00000  Uiso   1.00
Cu390  Cu    0.16667   0.25001   0.70179   0.00000  Uiso   1.00
H391   H     0.32599   0.25002   0.69363   0.00000  Uiso   1.00
H392   H     0.00734   0.24996   0.80639   0.00000  Uiso   1.00
H393   H     0.13631   0.02797   0.81328   0.00000  Uiso   1.00
H394   H     0.13716   0.47186   0.67850   0.00000  Uiso   1.00
H395   H     0.13089   0.10875   0.81324   0.00000  Uiso   1.00
H396   H     0.13182   0.39106   0.67711   0.00000  Uiso   1.00
H397   H     0.21058   0.11361   0.68731   0.00000  Uiso   1.00
H398   H     0.20997   0.38665   0.82441   0.00000  Uiso   1.00
H399   H     0.20881   0.31187   0.54173   0.00000  Uiso   1.00
H400   H     0.09504   0.21330   0.95454   0.00000  Uiso   1.00
H401   H     0.20939   0.30975   0.63008   0.00000  Uiso   1.00
H402   H     0.09752   0.21278   0.86656   0.00000  Uiso   1.00
H403   H     0.12408   0.19021   0.61852   0.00000  Uiso   1.00
H404   H     0.23581   0.28719   0.88482   0.00000  Uiso   1.00
H405   H     0.12466   0.18808   0.53027   0.00000  Uiso   1.00
H406   H     0.23834   0.28670   0.97347   0.00000  Uiso   1.00
N407   N     0.16667   0.25001   0.62935   0.00000  Uiso   1.00
N408   N     0.16667   0.24999   0.87066   0.00000  Uiso   1.00
O409   O     0.16667   0.18573   0.79072   0.00000  Uiso   1.00
O410   O     0.16666   0.31428   0.70929   0.00000  Uiso   1.00
O411   O     0.16667   0.18573   0.70928   0.00000  Uiso   1.00
O412   O     0.16666   0.31427   0.79072   0.00000  Uiso   1.00
O413   O     0.09161   0.25000   0.78132   0.00000  Uiso   1.00
O414   O     0.24172   0.25001   0.71868   0.00000  Uiso   1.00
O415   O     0.09161   0.25000   0.69989   0.00000  Uiso   1.00
O416   O     0.24172   0.25000   0.80012   0.00000  Uiso   1.00
O417   O     0.22682   0.02994   0.68151   0.00000  Uiso   1.00
H418   H     0.23677   0.49939   0.69153   0.00000  Uiso   1.00
O419   O     0.22601   0.47042   0.83455   0.00000  Uiso   1.00
H420   H     0.23599   0.00102   0.82723   0.00000  Uiso   1.00
C421   C     0.50042   0.16492   0.74995   0.00000  Uiso   1.00
C422   C     0.50049   0.33509   0.75017   0.00000  Uiso   1.00
C423   C     0.52393   0.28417   0.55721   0.00000  Uiso   1.00
C424   C     0.46045   0.22917   0.94081   0.00000  Uiso   1.00
C425   C     0.52380   0.28337   0.60791   0.00000  Uiso   1.00
C426   C     0.46139   0.22927   0.89021   0.00000  Uiso   1.00
C427   C     0.47628   0.21661   0.60146   0.00000  Uiso   1.00
C428   C     0.53862   0.27072   0.90041   0.00000  Uiso   1.00
C429   C     0.47617   0.21580   0.55072   0.00000  Uiso   1.00
C430   C     0.53958   0.27082   0.95126   0.00000  Uiso   1.00
C431   C     0.50005   0.24999   0.52734   0.00000  Uiso   1.00
C432   C     0.50003   0.24999   0.97266   0.00000  Uiso   1.00
C433   C     0.40123   0.24998   0.73756   0.00000  Uiso   1.00
C434   C     0.59877   0.25001   0.76245   0.00000  Uiso   1.00
C435   C     0.34597   0.24999   0.73069   0.00000  Uiso   1.00
C436   C     0.65403   0.24999   0.76932   0.00000  Uiso   1.00
C437   C     0.48671   0.04644   0.78610   0.00000  Uiso   1.00
C438   C     0.48723   0.45349   0.71027   0.00000  Uiso   1.00
C439   C     0.48329   0.09233   0.78589   0.00000  Uiso   1.00
C440   C     0.48386   0.40758   0.70957   0.00000  Uiso   1.00
C441   C     0.50330   0.11667   0.74997   0.00000  Uiso   1.00
C442   C     0.50341   0.38335   0.75087   0.00000  Uiso   1.00
C443   C     0.52757   0.09484   0.71473   0.00000  Uiso   1.00
C444   C     0.52727   0.40533   0.79261   0.00000  Uiso   1.00
C445   C     0.53312   0.04895   0.71561   0.00000  Uiso   1.00
C446   C     0.53277   0.45125   0.79321   0.00000  Uiso   1.00
C447   C     0.51165   0.02435   0.75141   0.00000  Uiso   1.00
C448   C     0.51169   0.47572   0.75164   0.00000  Uiso   1.00
Cu449  Cu    0.50000   0.25000   0.79822   0.00000  Uiso   1.00
Cu450  Cu    0.50000   0.25001   0.70179   0.00000  Uiso   1.00
H451   H     0.65932   0.25002   0.69363   0.00000  Uiso   1.00
H452   H     0.34067   0.24996   0.80639   0.00000  Uiso   1.00
H453   H     0.46964   0.02797   0.81328   0.00000  Uiso   1.00
H454   H     0.47049   0.47186   0.67850   0.00000  Uiso   1.00
H455   H     0.46422   0.10875   0.81324   0.00000  Uiso   1.00
H456   H     0.46516   0.39106   0.67711   0.00000  Uiso   1.00
H457   H     0.54391   0.11361   0.68731   0.00000  Uiso   1.00
H458   H     0.54330   0.38665   0.82441   0.00000  Uiso   1.00
H459   H     0.54214   0.31187   0.54173   0.00000  Uiso   1.00
H460   H     0.42838   0.21330   0.95454   0.00000  Uiso   1.00
H461   H     0.54272   0.30975   0.63008   0.00000  Uiso   1.00
H462   H     0.43085   0.21278   0.86656   0.00000  Uiso   1.00
H463   H     0.45741   0.19021   0.61852   0.00000  Uiso   1.00
H464   H     0.56914   0.28719   0.88482   0.00000  Uiso   1.00
H465   H     0.45799   0.18808   0.53027   0.00000  Uiso   1.00
H466   H     0.57167   0.28670   0.97347   0.00000  Uiso   1.00
N467   N     0.50000   0.25001   0.62935   0.00000  Uiso   1.00
N468   N     0.50000   0.24999   0.87066   0.00000  Uiso   1.00
O469   O     0.50000   0.18573   0.79072   0.00000  Uiso   1.00
O470   O     0.50000   0.31428   0.70929   0.00000  Uiso   1.00
O471   O     0.50000   0.18573   0.70928   0.00000  Uiso   1.00
O472   O     0.50000   0.31427   0.79072   0.00000  Uiso   1.00
O473   O     0.42495   0.25000   0.78132   0.00000  Uiso   1.00
O474   O     0.57505   0.25001   0.71868   0.00000  Uiso   1.00
O475   O     0.42495   0.25000   0.69989   0.00000  Uiso   1.00
O476   O     0.57505   0.25000   0.80012   0.00000  Uiso   1.00
O477   O     0.56015   0.02994   0.68151   0.00000  Uiso   1.00
H478   H     0.57010   0.49939   0.69153   0.00000  Uiso   1.00
O479   O     0.55934   0.47042   0.83455   0.00000  Uiso   1.00
H480   H     0.56933   0.00102   0.82723   0.00000  Uiso   1.00
C481   C     0.83375   0.16492   0.74995   0.00000  Uiso   1.00
C482   C     0.83382   0.33509   0.75017   0.00000  Uiso   1.00
C483   C     0.85727   0.28417   0.55721   0.00000  Uiso   1.00
C484   C     0.79379   0.22917   0.94081   0.00000  Uiso   1.00
C485   C     0.85713   0.28337   0.60791   0.00000  Uiso   1.00
C486   C     0.79472   0.22927   0.89021   0.00000  Uiso   1.00
C487   C     0.80961   0.21661   0.60146   0.00000  Uiso   1.00
C488   C     0.87196   0.27072   0.90041   0.00000  Uiso   1.00
C489   C     0.80951   0.21580   0.55072   0.00000  Uiso   1.00
C490   C     0.87292   0.27082   0.95126   0.00000  Uiso   1.00
C491   C     0.83338   0.24999   0.52734   0.00000  Uiso   1.00
C492   C     0.83336   0.24999   0.97266   0.00000  Uiso   1.00
C493   C     0.73456   0.24998   0.73756   0.00000  Uiso   1.00
C494   C     0.93210   0.25001   0.76245   0.00000  Uiso   1.00
C495   C     0.67930   0.24999   0.73069   0.00000  Uiso   1.00
C496   C     0.98737   0.24999   0.76932   0.00000  Uiso   1.00
C497   C     0.82004   0.04644   0.78610   0.00000  Uiso   1.00
C498   C     0.82056   0.45349   0.71027   0.00000  Uiso   1.00
C499   C     0.81662   0.09233   0.78589   0.00000  Uiso   1.00
C500   C     0.81719   0.40758   0.70957   0.00000  Uiso   1.00
C501   C     0.83663   0.11667   0.74997   0.00000  Uiso   1.00
C502   C     0.83675   0.38335   0.75087   0.00000  Uiso   1.00
C503   C     0.86091   0.09484   0.71473   0.00000  Uiso   1.00
C504   C     0.86060   0.40533   0.79261   0.00000  Uiso   1.00
C505   C     0.86646   0.04895   0.71561   0.00000  Uiso   1.00
C506   C     0.86610   0.45125   0.79321   0.00000  Uiso   1.00
C507   C     0.84498   0.02435   0.75141   0.00000  Uiso   1.00
C508   C     0.84503   0.47572   0.75164   0.00000  Uiso   1.00
Cu509  Cu    0.83333   0.25000   0.79822   0.00000  Uiso   1.00
Cu510  Cu    0.83333   0.25001   0.70179   0.00000  Uiso   1.00
H511   H     0.99266   0.25002   0.69363   0.00000  Uiso   1.00
H512   H     0.67401   0.24996   0.80639   0.00000  Uiso   1.00
H513   H     0.80297   0.02797   0.81328   0.00000  Uiso   1.00
H514   H     0.80383   0.47186   0.67850   0.00000  Uiso   1.00
H515   H     0.79756   0.10875   0.81324   0.00000  Uiso   1.00
H516   H     0.79849   0.39106   0.67711   0.00000  Uiso   1.00
H517   H     0.87725   0.11361   0.68731   0.00000  Uiso   1.00
H518   H     0.87663   0.38665   0.82441   0.00000  Uiso   1.00
H519   H     0.87548   0.31187   0.54173   0.00000  Uiso   1.00
H520   H     0.76171   0.21330   0.95454   0.00000  Uiso   1.00
H521   H     0.87606   0.30975   0.63008   0.00000  Uiso   1.00
H522   H     0.76418   0.21278   0.86656   0.00000  Uiso   1.00
H523   H     0.79074   0.19021   0.61852   0.00000  Uiso   1.00
H524   H     0.90247   0.28719   0.88482   0.00000  Uiso   1.00
H525   H     0.79133   0.18808   0.53027   0.00000  Uiso   1.00
H526   H     0.90501   0.28670   0.97347   0.00000  Uiso   1.00
N527   N     0.83333   0.25001   0.62935   0.00000  Uiso   1.00
N528   N     0.83333   0.24999   0.87066   0.00000  Uiso   1.00
O529   O     0.83334   0.18573   0.79072   0.00000  Uiso   1.00
O530   O     0.83333   0.31428   0.70929   0.00000  Uiso   1.00
O531   O     0.83334   0.18573   0.70928   0.00000  Uiso   1.00
O532   O     0.83333   0.31427   0.79072   0.00000  Uiso   1.00
O533   O     0.75828   0.25000   0.78132   0.00000  Uiso   1.00
O534   O     0.90839   0.25001   0.71868   0.00000  Uiso   1.00
O535   O     0.75828   0.25000   0.69989   0.00000  Uiso   1.00
O536   O     0.90839   0.25000   0.80012   0.00000  Uiso   1.00
O537   O     0.89348   0.02994   0.68151   0.00000  Uiso   1.00
H538   H     0.90343   0.49939   0.69153   0.00000  Uiso   1.00
O539   O     0.89267   0.47042   0.83455   0.00000  Uiso   1.00
H540   H     0.90266   0.00102   0.82723   0.00000  Uiso   1.00
C541   C     0.16708   0.66492   0.74995   0.00000  Uiso   1.00
C542   C     0.16715   0.83509   0.75017   0.00000  Uiso   1.00
C543   C     0.19060   0.78417   0.55721   0.00000  Uiso   1.00
C544   C     0.12712   0.72917   0.94081   0.00000  Uiso   1.00
C545   C     0.19046   0.78337   0.60791   0.00000  Uiso   1.00
C546   C     0.12805   0.72927   0.89021   0.00000  Uiso   1.00
C547   C     0.14295   0.71661   0.60146   0.00000  Uiso   1.00
C548   C     0.20529   0.77072   0.90041   0.00000  Uiso   1.00
C549   C     0.14284   0.71580   0.55072   0.00000  Uiso   1.00
C550   C     0.20625   0.77082   0.95126   0.00000  Uiso   1.00
C551   C     0.16671   0.74999   0.52734   0.00000  Uiso   1.00
C552   C     0.16670   0.74999   0.97266   0.00000  Uiso   1.00
C553   C     0.06790   0.74998   0.73756   0.00000  Uiso   1.00
C554   C     0.26544   0.75001   0.76245   0.00000  Uiso   1.00
C555   C     0.01263   0.74999   0.73069   0.00000  Uiso   1.00
C556   C     0.32070   0.74999   0.76932   0.00000  Uiso   1.00
C557   C     0.15337   0.54644   0.78610   0.00000  Uiso   1.00
C558   C     0.15390   0.95349   0.71027   0.00000  Uiso   1.00
C559   C     0.14996   0.59233   0.78589   0.00000  Uiso   1.00
C560   C     0.15052   0.90758   0.70957   0.00000  Uiso   1.00
C561   C     0.16997   0.61667   0.74997   0.00000  Uiso   1.00
C562   C     0.17008   0.88335   0.75087   0.00000  Uiso   1.00
C563   C     0.19424   0.59484   0.71473   0.00000  Uiso   1.00
C564   C     0.19394   0.90533   0.79261   0.00000  Uiso   1.00
C565   C     0.19979   0.54895   0.71561   0.00000  Uiso   1.00
C566   C     0.19943   0.95125   0.79321   0.00000  Uiso   1.00
C567   C     0.17832   0.52435   0.75141   0.00000  Uiso   1.00
C568   C     0.17836   0.97572   0.75164   0.00000  Uiso   1.00
Cu569  Cu    0.16667   0.75000   0.79822   0.00000  Uiso   1.00
Cu570  Cu    0.16667   0.75001   0.70179   0.00000  Uiso   1.00
H571   H     0.32599   0.75002   0.69363   0.00000  Uiso   1.00
H572   H     0.00734   0.74996   0.80639   0.00000  Uiso   1.00
H573   H     0.13631   0.52797   0.81328   0.00000  Uiso   1.00
H574   H     0.13716   0.97186   0.67850   0.00000  Uiso   1.00
H575   H     0.13089   0.60875   0.81324   0.00000  Uiso   1.00
H576   H     0.13182   0.89106   0.67711   0.00000  Uiso   1.00
H577   H     0.21058   0.61361   0.68731   0.00000  Uiso   1.00
H578   H     0.20997   0.88665   0.82441   0.00000  Uiso   1.00
H579   H     0.20881   0.81187   0.54173   0.00000  Uiso   1.00
H580   H     0.09504   0.71330   0.95454   0.00000  Uiso   1.00
H581   H     0.20939   0.80975   0.63008   0.00000  Uiso   1.00
H582   H     0.09752   0.71278   0.86656   0.00000  Uiso   1.00
H583   H     0.12408   0.69021   0.61852   0.00000  Uiso   1.00
H584   H     0.23581   0.78719   0.88482   0.00000  Uiso   1.00
H585   H     0.12466   0.68808   0.53027   0.00000  Uiso   1.00
H586   H     0.23834   0.78670   0.97347   0.00000  Uiso   1.00
N587   N     0.16667   0.75001   0.62935   0.00000  Uiso   1.00
N588   N     0.16667   0.74999   0.87066   0.00000  Uiso   1.00
O589   O     0.16667   0.68573   0.79072   0.00000  Uiso   1.00
O590   O     0.16666   0.81428   0.70929   0.00000  Uiso   1.00
O591   O     0.16667   0.68573   0.70928   0.00000  Uiso   1.00
O592   O     0.16666   0.81427   0.79072   0.00000  Uiso   1.00
O593   O     0.09161   0.75000   0.78132   0.00000  Uiso   1.00
O594   O     0.24172   0.75001   0.71868   0.00000  Uiso   1.00
O595   O     0.09161   0.75000   0.69989   0.00000  Uiso   1.00
O596   O     0.24172   0.75000   0.80012   0.00000  Uiso   1.00
O597   O     0.22682   0.52994   0.68151   0.00000  Uiso   1.00
H598   H     0.23677   0.99939   0.69153   0.00000  Uiso   1.00
O599   O     0.22601   0.97042   0.83455   0.00000  Uiso   1.00
H600   H     0.23599   0.50102   0.82723   0.00000  Uiso   1.00
C601   C     0.50042   0.66492   0.74995   0.00000  Uiso   1.00
C602   C     0.50049   0.83509   0.75017   0.00000  Uiso   1.00
C603   C     0.52393   0.78417   0.55721   0.00000  Uiso   1.00
C604   C     0.46045   0.72917   0.94081   0.00000  Uiso   1.00
C605   C     0.52380   0.78337   0.60791   0.00000  Uiso   1.00
C606   C     0.46139   0.72927   0.89021   0.00000  Uiso   1.00
C607   C     0.47628   0.71661   0.60146   0.00000  Uiso   1.00
C608   C     0.53862   0.77072   0.90041   0.00000  Uiso   1.00
C609   C     0.47617   0.71580   0.55072   0.00000  Uiso   1.00
C610   C     0.53958   0.77082   0.95126   0.00000  Uiso   1.00
C611   C     0.50005   0.74999   0.52734   0.00000  Uiso   1.00
C612   C     0.50003   0.74999   0.97266   0.00000  Uiso   1.00
C613   C     0.40123   0.74998   0.73756   0.00000  Uiso   1.00
C614   C     0.59877   0.75001   0.76245   0.00000  Uiso   1.00
C615   C     0.34597   0.74999   0.73069   0.00000  Uiso   1.00
C616   C     0.65403   0.74999   0.76932   0.00000  Uiso   1.00
C617   C     0.48671   0.54644   0.78610   0.00000  Uiso   1.00
C618   C     0.48723   0.95349   0.71027   0.00000  Uiso   1.00
C619   C     0.48329   0.59233   0.78589   0.00000  Uiso   1.00
C620   C     0.48386   0.90758   0.70957   0.00000  Uiso   1.00
C621   C     0.50330   0.61667   0.74997   0.00000  Uiso   1.00
C622   C     0.50341   0.88335   0.75087   0.00000  Uiso   1.00
C623   C     0.52757   0.59484   0.71473   0.00000  Uiso   1.00
C624   C     0.52727   0.90533   0.79261   0.00000  Uiso   1.00
C625   C     0.53312   0.54895   0.71561   0.00000  Uiso   1.00
C626   C     0.53277   0.95125   0.79321   0.00000  Uiso   1.00
C627   C     0.51165   0.52435   0.75141   0.00000  Uiso   1.00
C628   C     0.51169   0.97572   0.75164   0.00000  Uiso   1.00
Cu629  Cu    0.50000   0.75000   0.79822   0.00000  Uiso   1.00
Cu630  Cu    0.50000   0.75001   0.70179   0.00000  Uiso   1.00
H631   H     0.65932   0.75002   0.69363   0.00000  Uiso   1.00
H632   H     0.34067   0.74996   0.80639   0.00000  Uiso   1.00
H633   H     0.46964   0.52797   0.81328   0.00000  Uiso   1.00
H634   H     0.47049   0.97186   0.67850   0.00000  Uiso   1.00
H635   H     0.46422   0.60875   0.81324   0.00000  Uiso   1.00
H636   H     0.46516   0.89106   0.67711   0.00000  Uiso   1.00
H637   H     0.54391   0.61361   0.68731   0.00000  Uiso   1.00
H638   H     0.54330   0.88665   0.82441   0.00000  Uiso   1.00
H639   H     0.54214   0.81187   0.54173   0.00000  Uiso   1.00
H640   H     0.42838   0.71330   0.95454   0.00000  Uiso   1.00
H641   H     0.54272   0.80975   0.63008   0.00000  Uiso   1.00
H642   H     0.43085   0.71278   0.86656   0.00000  Uiso   1.00
H643   H     0.45741   0.69021   0.61852   0.00000  Uiso   1.00
H644   H     0.56914   0.78719   0.88482   0.00000  Uiso   1.00
H645   H     0.45799   0.68808   0.53027   0.00000  Uiso   1.00
H646   H     0.57167   0.78670   0.97347   0.00000  Uiso   1.00
N647   N     0.50000   0.75001   0.62935   0.00000  Uiso   1.00
N648   N     0.50000   0.74999   0.87066   0.00000  Uiso   1.00
O649   O     0.50000   0.68573   0.79072   0.00000  Uiso   1.00
O650   O     0.50000   0.81428   0.70929   0.00000  Uiso   1.00
O651   O     0.50000   0.68573   0.70928   0.00000  Uiso   1.00
O652   O     0.50000   0.81427   0.79072   0.00000  Uiso   1.00
O653   O     0.42495   0.75000   0.78132   0.00000  Uiso   1.00
O654   O     0.57505   0.75001   0.71868   0.00000  Uiso   1.00
O655   O     0.42495   0.75000   0.69989   0.00000  Uiso   1.00
O656   O     0.57505   0.75000   0.80012   0.00000  Uiso   1.00
O657   O     0.56015   0.52994   0.68151   0.00000  Uiso   1.00
H658   H     0.57010   0.99939   0.69153   0.00000  Uiso   1.00
O659   O     0.55934   0.97042   0.83455   0.00000  Uiso   1.00
H660   H     0.56933   0.50102   0.82723   0.00000  Uiso   1.00
C661   C     0.83375   0.66492   0.74995   0.00000  Uiso   1.00
C662   C     0.83382   0.83509   0.75017   0.00000  Uiso   1.00
C663   C     0.85727   0.78417   0.55721   0.00000  Uiso   1.00
C664   C     0.79379   0.72917   0.94081   0.00000  Uiso   1.00
C665   C     0.85713   0.78337   0.60791   0.00000  Uiso   1.00
C666   C     0.79472   0.72927   0.89021   0.00000  Uiso   1.00
C667   C     0.80961   0.71661   0.60146   0.00000  Uiso   1.00
C668   C     0.87196   0.77072   0.90041   0.00000  Uiso   1.00
C669   C     0.80951   0.71580   0.55072   0.00000  Uiso   1.00
C670   C     0.87292   0.77082   0.95126   0.00000  Uiso   1.00
C671   C     0.83338   0.74999   0.52734   0.00000  Uiso   1.00
C672   C     0.83336   0.74999   0.97266   0.00000  Uiso   1.00
C673   C     0.73456   0.74998   0.73756   0.00000  Uiso   1.00
C674   C     0.93210   0.75001   0.76245   0.00000  Uiso   1.00
C675   C     0.67930   0.74999   0.73069   0.00000  Uiso   1.00
C676   C     0.98737   0.74999   0.76932   0.00000  Uiso   1.00
C677   C     0.82004   0.54644   0.78610   0.00000  Uiso   1.00
C678   C     0.82056   0.95349   0.71027   0.00000  Uiso   1.00
C679   C     0.81662   0.59233   0.78589   0.00000  Uiso   1.00
C680   C     0.81719   0.90758   0.70957   0.00000  Uiso   1.00
C681   C     0.83663   0.61667   0.74997   0.00000  Uiso   1.00
C682   C     0.83675   0.88335   0.75087   0.00000  Uiso   1.00
C683   C     0.86091   0.59484   0.71473   0.00000  Uiso   1.00
C684   C     0.86060   0.90533   0.79261   0.00000  Uiso   1.00
C685   C     0.86646   0.54895   0.71561   0.00000  Uiso   1.00
C686   C     0.86610   0.95125   0.79321   0.00000  Uiso   1.00
C687   C     0.84498   0.52435   0.75141   0.00000  Uiso   1.00
C688   C     0.84503   0.97572   0.75164   0.00000  Uiso   1.00
Cu689  Cu    0.83333   0.75000   0.79822   0.00000  Uiso   1.00
Cu690  Cu    0.83333   0.75001   0.70179   0.00000  Uiso   1.00
H691   H     0.99266   0.75002   0.69363   0.00000  Uiso   1.00
H692   H     0.67401   0.74996   0.80639   0.00000  Uiso   1.00
H693   H     0.80297   0.52797   0.81328   0.00000  Uiso   1.00
H694   H     0.80383   0.97186   0.67850   0.00000  Uiso   1.00
H695   H     0.79756   0.60875   0.81324   0.00000  Uiso   1.00
H696   H     0.79849   0.89106   0.67711   0.00000  Uiso   1.00
H697   H     0.87725   0.61361   0.68731   0.00000  Uiso   1.00
H698   H     0.87663   0.88665   0.82441   0.00000  Uiso   1.00
H699   H     0.87548   0.81187   0.54173   0.00000  Uiso   1.00
H700   H     0.76171   0.71330   0.95454   0.00000  Uiso   1.00
H701   H     0.87606   0.80975   0.63008   0.00000  Uiso   1.00
H702   H     0.76418   0.71278   0.86656   0.00000  Uiso   1.00
H703   H     0.79074   0.69021   0.61852   0.00000  Uiso   1.00
H704   H     0.90247   0.78719   0.88482   0.00000  Uiso   1.00
H705   H     0.79133   0.68808   0.53027   0.00000  Uiso   1.00
H706   H     0.90501   0.78670   0.97347   0.00000  Uiso   1.00
N707   N     0.83333   0.75001   0.62935   0.00000  Uiso   1.00
N708   N     0.83333   0.74999   0.87066   0.00000  Uiso   1.00
O709   O     0.83334   0.68573   0.79072   0.00000  Uiso   1.00
O710   O     0.83333   0.81428   0.70929   0.00000  Uiso   1.00
O711   O     0.83334   0.68573   0.70928   0.00000  Uiso   1.00
O712   O     0.83333   0.81427   0.79072   0.00000  Uiso   1.00
O713   O     0.75828   0.75000   0.78132   0.00000  Uiso   1.00
O714   O     0.90839   0.75001   0.71868   0.00000  Uiso   1.00
O715   O     0.75828   0.75000   0.69989   0.00000  Uiso   1.00
O716   O     0.90839   0.75000   0.80012   0.00000  Uiso   1.00
O717   O     0.89348   0.52994   0.68151   0.00000  Uiso   1.00
H718   H     0.90343   0.99939   0.69153   0.00000  Uiso   1.00
O719   O     0.89267   0.97042   0.83455   0.00000  Uiso   1.00
H720   H     0.90266   0.50102   0.82723   0.00000  Uiso   1.00
loop_
_geom_bond_atom_site_label_1
_geom_bond_atom_site_label_2
_geom_bond_distance
_geom_bond_site_symmetry_2
_ccdc_geom_bond_type
C1     C21     1.459   .     S
C1     O51     1.292   .     A
C1     O49     1.293   .     A
C2     C22     1.459   .     S
C2     O52     1.292   .     A
C2     O50     1.293   .     A
C3     C5      1.407   .     A
C3     H39     1.081   .     S
C3     C11     1.411   .     A
C4     C12     1.411   .     A
C4     C6      1.407   .     A
C4     H40     1.081   .     S
C5     H41     1.081   .     S
C5     N47     1.364   .     A
C6     N48     1.364   .     A
C6     H42     1.081   .     S
C7     H43     1.081   .     S
C7     N47     1.364   .     A
C7     C9      1.407   .     A
C8     N48     1.364   .     A
C8     C10     1.407   .     A
C8     H44     1.081   .     S
C9     H45     1.081   .     S
C9     C11     1.411   .     A
C10    C12     1.411   .     A
C10    H46     1.081   .     S
C11    C372    1.517   1_554 S
C12    C371    1.517   .     S
C13    O53     1.285   .     A
C13    C15     1.434   .     S
C13    O55     1.287   .     A
C14    O56     1.287   .     A
C14    O54     1.285   .     A
C14    C16     1.434   .     S
C15    C136    1.335   1_455 S
C15    H151    1.087   1_455 S
C16    C75     1.335   .     S
C16    H92     1.087   .     S
C17    H33     1.084   .     S
C17    C27     1.403   .     A
C17    C19     1.389   .     A
C18    C28     1.403   .     A
C18    H34     1.084   .     S
C18    C20     1.389   .     A
C19    H35     1.083   .     S
C19    C21     1.398   .     A
C20    C22     1.398   .     A
C20    H36     1.083   .     S
C21    C23     1.401   .     A
C22    C24     1.401   .     A
C23    H37     1.084   .     S
C23    C25     1.393   .     A
C24    H38     1.084   .     S
C24    C26     1.393   .     A
C25    C27     1.418   .     A
C25    O57     1.381   .     S
C26    C28     1.418   .     A
C26    O59     1.381   .     S
C27    C208    1.468   1_545 S
C28    C207    1.468   .     S
Cu29   Cu30    2.675   .     S
Cu29   O56     1.960   .     S
Cu29   O49     1.951   .     S
Cu29   O53     1.958   .     S
Cu29   N48     2.009   .     S
Cu29   O52     1.953   .     S
Cu30   O55     1.960   .     S
Cu30   N47     2.009   .     S
Cu30   O51     1.953   .     S
Cu30   O54     1.958   .     S
Cu30   O50     1.951   .     S
H31    C75     1.087   .     S
H32    C136    1.087   1_455 S
O57    H238    0.989   1_545 S
H58    O237    0.989   .     S
O59    H240    0.989   .     S
H60    O239    0.989   1_545 S
C61    C81     1.459   .     S
C61    O111    1.292   .     A
C61    O109    1.293   .     A
C62    C82     1.459   .     S
C62    O112    1.292   .     A
C62    O110    1.293   .     A
C63    C65     1.407   .     A
C63    H99     1.081   .     S
C63    C71     1.411   .     A
C64    C72     1.411   .     A
C64    C66     1.407   .     A
C64    H100    1.081   .     S
C65    H101    1.081   .     S
C65    N107    1.364   .     A
C66    N108    1.364   .     A
C66    H102    1.081   .     S
C67    H103    1.081   .     S
C67    N107    1.364   .     A
C67    C69     1.407   .     A
C68    N108    1.364   .     A
C68    C70     1.407   .     A
C68    H104    1.081   .     S
C69    H105    1.081   .     S
C69    C71     1.411   .     A
C70    C72     1.411   .     A
C70    H106    1.081   .     S
C71    C432    1.517   1_554 S
C72    C431    1.517   .     S
C73    O113    1.285   .     A
C73    C75     1.434   .     S
C73    O115    1.287   .     A
C74    O116    1.287   .     A
C74    O114    1.285   .     A
C74    C76     1.434   .     S
C76    C135    1.335   .     S
C76    H152    1.087   .     S
C77    H93     1.084   .     S
C77    C87     1.403   .     A
C77    C79     1.389   .     A
C78    C88     1.403   .     A
C78    H94     1.084   .     S
C78    C80     1.389   .     A
C79    H95     1.083   .     S
C79    C81     1.398   .     A
C80    C82     1.398   .     A
C80    H96     1.083   .     S
C81    C83     1.401   .     A
C82    C84     1.401   .     A
C83    H97     1.084   .     S
C83    C85     1.393   .     A
C84    H98     1.084   .     S
C84    C86     1.393   .     A
C85    C87     1.418   .     A
C85    O117    1.381   .     S
C86    C88     1.418   .     A
C86    O119    1.381   .     S
C87    C268    1.468   1_545 S
C88    C267    1.468   .     S
Cu89   Cu90    2.675   .     S
Cu89   O116    1.960   .     S
Cu89   O109    1.951   .     S
Cu89   O113    1.958   .     S
Cu89   N108    2.009   .     S
Cu89   O112    1.953   .     S
Cu90   O115    1.960   .     S
Cu90   N107    2.009   .     S
Cu90   O111    1.953   .     S
Cu90   O114    1.958   .     S
Cu90   O110    1.951   .     S
H91    C135    1.087   .     S
O117   H298    0.989   1_545 S
H118   O297    0.989   .     S
O119   H300    0.989   .     S
H120   O299    0.989   1_545 S
C121   C141    1.459   .     S
C121   O171    1.292   .     A
C121   O169    1.293   .     A
C122   C142    1.459   .     S
C122   O172    1.292   .     A
C122   O170    1.293   .     A
C123   C125    1.407   .     A
C123   H159    1.081   .     S
C123   C131    1.411   .     A
C124   C132    1.411   .     A
C124   C126    1.407   .     A
C124   H160    1.081   .     S
C125   H161    1.081   .     S
C125   N167    1.364   .     A
C126   N168    1.364   .     A
C126   H162    1.081   .     S
C127   H163    1.081   .     S
C127   N167    1.364   .     A
C127   C129    1.407   .     A
C128   N168    1.364   .     A
C128   C130    1.407   .     A
C128   H164    1.081   .     S
C129   H165    1.081   .     S
C129   C131    1.411   .     A
C130   C132    1.411   .     A
C130   H166    1.081   .     S
C131   C492    1.517   1_554 S
C132   C491    1.517   .     S
C133   O173    1.285   .     A
C133   C135    1.434   .     S
C133   O175    1.287   .     A
C134   O176    1.287   .     A
C134   O174    1.285   .     A
C134   C136    1.434   .     S
C136   C15     1.335   1_655 S
C136   H32     1.087   1_655 S
C137   H153    1.084   .     S
C137   C147    1.403   .     A
C137   C139    1.389   .     A
C138   C148    1.403   .     A
C138   H154    1.084   .     S
C138   C140    1.389   .     A
C139   H155    1.083   .     S
C139   C141    1.398   .     A
C140   C142    1.398   .     A
C140   H156    1.083   .     S
C141   C143    1.401   .     A
C142   C144    1.401   .     A
C143   H157    1.084   .     S
C143   C145    1.393   .     A
C144   H158    1.084   .     S
C144   C146    1.393   .     A
C145   C147    1.418   .     A
C145   O177    1.381   .     S
C146   C148    1.418   .     A
C146   O179    1.381   .     S
C147   C328    1.468   1_545 S
C148   C327    1.468   .     S
Cu149  Cu150   2.675   .     S
Cu149  O176    1.960   .     S
Cu149  O169    1.951   .     S
Cu149  O173    1.958   .     S
Cu149  N168    2.009   .     S
Cu149  O172    1.953   .     S
Cu150  O175    1.960   .     S
Cu150  N167    2.009   .     S
Cu150  O171    1.953   .     S
Cu150  O174    1.958   .     S
Cu150  O170    1.951   .     S
H151   C15     1.087   1_655 S
O177   H358    0.989   1_545 S
H178   O357    0.989   .     S
O179   H360    0.989   .     S
H180   O359    0.989   1_545 S
C181   C201    1.459   .     S
C181   O231    1.292   .     A
C181   O229    1.293   .     A
C182   C202    1.459   .     S
C182   O232    1.292   .     A
C182   O230    1.293   .     A
C183   C185    1.407   .     A
C183   H219    1.081   .     S
C183   C191    1.411   .     A
C184   C192    1.411   .     A
C184   C186    1.407   .     A
C184   H220    1.081   .     S
C185   H221    1.081   .     S
C185   N227    1.364   .     A
C186   N228    1.364   .     A
C186   H222    1.081   .     S
C187   H223    1.081   .     S
C187   N227    1.364   .     A
C187   C189    1.407   .     A
C188   N228    1.364   .     A
C188   C190    1.407   .     A
C188   H224    1.081   .     S
C189   H225    1.081   .     S
C189   C191    1.411   .     A
C190   C192    1.411   .     A
C190   H226    1.081   .     S
C191   C552    1.517   1_554 S
C192   C551    1.517   .     S
C193   O233    1.285   .     A
C193   C195    1.434   .     S
C193   O235    1.287   .     A
C194   O236    1.287   .     A
C194   O234    1.285   .     A
C194   C196    1.434   .     S
C195   C316    1.335   1_455 S
C195   H331    1.087   1_455 S
C196   C255    1.335   .     S
C196   H272    1.087   .     S
C197   H213    1.084   .     S
C197   C207    1.403   .     A
C197   C199    1.389   .     A
C198   C208    1.403   .     A
C198   H214    1.084   .     S
C198   C200    1.389   .     A
C199   H215    1.083   .     S
C199   C201    1.398   .     A
C200   C202    1.398   .     A
C200   H216    1.083   .     S
C201   C203    1.401   .     A
C202   C204    1.401   .     A
C203   H217    1.084   .     S
C203   C205    1.393   .     A
C204   H218    1.084   .     S
C204   C206    1.393   .     A
C205   C207    1.418   .     A
C205   O237    1.381   .     S
C206   C208    1.418   .     A
C206   O239    1.381   .     S
C208   C27     1.468   1_565 S
Cu209  Cu210   2.675   .     S
Cu209  O236    1.960   .     S
Cu209  O229    1.951   .     S
Cu209  O233    1.958   .     S
Cu209  N228    2.009   .     S
Cu209  O232    1.953   .     S
Cu210  O235    1.960   .     S
Cu210  N227    2.009   .     S
Cu210  O231    1.953   .     S
Cu210  O234    1.958   .     S
Cu210  O230    1.951   .     S
H211   C255    1.087   .     S
H212   C316    1.087   1_455 S
H238   O57     0.989   1_565 S
O239   H60     0.989   1_565 S
C241   C261    1.459   .     S
C241   O291    1.292   .     A
C241   O289    1.293   .     A
C242   C262    1.459   .     S
C242   O292    1.292   .     A
C242   O290    1.293   .     A
C243   C245    1.407   .     A
C243   H279    1.081   .     S
C243   C251    1.411   .     A
C244   C252    1.411   .     A
C244   C246    1.407   .     A
C244   H280    1.081   .     S
C245   H281    1.081   .     S
C245   N287    1.364   .     A
C246   N288    1.364   .     A
C246   H282    1.081   .     S
C247   H283    1.081   .     S
C247   N287    1.364   .     A
C247   C249    1.407   .     A
C248   N288    1.364   .     A
C248   C250    1.407   .     A
C248   H284    1.081   .     S
C249   H285    1.081   .     S
C249   C251    1.411   .     A
C250   C252    1.411   .     A
C250   H286    1.081   .     S
C251   C612    1.517   1_554 S
C252   C611    1.517   .     S
C253   O293    1.285   .     A
C253   C255    1.434   .     S
C253   O295    1.287   .     A
C254   O296    1.287   .     A
C254   O294    1.285   .     A
C254   C256    1.434   .     S
C256   C315    1.335   .     S
C256   H332    1.087   .     S
C257   H273    1.084   .     S
C257   C267    1.403   .     A
C257   C259    1.389   .     A
C258   C268    1.403   .     A
C258   H274    1.084   .     S
C258   C260    1.389   .     A
C259   H275    1.083   .     S
C259   C261    1.398   .     A
C260   C262    1.398   .     A
C260   H276    1.083   .     S
C261   C263    1.401   .     A
C262   C264    1.401   .     A
C263   H277    1.084   .     S
C263   C265    1.393   .     A
C264   H278    1.084   .     S
C264   C266    1.393   .     A
C265   C267    1.418   .     A
C265   O297    1.381   .     S
C266   C268    1.418   .     A
C266   O299    1.381   .     S
C268   C87     1.468   1_565 S
Cu269  Cu270   2.675   .     S
Cu269  O296    1.960   .     S
Cu269  O289    1.951   .     S
Cu269  O293    1.958   .     S
Cu269  N288    2.009   .     S
Cu269  O292    1.953   .     S
Cu270  O295    1.960   .     S
Cu270  N287    2.009   .     S
Cu270  O291    1.953   .     S
Cu270  O294    1.958   .     S
Cu270  O290    1.951   .     S
H271   C315    1.087   .     S
H298   O117    0.989   1_565 S
O299   H120    0.989   1_565 S
C301   C321    1.459   .     S
C301   O351    1.292   .     A
C301   O349    1.293   .     A
C302   C322    1.459   .     S
C302   O352    1.292   .     A
C302   O350    1.293   .     A
C303   C305    1.407   .     A
C303   H339    1.081   .     S
C303   C311    1.411   .     A
C304   C312    1.411   .     A
C304   C306    1.407   .     A
C304   H340    1.081   .     S
C305   H341    1.081   .     S
C305   N347    1.364   .     A
C306   N348    1.364   .     A
C306   H342    1.081   .     S
C307   H343    1.081   .     S
C307   N347    1.364   .     A
C307   C309    1.407   .     A
C308   N348    1.364   .     A
C308   C310    1.407   .     A
C308   H344    1.081   .     S
C309   H345    1.081   .     S
C309   C311    1.411   .     A
C310   C312    1.411   .     A
C310   H346    1.081   .     S
C311   C672    1.517   1_554 S
C312   C671    1.517   .     S
C313   O353    1.285   .     A
C313   C315    1.434   .     S
C313   O355    1.287   .     A
C314   O356    1.287   .     A
C314   O354    1.285   .     A
C314   C316    1.434   .     S
C316   C195    1.335   1_655 S
C316   H212    1.087   1_655 S
C317   H333    1.084   .     S
C317   C327    1.403   .     A
C317   C319    1.389   .     A
C318   C328    1.403   .     A
C318   H334    1.084   .     S
C318   C320    1.389   .     A
C319   H335    1.083   .     S
C319   C321    1.398   .     A
C320   C322    1.398   .     A
C320   H336    1.083   .     S
C321   C323    1.401   .     A
C322   C324    1.401   .     A
C323   H337    1.084   .     S
C323   C325    1.393   .     A
C324   H338    1.084   .     S
C324   C326    1.393   .     A
C325   C327    1.418   .     A
C325   O357    1.381   .     S
C326   C328    1.418   .     A
C326   O359    1.381   .     S
C328   C147    1.468   1_565 S
Cu329  Cu330   2.675   .     S
Cu329  O356    1.960   .     S
Cu329  O349    1.951   .     S
Cu329  O353    1.958   .     S
Cu329  N348    2.009   .     S
Cu329  O352    1.953   .     S
Cu330  O355    1.960   .     S
Cu330  N347    2.009   .     S
Cu330  O351    1.953   .     S
Cu330  O354    1.958   .     S
Cu330  O350    1.951   .     S
H331   C195    1.087   1_655 S
H358   O177    0.989   1_565 S
O359   H180    0.989   1_565 S
C361   C381    1.459   .     S
C361   O411    1.292   .     A
C361   O409    1.293   .     A
C362   C382    1.459   .     S
C362   O412    1.292   .     A
C362   O410    1.293   .     A
C363   C365    1.407   .     A
C363   H399    1.081   .     S
C363   C371    1.411   .     A
C364   C372    1.411   .     A
C364   C366    1.407   .     A
C364   H400    1.081   .     S
C365   H401    1.081   .     S
C365   N407    1.364   .     A
C366   N408    1.364   .     A
C366   H402    1.081   .     S
C367   H403    1.081   .     S
C367   N407    1.364   .     A
C367   C369    1.407   .     A
C368   N408    1.364   .     A
C368   C370    1.407   .     A
C368   H404    1.081   .     S
C369   H405    1.081   .     S
C369   C371    1.411   .     A
C370   C372    1.411   .     A
C370   H406    1.081   .     S
C372   C11     1.517   1_556 S
C373   O413    1.285   .     A
C373   C375    1.434   .     S
C373   O415    1.287   .     A
C374   O416    1.287   .     A
C374   O414    1.285   .     A
C374   C376    1.434   .     S
C375   C496    1.335   1_455 S
C375   H511    1.087   1_455 S
C376   C435    1.335   .     S
C376   H452    1.087   .     S
C377   H393    1.084   .     S
C377   C387    1.403   .     A
C377   C379    1.389   .     A
C378   C388    1.403   .     A
C378   H394    1.084   .     S
C378   C380    1.389   .     A
C379   H395    1.083   .     S
C379   C381    1.398   .     A
C380   C382    1.398   .     A
C380   H396    1.083   .     S
C381   C383    1.401   .     A
C382   C384    1.401   .     A
C383   H397    1.084   .     S
C383   C385    1.393   .     A
C384   H398    1.084   .     S
C384   C386    1.393   .     A
C385   C387    1.418   .     A
C385   O417    1.381   .     S
C386   C388    1.418   .     A
C386   O419    1.381   .     S
C387   C568    1.468   1_545 S
C388   C567    1.468   .     S
Cu389  Cu390   2.675   .     S
Cu389  O416    1.960   .     S
Cu389  O409    1.951   .     S
Cu389  O413    1.958   .     S
Cu389  N408    2.009   .     S
Cu389  O412    1.953   .     S
Cu390  O415    1.960   .     S
Cu390  N407    2.009   .     S
Cu390  O411    1.953   .     S
Cu390  O414    1.958   .     S
Cu390  O410    1.951   .     S
H391   C435    1.087   .     S
H392   C496    1.087   1_455 S
O417   H598    0.989   1_545 S
H418   O597    0.989   .     S
O419   H600    0.989   .     S
H420   O599    0.989   1_545 S
C421   C441    1.459   .     S
C421   O471    1.292   .     A
C421   O469    1.293   .     A
C422   C442    1.459   .     S
C422   O472    1.292   .     A
C422   O470    1.293   .     A
C423   C425    1.407   .     A
C423   H459    1.081   .     S
C423   C431    1.411   .     A
C424   C432    1.411   .     A
C424   C426    1.407   .     A
C424   H460    1.081   .     S
C425   H461    1.081   .     S
C425   N467    1.364   .     A
C426   N468    1.364   .     A
C426   H462    1.081   .     S
C427   H463    1.081   .     S
C427   N467    1.364   .     A
C427   C429    1.407   .     A
C428   N468    1.364   .     A
C428   C430    1.407   .     A
C428   H464    1.081   .     S
C429   H465    1.081   .     S
C429   C431    1.411   .     A
C430   C432    1.411   .     A
C430   H466    1.081   .     S
C432   C71     1.517   1_556 S
C433   O473    1.285   .     A
C433   C435    1.434   .     S
C433   O475    1.287   .     A
C434   O476    1.287   .     A
C434   O474    1.285   .     A
C434   C436    1.434   .     S
C436   C495    1.335   .     S
C436   H512    1.087   .     S
C437   H453    1.084   .     S
C437   C447    1.403   .     A
C437   C439    1.389   .     A
C438   C448    1.403   .     A
C438   H454    1.084   .     S
C438   C440    1.389   .     A
C439   H455    1.083   .     S
C439   C441    1.398   .     A
C440   C442    1.398   .     A
C440   H456    1.083   .     S
C441   C443    1.401   .     A
C442   C444    1.401   .     A
C443   H457    1.084   .     S
C443   C445    1.393   .     A
C444   H458    1.084   .     S
C444   C446    1.393   .     A
C445   C447    1.418   .     A
C445   O477    1.381   .     S
C446   C448    1.418   .     A
C446   O479    1.381   .     S
C447   C628    1.468   1_545 S
C448   C627    1.468   .     S
Cu449  Cu450   2.675   .     S
Cu449  O476    1.960   .     S
Cu449  O469    1.951   .     S
Cu449  O473    1.958   .     S
Cu449  N468    2.009   .     S
Cu449  O472    1.953   .     S
Cu450  O475    1.960   .     S
Cu450  N467    2.009   .     S
Cu450  O471    1.953   .     S
Cu450  O474    1.958   .     S
Cu450  O470    1.951   .     S
H451   C495    1.087   .     S
O477   H658    0.989   1_545 S
H478   O657    0.989   .     S
O479   H660    0.989   .     S
H480   O659    0.989   1_545 S
C481   C501    1.459   .     S
C481   O531    1.292   .     A
C481   O529    1.293   .     A
C482   C502    1.459   .     S
C482   O532    1.292   .     A
C482   O530    1.293   .     A
C483   C485    1.407   .     A
C483   H519    1.081   .     S
C483   C491    1.411   .     A
C484   C492    1.411   .     A
C484   C486    1.407   .     A
C484   H520    1.081   .     S
C485   H521    1.081   .     S
C485   N527    1.364   .     A
C486   N528    1.364   .     A
C486   H522    1.081   .     S
C487   H523    1.081   .     S
C487   N527    1.364   .     A
C487   C489    1.407   .     A
C488   N528    1.364   .     A
C488   C490    1.407   .     A
C488   H524    1.081   .     S
C489   H525    1.081   .     S
C489   C491    1.411   .     A
C490   C492    1.411   .     A
C490   H526    1.081   .     S
C492   C131    1.517   1_556 S
C493   O533    1.285   .     A
C493   C495    1.434   .     S
C493   O535    1.287   .     A
C494   O536    1.287   .     A
C494   O534    1.285   .     A
C494   C496    1.434   .     S
C496   C375    1.335   1_655 S
C496   H392    1.087   1_655 S
C497   H513    1.084   .     S
C497   C507    1.403   .     A
C497   C499    1.389   .     A
C498   C508    1.403   .     A
C498   H514    1.084   .     S
C498   C500    1.389   .     A
C499   H515    1.083   .     S
C499   C501    1.398   .     A
C500   C502    1.398   .     A
C500   H516    1.083   .     S
C501   C503    1.401   .     A
C502   C504    1.401   .     A
C503   H517    1.084   .     S
C503   C505    1.393   .     A
C504   H518    1.084   .     S
C504   C506    1.393   .     A
C505   C507    1.418   .     A
C505   O537    1.381   .     S
C506   C508    1.418   .     A
C506   O539    1.381   .     S
C507   C688    1.468   1_545 S
C508   C687    1.468   .     S
Cu509  Cu510   2.675   .     S
Cu509  O536    1.960   .     S
Cu509  O529    1.951   .     S
Cu509  O533    1.958   .     S
Cu509  N528    2.009   .     S
Cu509  O532    1.953   .     S
Cu510  O535    1.960   .     S
Cu510  N527    2.009   .     S
Cu510  O531    1.953   .     S
Cu510  O534    1.958   .     S
Cu510  O530    1.951   .     S
H511   C375    1.087   1_655 S
O537   H718    0.989   1_545 S
H538   O717    0.989   .     S
O539   H720    0.989   .     S
H540   O719    0.989   1_545 S
C541   C561    1.459   .     S
C541   O591    1.292   .     A
C541   O589    1.293   .     A
C542   C562    1.459   .     S
C542   O592    1.292   .     A
C542   O590    1.293   .     A
C543   C545    1.407   .     A
C543   H579    1.081   .     S
C543   C551    1.411   .     A
C544   C552    1.411   .     A
C544   C546    1.407   .     A
C544   H580    1.081   .     S
C545   H581    1.081   .     S
C545   N587    1.364   .     A
C546   N588    1.364   .     A
C546   H582    1.081   .     S
C547   H583    1.081   .     S
C547   N587    1.364   .     A
C547   C549    1.407   .     A
C548   N588    1.364   .     A
C548   C550    1.407   .     A
C548   H584    1.081   .     S
C549   H585    1.081   .     S
C549   C551    1.411   .     A
C550   C552    1.411   .     A
C550   H586    1.081   .     S
C552   C191    1.517   1_556 S
C553   O593    1.285   .     A
C553   C555    1.434   .     S
C553   O595    1.287   .     A
C554   O596    1.287   .     A
C554   O594    1.285   .     A
C554   C556    1.434   .     S
C555   C676    1.335   1_455 S
C555   H691    1.087   1_455 S
C556   C615    1.335   .     S
C556   H632    1.087   .     S
C557   H573    1.084   .     S
C557   C567    1.403   .     A
C557   C559    1.389   .     A
C558   C568    1.403   .     A
C558   H574    1.084   .     S
C558   C560    1.389   .     A
C559   H575    1.083   .     S
C559   C561    1.398   .     A
C560   C562    1.398   .     A
C560   H576    1.083   .     S
C561   C563    1.401   .     A
C562   C564    1.401   .     A
C563   H577    1.084   .     S
C563   C565    1.393   .     A
C564   H578    1.084   .     S
C564   C566    1.393   .     A
C565   C567    1.418   .     A
C565   O597    1.381   .     S
C566   C568    1.418   .     A
C566   O599    1.381   .     S
C568   C387    1.468   1_565 S
Cu569  Cu570   2.675   .     S
Cu569  O596    1.960   .     S
Cu569  O589    1.951   .     S
Cu569  O593    1.958   .     S
Cu569  N588    2.009   .     S
Cu569  O592    1.953   .     S
Cu570  O595    1.960   .     S
Cu570  N587    2.009   .     S
Cu570  O591    1.953   .     S
Cu570  O594    1.958   .     S
Cu570  O590    1.951   .     S
H571   C615    1.087   .     S
H572   C676    1.087   1_455 S
H598   O417    0.989   1_565 S
O599   H420    0.989   1_565 S
C601   C621    1.459   .     S
C601   O651    1.292   .     A
C601   O649    1.293   .     A
C602   C622    1.459   .     S
C602   O652    1.292   .     A
C602   O650    1.293   .     A
C603   C605    1.407   .     A
C603   H639    1.081   .     S
C603   C611    1.411   .     A
C604   C612    1.411   .     A
C604   C606    1.407   .     A
C604   H640    1.081   .     S
C605   H641    1.081   .     S
C605   N647    1.364   .     A
C606   N648    1.364   .     A
C606   H642    1.081   .     S
C607   H643    1.081   .     S
C607   N647    1.364   .     A
C607   C609    1.407   .     A
C608   N648    1.364   .     A
C608   C610    1.407   .     A
C608   H644    1.081   .     S
C609   H645    1.081   .     S
C609   C611    1.411   .     A
C610   C612    1.411   .     A
C610   H646    1.081   .     S
C612   C251    1.517   1_556 S
C613   O653    1.285   .     A
C613   C615    1.434   .     S
C613   O655    1.287   .     A
C614   O656    1.287   .     A
C614   O654    1.285   .     A
C614   C616    1.434   .     S
C616   C675    1.335   .     S
C616   H692    1.087   .     S
C617   H633    1.084   .     S
C617   C627    1.403   .     A
C617   C619    1.389   .     A
C618   C628    1.403   .     A
C618   H634    1.084   .     S
C618   C620    1.389   .     A
C619   H635    1.083   .     S
C619   C621    1.398   .     A
C620   C622    1.398   .     A
C620   H636    1.083   .     S
C621   C623    1.401   .     A
C622   C624    1.401   .     A
C623   H637    1.084   .     S
C623   C625    1.393   .     A
C624   H638    1.084   .     S
C624   C626    1.393   .     A
C625   C627    1.418   .     A
C625   O657    1.381   .     S
C626   C628    1.418   .     A
C626   O659    1.381   .     S
C628   C447    1.468   1_565 S
Cu629  Cu630   2.675   .     S
Cu629  O656    1.960   .     S
Cu629  O649    1.951   .     S
Cu629  O653    1.958   .     S
Cu629  N648    2.009   .     S
Cu629  O652    1.953   .     S
Cu630  O655    1.960   .     S
Cu630  N647    2.009   .     S
Cu630  O651    1.953   .     S
Cu630  O654    1.958   .     S
Cu630  O650    1.951   .     S
H631   C675    1.087   .     S
H658   O477    0.989   1_565 S
O659   H480    0.989   1_565 S
C661   C681    1.459   .     S
C661   O711    1.292   .     A
C661   O709    1.293   .     A
C662   C682    1.459   .     S
C662   O712    1.292   .     A
C662   O710    1.293   .     A
C663   C665    1.407   .     A
C663   H699    1.081   .     S
C663   C671    1.411   .     A
C664   C672    1.411   .     A
C664   C666    1.407   .     A
C664   H700    1.081   .     S
C665   H701    1.081   .     S
C665   N707    1.364   .     A
C666   N708    1.364   .     A
C666   H702    1.081   .     S
C667   H703    1.081   .     S
C667   N707    1.364   .     A
C667   C669    1.407   .     A
C668   N708    1.364   .     A
C668   C670    1.407   .     A
C668   H704    1.081   .     S
C669   H705    1.081   .     S
C669   C671    1.411   .     A
C670   C672    1.411   .     A
C670   H706    1.081   .     S
C672   C311    1.517   1_556 S
C673   O713    1.285   .     A
C673   C675    1.434   .     S
C673   O715    1.287   .     A
C674   O716    1.287   .     A
C674   O714    1.285   .     A
C674   C676    1.434   .     S
C676   C555    1.335   1_655 S
C676   H572    1.087   1_655 S
C677   H693    1.084   .     S
C677   C687    1.403   .     A
C677   C679    1.389   .     A
C678   C688    1.403   .     A
C678   H694    1.084   .     S
C678   C680    1.389   .     A
C679   H695    1.083   .     S
C679   C681    1.398   .     A
C680   C682    1.398   .     A
C680   H696    1.083   .     S
C681   C683    1.401   .     A
C682   C684    1.401   .     A
C683   H697    1.084   .     S
C683   C685    1.393   .     A
C684   H698    1.084   .     S
C684   C686    1.393   .     A
C685   C687    1.418   .     A
C685   O717    1.381   .     S
C686   C688    1.418   .     A
C686   O719    1.381   .     S
C688   C507    1.468   1_565 S
Cu689  Cu690   2.675   .     S
Cu689  O716    1.960   .     S
Cu689  O709    1.951   .     S
Cu689  O713    1.958   .     S
Cu689  N708    2.009   .     S
Cu689  O712    1.953   .     S
Cu690  O715    1.960   .     S
Cu690  N707    2.009   .     S
Cu690  O711    1.953   .     S
Cu690  O714    1.958   .     S
Cu690  O710    1.951   .     S
H691   C555    1.087   1_655 S
H718   O537    0.989   1_565 S
O719   H540    0.989   1_565 S
