data_str_m2_o1_o10_pcu_sym.23
_audit_creation_date              2020-01-03
_audit_creation_method            'Materials Studio'
_symmetry_space_group_name_H-M    'P1'
_symmetry_Int_Tables_number       1
_symmetry_cell_setting            triclinic
loop_
_symmetry_equiv_pos_as_xyz
  x,y,z
_cell_length_a                    26.3783
_cell_length_b                    32.4894
_cell_length_c                    28.5271
_cell_angle_alpha                 89.9413
_cell_angle_beta                  97.7984
_cell_angle_gamma                 90.2448
loop_
_atom_site_label
_atom_site_type_symbol
_atom_site_fract_x
_atom_site_fract_y
_atom_site_fract_z
_atom_site_U_iso_or_equiv
_atom_site_adp_type
_atom_site_occupancy
C1     C     0.16665   0.08735   0.16667   0.00000  Uiso   1.00
C2     C     0.16438   0.02124   0.20894   0.00000  Uiso   1.00
C3     C     0.16667   0.29059   0.16666   0.00000  Uiso   1.00
C4     C     0.16666   0.04274   0.16667   0.00000  Uiso   1.00
C5     C     0.13317   0.14243   0.02063   0.00000  Uiso   1.00
C6     C     0.20016   0.19091   0.31270   0.00000  Uiso   1.00
C7     C     0.13323   0.14240   0.30434   0.00000  Uiso   1.00
C8     C     0.20011   0.19093   0.02899   0.00000  Uiso   1.00
C9     C     0.32435   0.11222   0.09424   0.00000  Uiso   1.00
C10    C     0.29356   0.10255   0.04647   0.00000  Uiso   1.00
C11    C     0.00899   0.22111   0.23909   0.00000  Uiso   1.00
C12    C     0.16668   0.24598   0.16667   0.00000  Uiso   1.00
C13    C     0.03975   0.23078   0.28687   0.00000  Uiso   1.00
C14    C     0.06811   0.16606   0.15473   0.00000  Uiso   1.00
C15    C     0.26522   0.16727   0.17860   0.00000  Uiso   1.00
C16    C     0.01314   0.16306   0.14823   0.00000  Uiso   1.00
C17    C     0.32019   0.17028   0.18511   0.00000  Uiso   1.00
C18    C     0.16895   0.02134   0.12440   0.00000  Uiso   1.00
C19    C     0.16439   0.31200   0.20893   0.00000  Uiso   1.00
C20    C     0.16895   0.31209   0.12440   0.00000  Uiso   1.00
Cu21   Cu    0.16667   0.16667   0.21355   0.00000  Uiso   1.00
Cu22   Cu    0.16667   0.16666   0.11978   0.00000  Uiso   1.00
H23    H     0.17082   0.03740   0.09138   0.00000  Uiso   1.00
H24    H     0.03122   0.10234   0.09327   0.00000  Uiso   1.00
H25    H     0.30843   0.12070   0.01821   0.00000  Uiso   1.00
H26    H     0.29656   0.06927   0.03854   0.00000  Uiso   1.00
H27    H     0.25267   0.11019   0.04705   0.00000  Uiso   1.00
H28    H     0.30212   0.23101   0.24004   0.00000  Uiso   1.00
H29    H     0.02561   0.23918   0.21155   0.00000  Uiso   1.00
H30    H     0.08064   0.22312   0.28632   0.00000  Uiso   1.00
H31    H     0.03676   0.26407   0.29479   0.00000  Uiso   1.00
H32    H     0.02486   0.21264   0.31512   0.00000  Uiso   1.00
H33    H     0.16251   0.29593   0.24196   0.00000  Uiso   1.00
H34    H     0.17082   0.29611   0.09137   0.00000  Uiso   1.00
H35    H     0.16251   0.03722   0.24196   0.00000  Uiso   1.00
H36    H     0.10638   0.12300   0.03601   0.00000  Uiso   1.00
H37    H     0.22696   0.21033   0.29732   0.00000  Uiso   1.00
H38    H     0.10644   0.12299   0.28227   0.00000  Uiso   1.00
H39    H     0.22690   0.21035   0.05106   0.00000  Uiso   1.00
H40    H     0.30776   0.09415   0.12178   0.00000  Uiso   1.00
N41    N     0.16668   0.16668   0.28403   0.00000  Uiso   1.00
N42    N     0.16665   0.16666   0.04931   0.00000  Uiso   1.00
O43    O     0.16666   0.10655   0.20625   0.00000  Uiso   1.00
O44    O     0.01137   0.17840   0.23040   0.00000  Uiso   1.00
O45    O     0.16667   0.22678   0.12709   0.00000  Uiso   1.00
O46    O     0.16666   0.10654   0.12706   0.00000  Uiso   1.00
O47    O     0.16667   0.22679   0.20628   0.00000  Uiso   1.00
O48    O     0.09161   0.16667   0.19712   0.00000  Uiso   1.00
O49    O     0.24172   0.16666   0.13621   0.00000  Uiso   1.00
O50    O     0.09161   0.16666   0.11793   0.00000  Uiso   1.00
O51    O     0.24172   0.16667   0.21540   0.00000  Uiso   1.00
O52    O     0.32196   0.15493   0.10294   0.00000  Uiso   1.00
C53    C     0.49999   0.08735   0.16667   0.00000  Uiso   1.00
C54    C     0.49772   0.02124   0.20894   0.00000  Uiso   1.00
C55    C     0.50001   0.29059   0.16666   0.00000  Uiso   1.00
C56    C     0.49999   0.04274   0.16667   0.00000  Uiso   1.00
C57    C     0.46651   0.14243   0.02063   0.00000  Uiso   1.00
C58    C     0.53349   0.19091   0.31270   0.00000  Uiso   1.00
C59    C     0.46656   0.14240   0.30434   0.00000  Uiso   1.00
C60    C     0.53344   0.19093   0.02899   0.00000  Uiso   1.00
C61    C     0.65768   0.11222   0.09424   0.00000  Uiso   1.00
C62    C     0.62689   0.10255   0.04647   0.00000  Uiso   1.00
C63    C     0.34232   0.22111   0.23909   0.00000  Uiso   1.00
C64    C     0.50001   0.24598   0.16667   0.00000  Uiso   1.00
C65    C     0.37309   0.23078   0.28687   0.00000  Uiso   1.00
C66    C     0.40144   0.16606   0.15473   0.00000  Uiso   1.00
C67    C     0.59856   0.16727   0.17860   0.00000  Uiso   1.00
C68    C     0.34647   0.16306   0.14823   0.00000  Uiso   1.00
C69    C     0.65353   0.17028   0.18511   0.00000  Uiso   1.00
C70    C     0.50228   0.02134   0.12440   0.00000  Uiso   1.00
C71    C     0.49772   0.31200   0.20893   0.00000  Uiso   1.00
C72    C     0.50228   0.31209   0.12440   0.00000  Uiso   1.00
Cu73   Cu    0.50000   0.16667   0.21355   0.00000  Uiso   1.00
Cu74   Cu    0.50000   0.16666   0.11978   0.00000  Uiso   1.00
H75    H     0.50416   0.03740   0.09138   0.00000  Uiso   1.00
H76    H     0.36456   0.10234   0.09327   0.00000  Uiso   1.00
H77    H     0.64176   0.12070   0.01821   0.00000  Uiso   1.00
H78    H     0.62990   0.06927   0.03854   0.00000  Uiso   1.00
H79    H     0.58601   0.11019   0.04705   0.00000  Uiso   1.00
H80    H     0.63545   0.23101   0.24004   0.00000  Uiso   1.00
H81    H     0.35894   0.23918   0.21155   0.00000  Uiso   1.00
H82    H     0.41398   0.22312   0.28632   0.00000  Uiso   1.00
H83    H     0.37010   0.26407   0.29479   0.00000  Uiso   1.00
H84    H     0.35819   0.21264   0.31512   0.00000  Uiso   1.00
H85    H     0.49584   0.29593   0.24196   0.00000  Uiso   1.00
H86    H     0.50415   0.29611   0.09137   0.00000  Uiso   1.00
H87    H     0.49585   0.03722   0.24196   0.00000  Uiso   1.00
H88    H     0.43971   0.12300   0.03601   0.00000  Uiso   1.00
H89    H     0.56029   0.21033   0.29732   0.00000  Uiso   1.00
H90    H     0.43977   0.12299   0.28227   0.00000  Uiso   1.00
H91    H     0.56023   0.21035   0.05106   0.00000  Uiso   1.00
H92    H     0.64109   0.09415   0.12178   0.00000  Uiso   1.00
N93    N     0.50001   0.16668   0.28403   0.00000  Uiso   1.00
N94    N     0.49999   0.16666   0.04931   0.00000  Uiso   1.00
O95    O     0.50000   0.10655   0.20625   0.00000  Uiso   1.00
O96    O     0.34471   0.17840   0.23040   0.00000  Uiso   1.00
O97    O     0.50000   0.22678   0.12709   0.00000  Uiso   1.00
O98    O     0.50000   0.10654   0.12706   0.00000  Uiso   1.00
O99    O     0.50000   0.22679   0.20628   0.00000  Uiso   1.00
O100   O     0.42495   0.16667   0.19712   0.00000  Uiso   1.00
O101   O     0.57505   0.16666   0.13621   0.00000  Uiso   1.00
O102   O     0.42494   0.16666   0.11793   0.00000  Uiso   1.00
O103   O     0.57506   0.16667   0.21540   0.00000  Uiso   1.00
O104   O     0.65529   0.15493   0.10294   0.00000  Uiso   1.00
C105   C     0.83332   0.08735   0.16667   0.00000  Uiso   1.00
C106   C     0.83105   0.02124   0.20894   0.00000  Uiso   1.00
C107   C     0.83334   0.29059   0.16666   0.00000  Uiso   1.00
C108   C     0.83333   0.04274   0.16667   0.00000  Uiso   1.00
C109   C     0.79984   0.14243   0.02063   0.00000  Uiso   1.00
C110   C     0.86683   0.19091   0.31270   0.00000  Uiso   1.00
C111   C     0.79989   0.14240   0.30434   0.00000  Uiso   1.00
C112   C     0.86677   0.19093   0.02899   0.00000  Uiso   1.00
C113   C     0.99102   0.11222   0.09424   0.00000  Uiso   1.00
C114   C     0.96023   0.10255   0.04647   0.00000  Uiso   1.00
C115   C     0.67566   0.22111   0.23909   0.00000  Uiso   1.00
C116   C     0.83335   0.24598   0.16667   0.00000  Uiso   1.00
C117   C     0.70642   0.23078   0.28687   0.00000  Uiso   1.00
C118   C     0.73478   0.16606   0.15473   0.00000  Uiso   1.00
C119   C     0.93189   0.16727   0.17860   0.00000  Uiso   1.00
C120   C     0.67981   0.16306   0.14823   0.00000  Uiso   1.00
C121   C     0.98686   0.17028   0.18511   0.00000  Uiso   1.00
C122   C     0.83561   0.02134   0.12440   0.00000  Uiso   1.00
C123   C     0.83105   0.31200   0.20893   0.00000  Uiso   1.00
C124   C     0.83562   0.31209   0.12440   0.00000  Uiso   1.00
Cu125  Cu    0.83333   0.16667   0.21355   0.00000  Uiso   1.00
Cu126  Cu    0.83333   0.16666   0.11978   0.00000  Uiso   1.00
H127   H     0.83749   0.03740   0.09138   0.00000  Uiso   1.00
H128   H     0.69789   0.10234   0.09327   0.00000  Uiso   1.00
H129   H     0.97509   0.12070   0.01821   0.00000  Uiso   1.00
H130   H     0.96323   0.06927   0.03854   0.00000  Uiso   1.00
H131   H     0.91934   0.11019   0.04705   0.00000  Uiso   1.00
H132   H     0.96878   0.23101   0.24004   0.00000  Uiso   1.00
H133   H     0.69228   0.23918   0.21155   0.00000  Uiso   1.00
H134   H     0.74731   0.22312   0.28632   0.00000  Uiso   1.00
H135   H     0.70343   0.26407   0.29479   0.00000  Uiso   1.00
H136   H     0.69152   0.21264   0.31512   0.00000  Uiso   1.00
H137   H     0.82918   0.29593   0.24196   0.00000  Uiso   1.00
H138   H     0.83749   0.29611   0.09137   0.00000  Uiso   1.00
H139   H     0.82918   0.03722   0.24196   0.00000  Uiso   1.00
H140   H     0.77304   0.12300   0.03601   0.00000  Uiso   1.00
H141   H     0.89362   0.21033   0.29732   0.00000  Uiso   1.00
H142   H     0.77310   0.12299   0.28227   0.00000  Uiso   1.00
H143   H     0.89356   0.21035   0.05106   0.00000  Uiso   1.00
H144   H     0.97442   0.09415   0.12178   0.00000  Uiso   1.00
N145   N     0.83335   0.16668   0.28403   0.00000  Uiso   1.00
N146   N     0.83332   0.16666   0.04931   0.00000  Uiso   1.00
O147   O     0.83333   0.10655   0.20625   0.00000  Uiso   1.00
O148   O     0.67804   0.17840   0.23040   0.00000  Uiso   1.00
O149   O     0.83334   0.22678   0.12709   0.00000  Uiso   1.00
O150   O     0.83333   0.10654   0.12706   0.00000  Uiso   1.00
O151   O     0.83334   0.22679   0.20628   0.00000  Uiso   1.00
O152   O     0.75828   0.16667   0.19712   0.00000  Uiso   1.00
O153   O     0.90839   0.16666   0.13621   0.00000  Uiso   1.00
O154   O     0.75828   0.16666   0.11793   0.00000  Uiso   1.00
O155   O     0.90839   0.16667   0.21540   0.00000  Uiso   1.00
O156   O     0.98863   0.15493   0.10294   0.00000  Uiso   1.00
C157   C     0.16665   0.42068   0.16667   0.00000  Uiso   1.00
C158   C     0.16438   0.35457   0.20894   0.00000  Uiso   1.00
C159   C     0.16667   0.62393   0.16666   0.00000  Uiso   1.00
C160   C     0.16666   0.37607   0.16667   0.00000  Uiso   1.00
C161   C     0.13317   0.47576   0.02063   0.00000  Uiso   1.00
C162   C     0.20016   0.52424   0.31270   0.00000  Uiso   1.00
C163   C     0.13323   0.47574   0.30434   0.00000  Uiso   1.00
C164   C     0.20011   0.52426   0.02899   0.00000  Uiso   1.00
C165   C     0.32435   0.44556   0.09424   0.00000  Uiso   1.00
C166   C     0.29356   0.43588   0.04647   0.00000  Uiso   1.00
C167   C     0.00899   0.55444   0.23909   0.00000  Uiso   1.00
C168   C     0.16668   0.57932   0.16667   0.00000  Uiso   1.00
C169   C     0.03975   0.56412   0.28687   0.00000  Uiso   1.00
C170   C     0.06811   0.49940   0.15473   0.00000  Uiso   1.00
C171   C     0.26522   0.50060   0.17860   0.00000  Uiso   1.00
C172   C     0.01314   0.49639   0.14823   0.00000  Uiso   1.00
C173   C     0.32019   0.50361   0.18511   0.00000  Uiso   1.00
C174   C     0.16895   0.35467   0.12440   0.00000  Uiso   1.00
C175   C     0.16439   0.64533   0.20893   0.00000  Uiso   1.00
C176   C     0.16895   0.64543   0.12440   0.00000  Uiso   1.00
Cu177  Cu    0.16667   0.50001   0.21355   0.00000  Uiso   1.00
Cu178  Cu    0.16667   0.49999   0.11978   0.00000  Uiso   1.00
H179   H     0.17082   0.37073   0.09138   0.00000  Uiso   1.00
H180   H     0.03122   0.43567   0.09327   0.00000  Uiso   1.00
H181   H     0.30843   0.45404   0.01821   0.00000  Uiso   1.00
H182   H     0.29656   0.40260   0.03854   0.00000  Uiso   1.00
H183   H     0.25267   0.44353   0.04705   0.00000  Uiso   1.00
H184   H     0.30212   0.56434   0.24004   0.00000  Uiso   1.00
H185   H     0.02561   0.57251   0.21155   0.00000  Uiso   1.00
H186   H     0.08064   0.55646   0.28632   0.00000  Uiso   1.00
H187   H     0.03676   0.59740   0.29479   0.00000  Uiso   1.00
H188   H     0.02486   0.54597   0.31512   0.00000  Uiso   1.00
H189   H     0.16251   0.62927   0.24196   0.00000  Uiso   1.00
H190   H     0.17082   0.62944   0.09137   0.00000  Uiso   1.00
H191   H     0.16251   0.37056   0.24196   0.00000  Uiso   1.00
H192   H     0.10638   0.45633   0.03601   0.00000  Uiso   1.00
H193   H     0.22696   0.54367   0.29732   0.00000  Uiso   1.00
H194   H     0.10644   0.45632   0.28227   0.00000  Uiso   1.00
H195   H     0.22690   0.54368   0.05106   0.00000  Uiso   1.00
H196   H     0.30776   0.42748   0.12178   0.00000  Uiso   1.00
N197   N     0.16668   0.50001   0.28403   0.00000  Uiso   1.00
N198   N     0.16665   0.49999   0.04931   0.00000  Uiso   1.00
O199   O     0.16666   0.43989   0.20625   0.00000  Uiso   1.00
O200   O     0.01137   0.51174   0.23040   0.00000  Uiso   1.00
O201   O     0.16667   0.56011   0.12709   0.00000  Uiso   1.00
O202   O     0.16666   0.43988   0.12706   0.00000  Uiso   1.00
O203   O     0.16667   0.56012   0.20628   0.00000  Uiso   1.00
O204   O     0.09161   0.50000   0.19712   0.00000  Uiso   1.00
O205   O     0.24172   0.50000   0.13621   0.00000  Uiso   1.00
O206   O     0.09161   0.49999   0.11793   0.00000  Uiso   1.00
O207   O     0.24172   0.50001   0.21540   0.00000  Uiso   1.00
O208   O     0.32196   0.48826   0.10294   0.00000  Uiso   1.00
C209   C     0.49999   0.42068   0.16667   0.00000  Uiso   1.00
C210   C     0.49772   0.35457   0.20894   0.00000  Uiso   1.00
C211   C     0.50001   0.62393   0.16666   0.00000  Uiso   1.00
C212   C     0.49999   0.37607   0.16667   0.00000  Uiso   1.00
C213   C     0.46651   0.47576   0.02063   0.00000  Uiso   1.00
C214   C     0.53349   0.52424   0.31270   0.00000  Uiso   1.00
C215   C     0.46656   0.47574   0.30434   0.00000  Uiso   1.00
C216   C     0.53344   0.52426   0.02899   0.00000  Uiso   1.00
C217   C     0.65768   0.44556   0.09424   0.00000  Uiso   1.00
C218   C     0.62689   0.43588   0.04647   0.00000  Uiso   1.00
C219   C     0.34232   0.55444   0.23909   0.00000  Uiso   1.00
C220   C     0.50001   0.57932   0.16667   0.00000  Uiso   1.00
C221   C     0.37309   0.56412   0.28687   0.00000  Uiso   1.00
C222   C     0.40144   0.49940   0.15473   0.00000  Uiso   1.00
C223   C     0.59856   0.50060   0.17860   0.00000  Uiso   1.00
C224   C     0.34647   0.49639   0.14823   0.00000  Uiso   1.00
C225   C     0.65353   0.50361   0.18511   0.00000  Uiso   1.00
C226   C     0.50228   0.35467   0.12440   0.00000  Uiso   1.00
C227   C     0.49772   0.64533   0.20893   0.00000  Uiso   1.00
C228   C     0.50228   0.64543   0.12440   0.00000  Uiso   1.00
Cu229  Cu    0.50000   0.50001   0.21355   0.00000  Uiso   1.00
Cu230  Cu    0.50000   0.49999   0.11978   0.00000  Uiso   1.00
H231   H     0.50416   0.37073   0.09138   0.00000  Uiso   1.00
H232   H     0.36456   0.43567   0.09327   0.00000  Uiso   1.00
H233   H     0.64176   0.45404   0.01821   0.00000  Uiso   1.00
H234   H     0.62990   0.40260   0.03854   0.00000  Uiso   1.00
H235   H     0.58601   0.44353   0.04705   0.00000  Uiso   1.00
H236   H     0.63545   0.56434   0.24004   0.00000  Uiso   1.00
H237   H     0.35894   0.57251   0.21155   0.00000  Uiso   1.00
H238   H     0.41398   0.55646   0.28632   0.00000  Uiso   1.00
H239   H     0.37010   0.59740   0.29479   0.00000  Uiso   1.00
H240   H     0.35819   0.54597   0.31512   0.00000  Uiso   1.00
H241   H     0.49584   0.62927   0.24196   0.00000  Uiso   1.00
H242   H     0.50415   0.62944   0.09137   0.00000  Uiso   1.00
H243   H     0.49585   0.37056   0.24196   0.00000  Uiso   1.00
H244   H     0.43971   0.45633   0.03601   0.00000  Uiso   1.00
H245   H     0.56029   0.54367   0.29732   0.00000  Uiso   1.00
H246   H     0.43977   0.45632   0.28227   0.00000  Uiso   1.00
H247   H     0.56023   0.54368   0.05106   0.00000  Uiso   1.00
H248   H     0.64109   0.42748   0.12178   0.00000  Uiso   1.00
N249   N     0.50001   0.50001   0.28403   0.00000  Uiso   1.00
N250   N     0.49999   0.49999   0.04931   0.00000  Uiso   1.00
O251   O     0.50000   0.43989   0.20625   0.00000  Uiso   1.00
O252   O     0.34471   0.51174   0.23040   0.00000  Uiso   1.00
O253   O     0.50000   0.56011   0.12709   0.00000  Uiso   1.00
O254   O     0.50000   0.43988   0.12706   0.00000  Uiso   1.00
O255   O     0.50000   0.56012   0.20628   0.00000  Uiso   1.00
O256   O     0.42495   0.50000   0.19712   0.00000  Uiso   1.00
O257   O     0.57505   0.50000   0.13621   0.00000  Uiso   1.00
O258   O     0.42494   0.49999   0.11793   0.00000  Uiso   1.00
O259   O     0.57506   0.50001   0.21540   0.00000  Uiso   1.00
O260   O     0.65529   0.48826   0.10294   0.00000  Uiso   1.00
C261   C     0.83332   0.42068   0.16667   0.00000  Uiso   1.00
C262   C     0.83105   0.35457   0.20894   0.00000  Uiso   1.00
C263   C     0.83334   0.62393   0.16666   0.00000  Uiso   1.00
C264   C     0.83333   0.37607   0.16667   0.00000  Uiso   1.00
C265   C     0.79984   0.47576   0.02063   0.00000  Uiso   1.00
C266   C     0.86683   0.52424   0.31270   0.00000  Uiso   1.00
C267   C     0.79989   0.47574   0.30434   0.00000  Uiso   1.00
C268   C     0.86677   0.52426   0.02899   0.00000  Uiso   1.00
C269   C     0.99102   0.44556   0.09424   0.00000  Uiso   1.00
C270   C     0.96023   0.43588   0.04647   0.00000  Uiso   1.00
C271   C     0.67566   0.55444   0.23909   0.00000  Uiso   1.00
C272   C     0.83335   0.57932   0.16667   0.00000  Uiso   1.00
C273   C     0.70642   0.56412   0.28687   0.00000  Uiso   1.00
C274   C     0.73478   0.49940   0.15473   0.00000  Uiso   1.00
C275   C     0.93189   0.50060   0.17860   0.00000  Uiso   1.00
C276   C     0.67981   0.49639   0.14823   0.00000  Uiso   1.00
C277   C     0.98686   0.50361   0.18511   0.00000  Uiso   1.00
C278   C     0.83561   0.35467   0.12440   0.00000  Uiso   1.00
C279   C     0.83105   0.64533   0.20893   0.00000  Uiso   1.00
C280   C     0.83562   0.64543   0.12440   0.00000  Uiso   1.00
Cu281  Cu    0.83333   0.50001   0.21355   0.00000  Uiso   1.00
Cu282  Cu    0.83333   0.49999   0.11978   0.00000  Uiso   1.00
H283   H     0.83749   0.37073   0.09138   0.00000  Uiso   1.00
H284   H     0.69789   0.43567   0.09327   0.00000  Uiso   1.00
H285   H     0.97509   0.45404   0.01821   0.00000  Uiso   1.00
H286   H     0.96323   0.40260   0.03854   0.00000  Uiso   1.00
H287   H     0.91934   0.44353   0.04705   0.00000  Uiso   1.00
H288   H     0.96878   0.56434   0.24004   0.00000  Uiso   1.00
H289   H     0.69228   0.57251   0.21155   0.00000  Uiso   1.00
H290   H     0.74731   0.55646   0.28632   0.00000  Uiso   1.00
H291   H     0.70343   0.59740   0.29479   0.00000  Uiso   1.00
H292   H     0.69152   0.54597   0.31512   0.00000  Uiso   1.00
H293   H     0.82918   0.62927   0.24196   0.00000  Uiso   1.00
H294   H     0.83749   0.62944   0.09137   0.00000  Uiso   1.00
H295   H     0.82918   0.37056   0.24196   0.00000  Uiso   1.00
H296   H     0.77304   0.45633   0.03601   0.00000  Uiso   1.00
H297   H     0.89362   0.54367   0.29732   0.00000  Uiso   1.00
H298   H     0.77310   0.45632   0.28227   0.00000  Uiso   1.00
H299   H     0.89356   0.54368   0.05106   0.00000  Uiso   1.00
H300   H     0.97442   0.42748   0.12178   0.00000  Uiso   1.00
N301   N     0.83335   0.50001   0.28403   0.00000  Uiso   1.00
N302   N     0.83332   0.49999   0.04931   0.00000  Uiso   1.00
O303   O     0.83333   0.43989   0.20625   0.00000  Uiso   1.00
O304   O     0.67804   0.51174   0.23040   0.00000  Uiso   1.00
O305   O     0.83334   0.56011   0.12709   0.00000  Uiso   1.00
O306   O     0.83333   0.43988   0.12706   0.00000  Uiso   1.00
O307   O     0.83334   0.56012   0.20628   0.00000  Uiso   1.00
O308   O     0.75828   0.50000   0.19712   0.00000  Uiso   1.00
O309   O     0.90839   0.50000   0.13621   0.00000  Uiso   1.00
O310   O     0.75828   0.49999   0.11793   0.00000  Uiso   1.00
O311   O     0.90839   0.50001   0.21540   0.00000  Uiso   1.00
O312   O     0.98863   0.48826   0.10294   0.00000  Uiso   1.00
C313   C     0.16665   0.75402   0.16667   0.00000  Uiso   1.00
C314   C     0.16438   0.68791   0.20894   0.00000  Uiso   1.00
C315   C     0.16667   0.95726   0.16666   0.00000  Uiso   1.00
C316   C     0.16666   0.70941   0.16667   0.00000  Uiso   1.00
C317   C     0.13317   0.80909   0.02063   0.00000  Uiso   1.00
C318   C     0.20016   0.85757   0.31270   0.00000  Uiso   1.00
C319   C     0.13323   0.80907   0.30434   0.00000  Uiso   1.00
C320   C     0.20011   0.85760   0.02899   0.00000  Uiso   1.00
C321   C     0.32435   0.77889   0.09424   0.00000  Uiso   1.00
C322   C     0.29356   0.76922   0.04647   0.00000  Uiso   1.00
C323   C     0.00899   0.88778   0.23909   0.00000  Uiso   1.00
C324   C     0.16668   0.91265   0.16667   0.00000  Uiso   1.00
C325   C     0.03975   0.89745   0.28687   0.00000  Uiso   1.00
C326   C     0.06811   0.83273   0.15473   0.00000  Uiso   1.00
C327   C     0.26522   0.83394   0.17860   0.00000  Uiso   1.00
C328   C     0.01314   0.82972   0.14823   0.00000  Uiso   1.00
C329   C     0.32019   0.83694   0.18511   0.00000  Uiso   1.00
C330   C     0.16895   0.68800   0.12440   0.00000  Uiso   1.00
C331   C     0.16439   0.97866   0.20893   0.00000  Uiso   1.00
C332   C     0.16895   0.97876   0.12440   0.00000  Uiso   1.00
Cu333  Cu    0.16667   0.83334   0.21355   0.00000  Uiso   1.00
Cu334  Cu    0.16667   0.83333   0.11978   0.00000  Uiso   1.00
H335   H     0.17082   0.70406   0.09138   0.00000  Uiso   1.00
H336   H     0.03122   0.76900   0.09327   0.00000  Uiso   1.00
H337   H     0.30843   0.78737   0.01821   0.00000  Uiso   1.00
H338   H     0.29656   0.73593   0.03854   0.00000  Uiso   1.00
H339   H     0.25267   0.77686   0.04705   0.00000  Uiso   1.00
H340   H     0.30212   0.89768   0.24004   0.00000  Uiso   1.00
H341   H     0.02561   0.90584   0.21155   0.00000  Uiso   1.00
H342   H     0.08064   0.88979   0.28632   0.00000  Uiso   1.00
H343   H     0.03676   0.93074   0.29479   0.00000  Uiso   1.00
H344   H     0.02486   0.87931   0.31512   0.00000  Uiso   1.00
H345   H     0.16251   0.96260   0.24196   0.00000  Uiso   1.00
H346   H     0.17082   0.96278   0.09137   0.00000  Uiso   1.00
H347   H     0.16251   0.70389   0.24196   0.00000  Uiso   1.00
H348   H     0.10638   0.78967   0.03601   0.00000  Uiso   1.00
H349   H     0.22696   0.87700   0.29732   0.00000  Uiso   1.00
H350   H     0.10644   0.78965   0.28227   0.00000  Uiso   1.00
H351   H     0.22690   0.87701   0.05106   0.00000  Uiso   1.00
H352   H     0.30776   0.76082   0.12178   0.00000  Uiso   1.00
N353   N     0.16668   0.83334   0.28403   0.00000  Uiso   1.00
N354   N     0.16665   0.83332   0.04931   0.00000  Uiso   1.00
O355   O     0.16666   0.77322   0.20625   0.00000  Uiso   1.00
O356   O     0.01137   0.84507   0.23040   0.00000  Uiso   1.00
O357   O     0.16667   0.89345   0.12709   0.00000  Uiso   1.00
O358   O     0.16666   0.77321   0.12706   0.00000  Uiso   1.00
O359   O     0.16667   0.89346   0.20628   0.00000  Uiso   1.00
O360   O     0.09161   0.83334   0.19712   0.00000  Uiso   1.00
O361   O     0.24172   0.83333   0.13621   0.00000  Uiso   1.00
O362   O     0.09161   0.83333   0.11793   0.00000  Uiso   1.00
O363   O     0.24172   0.83334   0.21540   0.00000  Uiso   1.00
O364   O     0.32196   0.82160   0.10294   0.00000  Uiso   1.00
C365   C     0.49999   0.75402   0.16667   0.00000  Uiso   1.00
C366   C     0.49772   0.68791   0.20894   0.00000  Uiso   1.00
C367   C     0.50001   0.95726   0.16666   0.00000  Uiso   1.00
C368   C     0.49999   0.70941   0.16667   0.00000  Uiso   1.00
C369   C     0.46651   0.80909   0.02063   0.00000  Uiso   1.00
C370   C     0.53349   0.85757   0.31270   0.00000  Uiso   1.00
C371   C     0.46656   0.80907   0.30434   0.00000  Uiso   1.00
C372   C     0.53344   0.85760   0.02899   0.00000  Uiso   1.00
C373   C     0.65768   0.77889   0.09424   0.00000  Uiso   1.00
C374   C     0.62689   0.76922   0.04647   0.00000  Uiso   1.00
C375   C     0.34232   0.88778   0.23909   0.00000  Uiso   1.00
C376   C     0.50001   0.91265   0.16667   0.00000  Uiso   1.00
C377   C     0.37309   0.89745   0.28687   0.00000  Uiso   1.00
C378   C     0.40144   0.83273   0.15473   0.00000  Uiso   1.00
C379   C     0.59856   0.83394   0.17860   0.00000  Uiso   1.00
C380   C     0.34647   0.82972   0.14823   0.00000  Uiso   1.00
C381   C     0.65353   0.83694   0.18511   0.00000  Uiso   1.00
C382   C     0.50228   0.68800   0.12440   0.00000  Uiso   1.00
C383   C     0.49772   0.97866   0.20893   0.00000  Uiso   1.00
C384   C     0.50228   0.97876   0.12440   0.00000  Uiso   1.00
Cu385  Cu    0.50000   0.83334   0.21355   0.00000  Uiso   1.00
Cu386  Cu    0.50000   0.83333   0.11978   0.00000  Uiso   1.00
H387   H     0.50416   0.70406   0.09138   0.00000  Uiso   1.00
H388   H     0.36456   0.76900   0.09327   0.00000  Uiso   1.00
H389   H     0.64176   0.78737   0.01821   0.00000  Uiso   1.00
H390   H     0.62990   0.73593   0.03854   0.00000  Uiso   1.00
H391   H     0.58601   0.77686   0.04705   0.00000  Uiso   1.00
H392   H     0.63545   0.89768   0.24004   0.00000  Uiso   1.00
H393   H     0.35894   0.90584   0.21155   0.00000  Uiso   1.00
H394   H     0.41398   0.88979   0.28632   0.00000  Uiso   1.00
H395   H     0.37010   0.93074   0.29479   0.00000  Uiso   1.00
H396   H     0.35819   0.87931   0.31512   0.00000  Uiso   1.00
H397   H     0.49584   0.96260   0.24196   0.00000  Uiso   1.00
H398   H     0.50415   0.96278   0.09137   0.00000  Uiso   1.00
H399   H     0.49585   0.70389   0.24196   0.00000  Uiso   1.00
H400   H     0.43971   0.78967   0.03601   0.00000  Uiso   1.00
H401   H     0.56029   0.87700   0.29732   0.00000  Uiso   1.00
H402   H     0.43977   0.78965   0.28227   0.00000  Uiso   1.00
H403   H     0.56023   0.87701   0.05106   0.00000  Uiso   1.00
H404   H     0.64109   0.76082   0.12178   0.00000  Uiso   1.00
N405   N     0.50001   0.83334   0.28403   0.00000  Uiso   1.00
N406   N     0.49999   0.83332   0.04931   0.00000  Uiso   1.00
O407   O     0.50000   0.77322   0.20625   0.00000  Uiso   1.00
O408   O     0.34471   0.84507   0.23040   0.00000  Uiso   1.00
O409   O     0.50000   0.89345   0.12709   0.00000  Uiso   1.00
O410   O     0.50000   0.77321   0.12706   0.00000  Uiso   1.00
O411   O     0.50000   0.89346   0.20628   0.00000  Uiso   1.00
O412   O     0.42495   0.83334   0.19712   0.00000  Uiso   1.00
O413   O     0.57505   0.83333   0.13621   0.00000  Uiso   1.00
O414   O     0.42494   0.83333   0.11793   0.00000  Uiso   1.00
O415   O     0.57506   0.83334   0.21540   0.00000  Uiso   1.00
O416   O     0.65529   0.82160   0.10294   0.00000  Uiso   1.00
C417   C     0.83332   0.75402   0.16667   0.00000  Uiso   1.00
C418   C     0.83105   0.68791   0.20894   0.00000  Uiso   1.00
C419   C     0.83334   0.95726   0.16666   0.00000  Uiso   1.00
C420   C     0.83333   0.70941   0.16667   0.00000  Uiso   1.00
C421   C     0.79984   0.80909   0.02063   0.00000  Uiso   1.00
C422   C     0.86683   0.85757   0.31270   0.00000  Uiso   1.00
C423   C     0.79989   0.80907   0.30434   0.00000  Uiso   1.00
C424   C     0.86677   0.85760   0.02899   0.00000  Uiso   1.00
C425   C     0.99102   0.77889   0.09424   0.00000  Uiso   1.00
C426   C     0.96023   0.76922   0.04647   0.00000  Uiso   1.00
C427   C     0.67566   0.88778   0.23909   0.00000  Uiso   1.00
C428   C     0.83335   0.91265   0.16667   0.00000  Uiso   1.00
C429   C     0.70642   0.89745   0.28687   0.00000  Uiso   1.00
C430   C     0.73478   0.83273   0.15473   0.00000  Uiso   1.00
C431   C     0.93189   0.83394   0.17860   0.00000  Uiso   1.00
C432   C     0.67981   0.82972   0.14823   0.00000  Uiso   1.00
C433   C     0.98686   0.83694   0.18511   0.00000  Uiso   1.00
C434   C     0.83561   0.68800   0.12440   0.00000  Uiso   1.00
C435   C     0.83105   0.97866   0.20893   0.00000  Uiso   1.00
C436   C     0.83562   0.97876   0.12440   0.00000  Uiso   1.00
Cu437  Cu    0.83333   0.83334   0.21355   0.00000  Uiso   1.00
Cu438  Cu    0.83333   0.83333   0.11978   0.00000  Uiso   1.00
H439   H     0.83749   0.70406   0.09138   0.00000  Uiso   1.00
H440   H     0.69789   0.76900   0.09327   0.00000  Uiso   1.00
H441   H     0.97509   0.78737   0.01821   0.00000  Uiso   1.00
H442   H     0.96323   0.73593   0.03854   0.00000  Uiso   1.00
H443   H     0.91934   0.77686   0.04705   0.00000  Uiso   1.00
H444   H     0.96878   0.89768   0.24004   0.00000  Uiso   1.00
H445   H     0.69228   0.90584   0.21155   0.00000  Uiso   1.00
H446   H     0.74731   0.88979   0.28632   0.00000  Uiso   1.00
H447   H     0.70343   0.93074   0.29479   0.00000  Uiso   1.00
H448   H     0.69152   0.87931   0.31512   0.00000  Uiso   1.00
H449   H     0.82918   0.96260   0.24196   0.00000  Uiso   1.00
H450   H     0.83749   0.96278   0.09137   0.00000  Uiso   1.00
H451   H     0.82918   0.70389   0.24196   0.00000  Uiso   1.00
H452   H     0.77304   0.78967   0.03601   0.00000  Uiso   1.00
H453   H     0.89362   0.87700   0.29732   0.00000  Uiso   1.00
H454   H     0.77310   0.78965   0.28227   0.00000  Uiso   1.00
H455   H     0.89356   0.87701   0.05106   0.00000  Uiso   1.00
H456   H     0.97442   0.76082   0.12178   0.00000  Uiso   1.00
N457   N     0.83335   0.83334   0.28403   0.00000  Uiso   1.00
N458   N     0.83332   0.83332   0.04931   0.00000  Uiso   1.00
O459   O     0.83333   0.77322   0.20625   0.00000  Uiso   1.00
O460   O     0.67804   0.84507   0.23040   0.00000  Uiso   1.00
O461   O     0.83334   0.89345   0.12709   0.00000  Uiso   1.00
O462   O     0.83333   0.77321   0.12706   0.00000  Uiso   1.00
O463   O     0.83334   0.89346   0.20628   0.00000  Uiso   1.00
O464   O     0.75828   0.83334   0.19712   0.00000  Uiso   1.00
O465   O     0.90839   0.83333   0.13621   0.00000  Uiso   1.00
O466   O     0.75828   0.83333   0.11793   0.00000  Uiso   1.00
O467   O     0.90839   0.83334   0.21540   0.00000  Uiso   1.00
O468   O     0.98863   0.82160   0.10294   0.00000  Uiso   1.00
C469   C     0.16665   0.08735   0.50000   0.00000  Uiso   1.00
C470   C     0.16438   0.02124   0.54227   0.00000  Uiso   1.00
C471   C     0.16667   0.29059   0.49999   0.00000  Uiso   1.00
C472   C     0.16666   0.04274   0.50001   0.00000  Uiso   1.00
C473   C     0.13317   0.14243   0.35397   0.00000  Uiso   1.00
C474   C     0.20016   0.19091   0.64603   0.00000  Uiso   1.00
C475   C     0.13323   0.14240   0.63768   0.00000  Uiso   1.00
C476   C     0.20011   0.19093   0.36232   0.00000  Uiso   1.00
C477   C     0.32435   0.11222   0.42757   0.00000  Uiso   1.00
C478   C     0.29356   0.10255   0.37981   0.00000  Uiso   1.00
C479   C     0.00899   0.22111   0.57242   0.00000  Uiso   1.00
C480   C     0.16668   0.24598   0.50000   0.00000  Uiso   1.00
C481   C     0.03975   0.23078   0.62020   0.00000  Uiso   1.00
C482   C     0.06811   0.16606   0.48806   0.00000  Uiso   1.00
C483   C     0.26522   0.16727   0.51194   0.00000  Uiso   1.00
C484   C     0.01314   0.16306   0.48156   0.00000  Uiso   1.00
C485   C     0.32019   0.17028   0.51844   0.00000  Uiso   1.00
C486   C     0.16895   0.02134   0.45774   0.00000  Uiso   1.00
C487   C     0.16439   0.31200   0.54226   0.00000  Uiso   1.00
C488   C     0.16895   0.31209   0.45773   0.00000  Uiso   1.00
Cu489  Cu    0.16667   0.16667   0.54689   0.00000  Uiso   1.00
Cu490  Cu    0.16667   0.16666   0.45311   0.00000  Uiso   1.00
H491   H     0.17082   0.03740   0.42471   0.00000  Uiso   1.00
H492   H     0.03122   0.10234   0.42660   0.00000  Uiso   1.00
H493   H     0.30843   0.12070   0.35155   0.00000  Uiso   1.00
H494   H     0.29656   0.06927   0.37188   0.00000  Uiso   1.00
H495   H     0.25267   0.11019   0.38038   0.00000  Uiso   1.00
H496   H     0.30212   0.23101   0.57337   0.00000  Uiso   1.00
H497   H     0.02561   0.23918   0.54489   0.00000  Uiso   1.00
H498   H     0.08064   0.22312   0.61965   0.00000  Uiso   1.00
H499   H     0.03676   0.26407   0.62812   0.00000  Uiso   1.00
H500   H     0.02486   0.21264   0.64845   0.00000  Uiso   1.00
H501   H     0.16251   0.29593   0.57529   0.00000  Uiso   1.00
H502   H     0.17082   0.29611   0.42470   0.00000  Uiso   1.00
H503   H     0.16251   0.03722   0.57530   0.00000  Uiso   1.00
H504   H     0.10638   0.12300   0.36934   0.00000  Uiso   1.00
H505   H     0.22696   0.21033   0.63066   0.00000  Uiso   1.00
H506   H     0.10644   0.12299   0.61561   0.00000  Uiso   1.00
H507   H     0.22690   0.21035   0.38439   0.00000  Uiso   1.00
H508   H     0.30776   0.09415   0.45512   0.00000  Uiso   1.00
N509   N     0.16668   0.16668   0.61736   0.00000  Uiso   1.00
N510   N     0.16665   0.16666   0.38264   0.00000  Uiso   1.00
O511   O     0.16666   0.10655   0.53958   0.00000  Uiso   1.00
O512   O     0.01137   0.17840   0.56373   0.00000  Uiso   1.00
O513   O     0.16667   0.22678   0.46042   0.00000  Uiso   1.00
O514   O     0.16666   0.10654   0.46039   0.00000  Uiso   1.00
O515   O     0.16667   0.22679   0.53961   0.00000  Uiso   1.00
O516   O     0.09161   0.16667   0.53046   0.00000  Uiso   1.00
O517   O     0.24172   0.16666   0.46954   0.00000  Uiso   1.00
O518   O     0.09161   0.16666   0.45127   0.00000  Uiso   1.00
O519   O     0.24172   0.16667   0.54873   0.00000  Uiso   1.00
O520   O     0.32196   0.15493   0.43627   0.00000  Uiso   1.00
C521   C     0.49999   0.08735   0.50000   0.00000  Uiso   1.00
C522   C     0.49772   0.02124   0.54227   0.00000  Uiso   1.00
C523   C     0.50001   0.29059   0.49999   0.00000  Uiso   1.00
C524   C     0.49999   0.04274   0.50001   0.00000  Uiso   1.00
C525   C     0.46651   0.14243   0.35397   0.00000  Uiso   1.00
C526   C     0.53349   0.19091   0.64603   0.00000  Uiso   1.00
C527   C     0.46656   0.14240   0.63768   0.00000  Uiso   1.00
C528   C     0.53344   0.19093   0.36232   0.00000  Uiso   1.00
C529   C     0.65768   0.11222   0.42757   0.00000  Uiso   1.00
C530   C     0.62689   0.10255   0.37981   0.00000  Uiso   1.00
C531   C     0.34232   0.22111   0.57242   0.00000  Uiso   1.00
C532   C     0.50001   0.24598   0.50000   0.00000  Uiso   1.00
C533   C     0.37309   0.23078   0.62020   0.00000  Uiso   1.00
C534   C     0.40144   0.16606   0.48806   0.00000  Uiso   1.00
C535   C     0.59856   0.16727   0.51194   0.00000  Uiso   1.00
C536   C     0.34647   0.16306   0.48156   0.00000  Uiso   1.00
C537   C     0.65353   0.17028   0.51844   0.00000  Uiso   1.00
C538   C     0.50228   0.02134   0.45774   0.00000  Uiso   1.00
C539   C     0.49772   0.31200   0.54226   0.00000  Uiso   1.00
C540   C     0.50228   0.31209   0.45773   0.00000  Uiso   1.00
Cu541  Cu    0.50000   0.16667   0.54689   0.00000  Uiso   1.00
Cu542  Cu    0.50000   0.16666   0.45311   0.00000  Uiso   1.00
H543   H     0.50416   0.03740   0.42471   0.00000  Uiso   1.00
H544   H     0.36456   0.10234   0.42660   0.00000  Uiso   1.00
H545   H     0.64176   0.12070   0.35155   0.00000  Uiso   1.00
H546   H     0.62990   0.06927   0.37188   0.00000  Uiso   1.00
H547   H     0.58601   0.11019   0.38038   0.00000  Uiso   1.00
H548   H     0.63545   0.23101   0.57337   0.00000  Uiso   1.00
H549   H     0.35894   0.23918   0.54489   0.00000  Uiso   1.00
H550   H     0.41398   0.22312   0.61965   0.00000  Uiso   1.00
H551   H     0.37010   0.26407   0.62812   0.00000  Uiso   1.00
H552   H     0.35819   0.21264   0.64845   0.00000  Uiso   1.00
H553   H     0.49584   0.29593   0.57529   0.00000  Uiso   1.00
H554   H     0.50415   0.29611   0.42470   0.00000  Uiso   1.00
H555   H     0.49585   0.03722   0.57530   0.00000  Uiso   1.00
H556   H     0.43971   0.12300   0.36934   0.00000  Uiso   1.00
H557   H     0.56029   0.21033   0.63066   0.00000  Uiso   1.00
H558   H     0.43977   0.12299   0.61561   0.00000  Uiso   1.00
H559   H     0.56023   0.21035   0.38439   0.00000  Uiso   1.00
H560   H     0.64109   0.09415   0.45512   0.00000  Uiso   1.00
N561   N     0.50001   0.16668   0.61736   0.00000  Uiso   1.00
N562   N     0.49999   0.16666   0.38264   0.00000  Uiso   1.00
O563   O     0.50000   0.10655   0.53958   0.00000  Uiso   1.00
O564   O     0.34471   0.17840   0.56373   0.00000  Uiso   1.00
O565   O     0.50000   0.22678   0.46042   0.00000  Uiso   1.00
O566   O     0.50000   0.10654   0.46039   0.00000  Uiso   1.00
O567   O     0.50000   0.22679   0.53961   0.00000  Uiso   1.00
O568   O     0.42495   0.16667   0.53046   0.00000  Uiso   1.00
O569   O     0.57505   0.16666   0.46954   0.00000  Uiso   1.00
O570   O     0.42494   0.16666   0.45127   0.00000  Uiso   1.00
O571   O     0.57506   0.16667   0.54873   0.00000  Uiso   1.00
O572   O     0.65529   0.15493   0.43627   0.00000  Uiso   1.00
C573   C     0.83332   0.08735   0.50000   0.00000  Uiso   1.00
C574   C     0.83105   0.02124   0.54227   0.00000  Uiso   1.00
C575   C     0.83334   0.29059   0.49999   0.00000  Uiso   1.00
C576   C     0.83333   0.04274   0.50001   0.00000  Uiso   1.00
C577   C     0.79984   0.14243   0.35397   0.00000  Uiso   1.00
C578   C     0.86683   0.19091   0.64603   0.00000  Uiso   1.00
C579   C     0.79989   0.14240   0.63768   0.00000  Uiso   1.00
C580   C     0.86677   0.19093   0.36232   0.00000  Uiso   1.00
C581   C     0.99102   0.11222   0.42757   0.00000  Uiso   1.00
C582   C     0.96023   0.10255   0.37981   0.00000  Uiso   1.00
C583   C     0.67566   0.22111   0.57242   0.00000  Uiso   1.00
C584   C     0.83335   0.24598   0.50000   0.00000  Uiso   1.00
C585   C     0.70642   0.23078   0.62020   0.00000  Uiso   1.00
C586   C     0.73478   0.16606   0.48806   0.00000  Uiso   1.00
C587   C     0.93189   0.16727   0.51194   0.00000  Uiso   1.00
C588   C     0.67981   0.16306   0.48156   0.00000  Uiso   1.00
C589   C     0.98686   0.17028   0.51844   0.00000  Uiso   1.00
C590   C     0.83561   0.02134   0.45774   0.00000  Uiso   1.00
C591   C     0.83105   0.31200   0.54226   0.00000  Uiso   1.00
C592   C     0.83562   0.31209   0.45773   0.00000  Uiso   1.00
Cu593  Cu    0.83333   0.16667   0.54689   0.00000  Uiso   1.00
Cu594  Cu    0.83333   0.16666   0.45311   0.00000  Uiso   1.00
H595   H     0.83749   0.03740   0.42471   0.00000  Uiso   1.00
H596   H     0.69789   0.10234   0.42660   0.00000  Uiso   1.00
H597   H     0.97509   0.12070   0.35155   0.00000  Uiso   1.00
H598   H     0.96323   0.06927   0.37188   0.00000  Uiso   1.00
H599   H     0.91934   0.11019   0.38038   0.00000  Uiso   1.00
H600   H     0.96878   0.23101   0.57337   0.00000  Uiso   1.00
H601   H     0.69228   0.23918   0.54489   0.00000  Uiso   1.00
H602   H     0.74731   0.22312   0.61965   0.00000  Uiso   1.00
H603   H     0.70343   0.26407   0.62812   0.00000  Uiso   1.00
H604   H     0.69152   0.21264   0.64845   0.00000  Uiso   1.00
H605   H     0.82918   0.29593   0.57529   0.00000  Uiso   1.00
H606   H     0.83749   0.29611   0.42470   0.00000  Uiso   1.00
H607   H     0.82918   0.03722   0.57530   0.00000  Uiso   1.00
H608   H     0.77304   0.12300   0.36934   0.00000  Uiso   1.00
H609   H     0.89362   0.21033   0.63066   0.00000  Uiso   1.00
H610   H     0.77310   0.12299   0.61561   0.00000  Uiso   1.00
H611   H     0.89356   0.21035   0.38439   0.00000  Uiso   1.00
H612   H     0.97442   0.09415   0.45512   0.00000  Uiso   1.00
N613   N     0.83335   0.16668   0.61736   0.00000  Uiso   1.00
N614   N     0.83332   0.16666   0.38264   0.00000  Uiso   1.00
O615   O     0.83333   0.10655   0.53958   0.00000  Uiso   1.00
O616   O     0.67804   0.17840   0.56373   0.00000  Uiso   1.00
O617   O     0.83334   0.22678   0.46042   0.00000  Uiso   1.00
O618   O     0.83333   0.10654   0.46039   0.00000  Uiso   1.00
O619   O     0.83334   0.22679   0.53961   0.00000  Uiso   1.00
O620   O     0.75828   0.16667   0.53046   0.00000  Uiso   1.00
O621   O     0.90839   0.16666   0.46954   0.00000  Uiso   1.00
O622   O     0.75828   0.16666   0.45127   0.00000  Uiso   1.00
O623   O     0.90839   0.16667   0.54873   0.00000  Uiso   1.00
O624   O     0.98863   0.15493   0.43627   0.00000  Uiso   1.00
C625   C     0.16665   0.42068   0.50000   0.00000  Uiso   1.00
C626   C     0.16438   0.35457   0.54227   0.00000  Uiso   1.00
C627   C     0.16667   0.62393   0.49999   0.00000  Uiso   1.00
C628   C     0.16666   0.37607   0.50001   0.00000  Uiso   1.00
C629   C     0.13317   0.47576   0.35397   0.00000  Uiso   1.00
C630   C     0.20016   0.52424   0.64603   0.00000  Uiso   1.00
C631   C     0.13323   0.47574   0.63768   0.00000  Uiso   1.00
C632   C     0.20011   0.52426   0.36232   0.00000  Uiso   1.00
C633   C     0.32435   0.44556   0.42757   0.00000  Uiso   1.00
C634   C     0.29356   0.43588   0.37981   0.00000  Uiso   1.00
C635   C     0.00899   0.55444   0.57242   0.00000  Uiso   1.00
C636   C     0.16668   0.57932   0.50000   0.00000  Uiso   1.00
C637   C     0.03975   0.56412   0.62020   0.00000  Uiso   1.00
C638   C     0.06811   0.49940   0.48806   0.00000  Uiso   1.00
C639   C     0.26522   0.50060   0.51194   0.00000  Uiso   1.00
C640   C     0.01314   0.49639   0.48156   0.00000  Uiso   1.00
C641   C     0.32019   0.50361   0.51844   0.00000  Uiso   1.00
C642   C     0.16895   0.35467   0.45774   0.00000  Uiso   1.00
C643   C     0.16439   0.64533   0.54226   0.00000  Uiso   1.00
C644   C     0.16895   0.64543   0.45773   0.00000  Uiso   1.00
Cu645  Cu    0.16667   0.50001   0.54689   0.00000  Uiso   1.00
Cu646  Cu    0.16667   0.49999   0.45311   0.00000  Uiso   1.00
H647   H     0.17082   0.37073   0.42471   0.00000  Uiso   1.00
H648   H     0.03122   0.43567   0.42660   0.00000  Uiso   1.00
H649   H     0.30843   0.45404   0.35155   0.00000  Uiso   1.00
H650   H     0.29656   0.40260   0.37188   0.00000  Uiso   1.00
H651   H     0.25267   0.44353   0.38038   0.00000  Uiso   1.00
H652   H     0.30212   0.56434   0.57337   0.00000  Uiso   1.00
H653   H     0.02561   0.57251   0.54489   0.00000  Uiso   1.00
H654   H     0.08064   0.55646   0.61965   0.00000  Uiso   1.00
H655   H     0.03676   0.59740   0.62812   0.00000  Uiso   1.00
H656   H     0.02486   0.54597   0.64845   0.00000  Uiso   1.00
H657   H     0.16251   0.62927   0.57529   0.00000  Uiso   1.00
H658   H     0.17082   0.62944   0.42470   0.00000  Uiso   1.00
H659   H     0.16251   0.37056   0.57530   0.00000  Uiso   1.00
H660   H     0.10638   0.45633   0.36934   0.00000  Uiso   1.00
H661   H     0.22696   0.54367   0.63066   0.00000  Uiso   1.00
H662   H     0.10644   0.45632   0.61561   0.00000  Uiso   1.00
H663   H     0.22690   0.54368   0.38439   0.00000  Uiso   1.00
H664   H     0.30776   0.42748   0.45512   0.00000  Uiso   1.00
N665   N     0.16668   0.50001   0.61736   0.00000  Uiso   1.00
N666   N     0.16665   0.49999   0.38264   0.00000  Uiso   1.00
O667   O     0.16666   0.43989   0.53958   0.00000  Uiso   1.00
O668   O     0.01137   0.51174   0.56373   0.00000  Uiso   1.00
O669   O     0.16667   0.56011   0.46042   0.00000  Uiso   1.00
O670   O     0.16666   0.43988   0.46039   0.00000  Uiso   1.00
O671   O     0.16667   0.56012   0.53961   0.00000  Uiso   1.00
O672   O     0.09161   0.50000   0.53046   0.00000  Uiso   1.00
O673   O     0.24172   0.50000   0.46954   0.00000  Uiso   1.00
O674   O     0.09161   0.49999   0.45127   0.00000  Uiso   1.00
O675   O     0.24172   0.50001   0.54873   0.00000  Uiso   1.00
O676   O     0.32196   0.48826   0.43627   0.00000  Uiso   1.00
C677   C     0.49999   0.42068   0.50000   0.00000  Uiso   1.00
C678   C     0.49772   0.35457   0.54227   0.00000  Uiso   1.00
C679   C     0.50001   0.62393   0.49999   0.00000  Uiso   1.00
C680   C     0.49999   0.37607   0.50001   0.00000  Uiso   1.00
C681   C     0.46651   0.47576   0.35397   0.00000  Uiso   1.00
C682   C     0.53349   0.52424   0.64603   0.00000  Uiso   1.00
C683   C     0.46656   0.47574   0.63768   0.00000  Uiso   1.00
C684   C     0.53344   0.52426   0.36232   0.00000  Uiso   1.00
C685   C     0.65768   0.44556   0.42757   0.00000  Uiso   1.00
C686   C     0.62689   0.43588   0.37981   0.00000  Uiso   1.00
C687   C     0.34232   0.55444   0.57242   0.00000  Uiso   1.00
C688   C     0.50001   0.57932   0.50000   0.00000  Uiso   1.00
C689   C     0.37309   0.56412   0.62020   0.00000  Uiso   1.00
C690   C     0.40144   0.49940   0.48806   0.00000  Uiso   1.00
C691   C     0.59856   0.50060   0.51194   0.00000  Uiso   1.00
C692   C     0.34647   0.49639   0.48156   0.00000  Uiso   1.00
C693   C     0.65353   0.50361   0.51844   0.00000  Uiso   1.00
C694   C     0.50228   0.35467   0.45774   0.00000  Uiso   1.00
C695   C     0.49772   0.64533   0.54226   0.00000  Uiso   1.00
C696   C     0.50228   0.64543   0.45773   0.00000  Uiso   1.00
Cu697  Cu    0.50000   0.50001   0.54689   0.00000  Uiso   1.00
Cu698  Cu    0.50000   0.49999   0.45311   0.00000  Uiso   1.00
H699   H     0.50416   0.37073   0.42471   0.00000  Uiso   1.00
H700   H     0.36456   0.43567   0.42660   0.00000  Uiso   1.00
H701   H     0.64176   0.45404   0.35155   0.00000  Uiso   1.00
H702   H     0.62990   0.40260   0.37188   0.00000  Uiso   1.00
H703   H     0.58601   0.44353   0.38038   0.00000  Uiso   1.00
H704   H     0.63545   0.56434   0.57337   0.00000  Uiso   1.00
H705   H     0.35894   0.57251   0.54489   0.00000  Uiso   1.00
H706   H     0.41398   0.55646   0.61965   0.00000  Uiso   1.00
H707   H     0.37010   0.59740   0.62812   0.00000  Uiso   1.00
H708   H     0.35819   0.54597   0.64845   0.00000  Uiso   1.00
H709   H     0.49584   0.62927   0.57529   0.00000  Uiso   1.00
H710   H     0.50415   0.62944   0.42470   0.00000  Uiso   1.00
H711   H     0.49585   0.37056   0.57530   0.00000  Uiso   1.00
H712   H     0.43971   0.45633   0.36934   0.00000  Uiso   1.00
H713   H     0.56029   0.54367   0.63066   0.00000  Uiso   1.00
H714   H     0.43977   0.45632   0.61561   0.00000  Uiso   1.00
H715   H     0.56023   0.54368   0.38439   0.00000  Uiso   1.00
H716   H     0.64109   0.42748   0.45512   0.00000  Uiso   1.00
N717   N     0.50001   0.50001   0.61736   0.00000  Uiso   1.00
N718   N     0.49999   0.49999   0.38264   0.00000  Uiso   1.00
O719   O     0.50000   0.43989   0.53958   0.00000  Uiso   1.00
O720   O     0.34471   0.51174   0.56373   0.00000  Uiso   1.00
O721   O     0.50000   0.56011   0.46042   0.00000  Uiso   1.00
O722   O     0.50000   0.43988   0.46039   0.00000  Uiso   1.00
O723   O     0.50000   0.56012   0.53961   0.00000  Uiso   1.00
O724   O     0.42495   0.50000   0.53046   0.00000  Uiso   1.00
O725   O     0.57505   0.50000   0.46954   0.00000  Uiso   1.00
O726   O     0.42494   0.49999   0.45127   0.00000  Uiso   1.00
O727   O     0.57506   0.50001   0.54873   0.00000  Uiso   1.00
O728   O     0.65529   0.48826   0.43627   0.00000  Uiso   1.00
C729   C     0.83332   0.42068   0.50000   0.00000  Uiso   1.00
C730   C     0.83105   0.35457   0.54227   0.00000  Uiso   1.00
C731   C     0.83334   0.62393   0.49999   0.00000  Uiso   1.00
C732   C     0.83333   0.37607   0.50001   0.00000  Uiso   1.00
C733   C     0.79984   0.47576   0.35397   0.00000  Uiso   1.00
C734   C     0.86683   0.52424   0.64603   0.00000  Uiso   1.00
C735   C     0.79989   0.47574   0.63768   0.00000  Uiso   1.00
C736   C     0.86677   0.52426   0.36232   0.00000  Uiso   1.00
C737   C     0.99102   0.44556   0.42757   0.00000  Uiso   1.00
C738   C     0.96023   0.43588   0.37981   0.00000  Uiso   1.00
C739   C     0.67566   0.55444   0.57242   0.00000  Uiso   1.00
C740   C     0.83335   0.57932   0.50000   0.00000  Uiso   1.00
C741   C     0.70642   0.56412   0.62020   0.00000  Uiso   1.00
C742   C     0.73478   0.49940   0.48806   0.00000  Uiso   1.00
C743   C     0.93189   0.50060   0.51194   0.00000  Uiso   1.00
C744   C     0.67981   0.49639   0.48156   0.00000  Uiso   1.00
C745   C     0.98686   0.50361   0.51844   0.00000  Uiso   1.00
C746   C     0.83561   0.35467   0.45774   0.00000  Uiso   1.00
C747   C     0.83105   0.64533   0.54226   0.00000  Uiso   1.00
C748   C     0.83562   0.64543   0.45773   0.00000  Uiso   1.00
Cu749  Cu    0.83333   0.50001   0.54689   0.00000  Uiso   1.00
Cu750  Cu    0.83333   0.49999   0.45311   0.00000  Uiso   1.00
H751   H     0.83749   0.37073   0.42471   0.00000  Uiso   1.00
H752   H     0.69789   0.43567   0.42660   0.00000  Uiso   1.00
H753   H     0.97509   0.45404   0.35155   0.00000  Uiso   1.00
H754   H     0.96323   0.40260   0.37188   0.00000  Uiso   1.00
H755   H     0.91934   0.44353   0.38038   0.00000  Uiso   1.00
H756   H     0.96878   0.56434   0.57337   0.00000  Uiso   1.00
H757   H     0.69228   0.57251   0.54489   0.00000  Uiso   1.00
H758   H     0.74731   0.55646   0.61965   0.00000  Uiso   1.00
H759   H     0.70343   0.59740   0.62812   0.00000  Uiso   1.00
H760   H     0.69152   0.54597   0.64845   0.00000  Uiso   1.00
H761   H     0.82918   0.62927   0.57529   0.00000  Uiso   1.00
H762   H     0.83749   0.62944   0.42470   0.00000  Uiso   1.00
H763   H     0.82918   0.37056   0.57530   0.00000  Uiso   1.00
H764   H     0.77304   0.45633   0.36934   0.00000  Uiso   1.00
H765   H     0.89362   0.54367   0.63066   0.00000  Uiso   1.00
H766   H     0.77310   0.45632   0.61561   0.00000  Uiso   1.00
H767   H     0.89356   0.54368   0.38439   0.00000  Uiso   1.00
H768   H     0.97442   0.42748   0.45512   0.00000  Uiso   1.00
N769   N     0.83335   0.50001   0.61736   0.00000  Uiso   1.00
N770   N     0.83332   0.49999   0.38264   0.00000  Uiso   1.00
O771   O     0.83333   0.43989   0.53958   0.00000  Uiso   1.00
O772   O     0.67804   0.51174   0.56373   0.00000  Uiso   1.00
O773   O     0.83334   0.56011   0.46042   0.00000  Uiso   1.00
O774   O     0.83333   0.43988   0.46039   0.00000  Uiso   1.00
O775   O     0.83334   0.56012   0.53961   0.00000  Uiso   1.00
O776   O     0.75828   0.50000   0.53046   0.00000  Uiso   1.00
O777   O     0.90839   0.50000   0.46954   0.00000  Uiso   1.00
O778   O     0.75828   0.49999   0.45127   0.00000  Uiso   1.00
O779   O     0.90839   0.50001   0.54873   0.00000  Uiso   1.00
O780   O     0.98863   0.48826   0.43627   0.00000  Uiso   1.00
C781   C     0.16665   0.75402   0.50000   0.00000  Uiso   1.00
C782   C     0.16438   0.68791   0.54227   0.00000  Uiso   1.00
C783   C     0.16667   0.95726   0.49999   0.00000  Uiso   1.00
C784   C     0.16666   0.70941   0.50001   0.00000  Uiso   1.00
C785   C     0.13317   0.80909   0.35397   0.00000  Uiso   1.00
C786   C     0.20016   0.85757   0.64603   0.00000  Uiso   1.00
C787   C     0.13323   0.80907   0.63768   0.00000  Uiso   1.00
C788   C     0.20011   0.85760   0.36232   0.00000  Uiso   1.00
C789   C     0.32435   0.77889   0.42757   0.00000  Uiso   1.00
C790   C     0.29356   0.76922   0.37981   0.00000  Uiso   1.00
C791   C     0.00899   0.88778   0.57242   0.00000  Uiso   1.00
C792   C     0.16668   0.91265   0.50000   0.00000  Uiso   1.00
C793   C     0.03975   0.89745   0.62020   0.00000  Uiso   1.00
C794   C     0.06811   0.83273   0.48806   0.00000  Uiso   1.00
C795   C     0.26522   0.83394   0.51194   0.00000  Uiso   1.00
C796   C     0.01314   0.82972   0.48156   0.00000  Uiso   1.00
C797   C     0.32019   0.83694   0.51844   0.00000  Uiso   1.00
C798   C     0.16895   0.68800   0.45774   0.00000  Uiso   1.00
C799   C     0.16439   0.97866   0.54226   0.00000  Uiso   1.00
C800   C     0.16895   0.97876   0.45773   0.00000  Uiso   1.00
Cu801  Cu    0.16667   0.83334   0.54689   0.00000  Uiso   1.00
Cu802  Cu    0.16667   0.83333   0.45311   0.00000  Uiso   1.00
H803   H     0.17082   0.70406   0.42471   0.00000  Uiso   1.00
H804   H     0.03122   0.76900   0.42660   0.00000  Uiso   1.00
H805   H     0.30843   0.78737   0.35155   0.00000  Uiso   1.00
H806   H     0.29656   0.73593   0.37188   0.00000  Uiso   1.00
H807   H     0.25267   0.77686   0.38038   0.00000  Uiso   1.00
H808   H     0.30212   0.89768   0.57337   0.00000  Uiso   1.00
H809   H     0.02561   0.90584   0.54489   0.00000  Uiso   1.00
H810   H     0.08064   0.88979   0.61965   0.00000  Uiso   1.00
H811   H     0.03676   0.93074   0.62812   0.00000  Uiso   1.00
H812   H     0.02486   0.87931   0.64845   0.00000  Uiso   1.00
H813   H     0.16251   0.96260   0.57529   0.00000  Uiso   1.00
H814   H     0.17082   0.96278   0.42470   0.00000  Uiso   1.00
H815   H     0.16251   0.70389   0.57530   0.00000  Uiso   1.00
H816   H     0.10638   0.78967   0.36934   0.00000  Uiso   1.00
H817   H     0.22696   0.87700   0.63066   0.00000  Uiso   1.00
H818   H     0.10644   0.78965   0.61561   0.00000  Uiso   1.00
H819   H     0.22690   0.87701   0.38439   0.00000  Uiso   1.00
H820   H     0.30776   0.76082   0.45512   0.00000  Uiso   1.00
N821   N     0.16668   0.83334   0.61736   0.00000  Uiso   1.00
N822   N     0.16665   0.83332   0.38264   0.00000  Uiso   1.00
O823   O     0.16666   0.77322   0.53958   0.00000  Uiso   1.00
O824   O     0.01137   0.84507   0.56373   0.00000  Uiso   1.00
O825   O     0.16667   0.89345   0.46042   0.00000  Uiso   1.00
O826   O     0.16666   0.77321   0.46039   0.00000  Uiso   1.00
O827   O     0.16667   0.89346   0.53961   0.00000  Uiso   1.00
O828   O     0.09161   0.83334   0.53046   0.00000  Uiso   1.00
O829   O     0.24172   0.83333   0.46954   0.00000  Uiso   1.00
O830   O     0.09161   0.83333   0.45127   0.00000  Uiso   1.00
O831   O     0.24172   0.83334   0.54873   0.00000  Uiso   1.00
O832   O     0.32196   0.82160   0.43627   0.00000  Uiso   1.00
C833   C     0.49999   0.75402   0.50000   0.00000  Uiso   1.00
C834   C     0.49772   0.68791   0.54227   0.00000  Uiso   1.00
C835   C     0.50001   0.95726   0.49999   0.00000  Uiso   1.00
C836   C     0.49999   0.70941   0.50001   0.00000  Uiso   1.00
C837   C     0.46651   0.80909   0.35397   0.00000  Uiso   1.00
C838   C     0.53349   0.85757   0.64603   0.00000  Uiso   1.00
C839   C     0.46656   0.80907   0.63768   0.00000  Uiso   1.00
C840   C     0.53344   0.85760   0.36232   0.00000  Uiso   1.00
C841   C     0.65768   0.77889   0.42757   0.00000  Uiso   1.00
C842   C     0.62689   0.76922   0.37981   0.00000  Uiso   1.00
C843   C     0.34232   0.88778   0.57242   0.00000  Uiso   1.00
C844   C     0.50001   0.91265   0.50000   0.00000  Uiso   1.00
C845   C     0.37309   0.89745   0.62020   0.00000  Uiso   1.00
C846   C     0.40144   0.83273   0.48806   0.00000  Uiso   1.00
C847   C     0.59856   0.83394   0.51194   0.00000  Uiso   1.00
C848   C     0.34647   0.82972   0.48156   0.00000  Uiso   1.00
C849   C     0.65353   0.83694   0.51844   0.00000  Uiso   1.00
C850   C     0.50228   0.68800   0.45774   0.00000  Uiso   1.00
C851   C     0.49772   0.97866   0.54226   0.00000  Uiso   1.00
C852   C     0.50228   0.97876   0.45773   0.00000  Uiso   1.00
Cu853  Cu    0.50000   0.83334   0.54689   0.00000  Uiso   1.00
Cu854  Cu    0.50000   0.83333   0.45311   0.00000  Uiso   1.00
H855   H     0.50416   0.70406   0.42471   0.00000  Uiso   1.00
H856   H     0.36456   0.76900   0.42660   0.00000  Uiso   1.00
H857   H     0.64176   0.78737   0.35155   0.00000  Uiso   1.00
H858   H     0.62990   0.73593   0.37188   0.00000  Uiso   1.00
H859   H     0.58601   0.77686   0.38038   0.00000  Uiso   1.00
H860   H     0.63545   0.89768   0.57337   0.00000  Uiso   1.00
H861   H     0.35894   0.90584   0.54489   0.00000  Uiso   1.00
H862   H     0.41398   0.88979   0.61965   0.00000  Uiso   1.00
H863   H     0.37010   0.93074   0.62812   0.00000  Uiso   1.00
H864   H     0.35819   0.87931   0.64845   0.00000  Uiso   1.00
H865   H     0.49584   0.96260   0.57529   0.00000  Uiso   1.00
H866   H     0.50415   0.96278   0.42470   0.00000  Uiso   1.00
H867   H     0.49585   0.70389   0.57530   0.00000  Uiso   1.00
H868   H     0.43971   0.78967   0.36934   0.00000  Uiso   1.00
H869   H     0.56029   0.87700   0.63066   0.00000  Uiso   1.00
H870   H     0.43977   0.78965   0.61561   0.00000  Uiso   1.00
H871   H     0.56023   0.87701   0.38439   0.00000  Uiso   1.00
H872   H     0.64109   0.76082   0.45512   0.00000  Uiso   1.00
N873   N     0.50001   0.83334   0.61736   0.00000  Uiso   1.00
N874   N     0.49999   0.83332   0.38264   0.00000  Uiso   1.00
O875   O     0.50000   0.77322   0.53958   0.00000  Uiso   1.00
O876   O     0.34471   0.84507   0.56373   0.00000  Uiso   1.00
O877   O     0.50000   0.89345   0.46042   0.00000  Uiso   1.00
O878   O     0.50000   0.77321   0.46039   0.00000  Uiso   1.00
O879   O     0.50000   0.89346   0.53961   0.00000  Uiso   1.00
O880   O     0.42495   0.83334   0.53046   0.00000  Uiso   1.00
O881   O     0.57505   0.83333   0.46954   0.00000  Uiso   1.00
O882   O     0.42494   0.83333   0.45127   0.00000  Uiso   1.00
O883   O     0.57506   0.83334   0.54873   0.00000  Uiso   1.00
O884   O     0.65529   0.82160   0.43627   0.00000  Uiso   1.00
C885   C     0.83332   0.75402   0.50000   0.00000  Uiso   1.00
C886   C     0.83105   0.68791   0.54227   0.00000  Uiso   1.00
C887   C     0.83334   0.95726   0.49999   0.00000  Uiso   1.00
C888   C     0.83333   0.70941   0.50001   0.00000  Uiso   1.00
C889   C     0.79984   0.80909   0.35397   0.00000  Uiso   1.00
C890   C     0.86683   0.85757   0.64603   0.00000  Uiso   1.00
C891   C     0.79989   0.80907   0.63768   0.00000  Uiso   1.00
C892   C     0.86677   0.85760   0.36232   0.00000  Uiso   1.00
C893   C     0.99102   0.77889   0.42757   0.00000  Uiso   1.00
C894   C     0.96023   0.76922   0.37981   0.00000  Uiso   1.00
C895   C     0.67566   0.88778   0.57242   0.00000  Uiso   1.00
C896   C     0.83335   0.91265   0.50000   0.00000  Uiso   1.00
C897   C     0.70642   0.89745   0.62020   0.00000  Uiso   1.00
C898   C     0.73478   0.83273   0.48806   0.00000  Uiso   1.00
C899   C     0.93189   0.83394   0.51194   0.00000  Uiso   1.00
C900   C     0.67981   0.82972   0.48156   0.00000  Uiso   1.00
C901   C     0.98686   0.83694   0.51844   0.00000  Uiso   1.00
C902   C     0.83561   0.68800   0.45774   0.00000  Uiso   1.00
C903   C     0.83105   0.97866   0.54226   0.00000  Uiso   1.00
C904   C     0.83562   0.97876   0.45773   0.00000  Uiso   1.00
Cu905  Cu    0.83333   0.83334   0.54689   0.00000  Uiso   1.00
Cu906  Cu    0.83333   0.83333   0.45311   0.00000  Uiso   1.00
H907   H     0.83749   0.70406   0.42471   0.00000  Uiso   1.00
H908   H     0.69789   0.76900   0.42660   0.00000  Uiso   1.00
H909   H     0.97509   0.78737   0.35155   0.00000  Uiso   1.00
H910   H     0.96323   0.73593   0.37188   0.00000  Uiso   1.00
H911   H     0.91934   0.77686   0.38038   0.00000  Uiso   1.00
H912   H     0.96878   0.89768   0.57337   0.00000  Uiso   1.00
H913   H     0.69228   0.90584   0.54489   0.00000  Uiso   1.00
H914   H     0.74731   0.88979   0.61965   0.00000  Uiso   1.00
H915   H     0.70343   0.93074   0.62812   0.00000  Uiso   1.00
H916   H     0.69152   0.87931   0.64845   0.00000  Uiso   1.00
H917   H     0.82918   0.96260   0.57529   0.00000  Uiso   1.00
H918   H     0.83749   0.96278   0.42470   0.00000  Uiso   1.00
H919   H     0.82918   0.70389   0.57530   0.00000  Uiso   1.00
H920   H     0.77304   0.78967   0.36934   0.00000  Uiso   1.00
H921   H     0.89362   0.87700   0.63066   0.00000  Uiso   1.00
H922   H     0.77310   0.78965   0.61561   0.00000  Uiso   1.00
H923   H     0.89356   0.87701   0.38439   0.00000  Uiso   1.00
H924   H     0.97442   0.76082   0.45512   0.00000  Uiso   1.00
N925   N     0.83335   0.83334   0.61736   0.00000  Uiso   1.00
N926   N     0.83332   0.83332   0.38264   0.00000  Uiso   1.00
O927   O     0.83333   0.77322   0.53958   0.00000  Uiso   1.00
O928   O     0.67804   0.84507   0.56373   0.00000  Uiso   1.00
O929   O     0.83334   0.89345   0.46042   0.00000  Uiso   1.00
O930   O     0.83333   0.77321   0.46039   0.00000  Uiso   1.00
O931   O     0.83334   0.89346   0.53961   0.00000  Uiso   1.00
O932   O     0.75828   0.83334   0.53046   0.00000  Uiso   1.00
O933   O     0.90839   0.83333   0.46954   0.00000  Uiso   1.00
O934   O     0.75828   0.83333   0.45127   0.00000  Uiso   1.00
O935   O     0.90839   0.83334   0.54873   0.00000  Uiso   1.00
O936   O     0.98863   0.82160   0.43627   0.00000  Uiso   1.00
C937   C     0.16665   0.08735   0.83333   0.00000  Uiso   1.00
C938   C     0.16438   0.02124   0.87560   0.00000  Uiso   1.00
C939   C     0.16667   0.29059   0.83333   0.00000  Uiso   1.00
C940   C     0.16666   0.04274   0.83334   0.00000  Uiso   1.00
C941   C     0.13317   0.14243   0.68730   0.00000  Uiso   1.00
C942   C     0.20016   0.19091   0.97937   0.00000  Uiso   1.00
C943   C     0.13323   0.14240   0.97101   0.00000  Uiso   1.00
C944   C     0.20011   0.19093   0.69566   0.00000  Uiso   1.00
C945   C     0.32435   0.11222   0.76091   0.00000  Uiso   1.00
C946   C     0.29356   0.10255   0.71314   0.00000  Uiso   1.00
C947   C     0.00899   0.22111   0.90575   0.00000  Uiso   1.00
C948   C     0.16668   0.24598   0.83333   0.00000  Uiso   1.00
C949   C     0.03975   0.23078   0.95354   0.00000  Uiso   1.00
C950   C     0.06811   0.16606   0.82140   0.00000  Uiso   1.00
C951   C     0.26522   0.16727   0.84527   0.00000  Uiso   1.00
C952   C     0.01314   0.16306   0.81490   0.00000  Uiso   1.00
C953   C     0.32019   0.17028   0.85177   0.00000  Uiso   1.00
C954   C     0.16895   0.02134   0.79107   0.00000  Uiso   1.00
C955   C     0.16439   0.31200   0.87560   0.00000  Uiso   1.00
C956   C     0.16895   0.31209   0.79106   0.00000  Uiso   1.00
Cu957  Cu    0.16667   0.16667   0.88022   0.00000  Uiso   1.00
Cu958  Cu    0.16667   0.16666   0.78645   0.00000  Uiso   1.00
H959   H     0.17082   0.03740   0.75804   0.00000  Uiso   1.00
H960   H     0.03122   0.10234   0.75993   0.00000  Uiso   1.00
H961   H     0.30843   0.12070   0.68488   0.00000  Uiso   1.00
H962   H     0.29656   0.06927   0.70521   0.00000  Uiso   1.00
H963   H     0.25267   0.11019   0.71372   0.00000  Uiso   1.00
H964   H     0.30212   0.23101   0.90670   0.00000  Uiso   1.00
H965   H     0.02561   0.23918   0.87822   0.00000  Uiso   1.00
H966   H     0.08064   0.22312   0.95298   0.00000  Uiso   1.00
H967   H     0.03676   0.26407   0.96146   0.00000  Uiso   1.00
H968   H     0.02486   0.21264   0.98179   0.00000  Uiso   1.00
H969   H     0.16251   0.29593   0.90862   0.00000  Uiso   1.00
H970   H     0.17082   0.29611   0.75804   0.00000  Uiso   1.00
H971   H     0.16251   0.03722   0.90863   0.00000  Uiso   1.00
H972   H     0.10638   0.12300   0.70268   0.00000  Uiso   1.00
H973   H     0.22696   0.21033   0.96399   0.00000  Uiso   1.00
H974   H     0.10644   0.12299   0.94894   0.00000  Uiso   1.00
H975   H     0.22690   0.21035   0.71773   0.00000  Uiso   1.00
H976   H     0.30776   0.09415   0.78845   0.00000  Uiso   1.00
N977   N     0.16668   0.16668   0.95069   0.00000  Uiso   1.00
N978   N     0.16665   0.16666   0.71597   0.00000  Uiso   1.00
O979   O     0.16666   0.10655   0.87291   0.00000  Uiso   1.00
O980   O     0.01137   0.17840   0.89706   0.00000  Uiso   1.00
O981   O     0.16667   0.22678   0.79375   0.00000  Uiso   1.00
O982   O     0.16666   0.10654   0.79372   0.00000  Uiso   1.00
O983   O     0.16667   0.22679   0.87294   0.00000  Uiso   1.00
O984   O     0.09161   0.16667   0.86379   0.00000  Uiso   1.00
O985   O     0.24172   0.16666   0.80288   0.00000  Uiso   1.00
O986   O     0.09161   0.16666   0.78460   0.00000  Uiso   1.00
O987   O     0.24172   0.16667   0.88207   0.00000  Uiso   1.00
O988   O     0.32196   0.15493   0.76960   0.00000  Uiso   1.00
C989   C     0.49999   0.08735   0.83333   0.00000  Uiso   1.00
C990   C     0.49772   0.02124   0.87560   0.00000  Uiso   1.00
C991   C     0.50001   0.29059   0.83333   0.00000  Uiso   1.00
C992   C     0.49999   0.04274   0.83334   0.00000  Uiso   1.00
C993   C     0.46651   0.14243   0.68730   0.00000  Uiso   1.00
C994   C     0.53349   0.19091   0.97937   0.00000  Uiso   1.00
C995   C     0.46656   0.14240   0.97101   0.00000  Uiso   1.00
C996   C     0.53344   0.19093   0.69566   0.00000  Uiso   1.00
C997   C     0.65768   0.11222   0.76091   0.00000  Uiso   1.00
C998   C     0.62689   0.10255   0.71314   0.00000  Uiso   1.00
C999   C     0.34232   0.22111   0.90575   0.00000  Uiso   1.00
C1000  C     0.50001   0.24598   0.83333   0.00000  Uiso   1.00
C1001  C     0.37309   0.23078   0.95354   0.00000  Uiso   1.00
C1002  C     0.40144   0.16606   0.82140   0.00000  Uiso   1.00
C1003  C     0.59856   0.16727   0.84527   0.00000  Uiso   1.00
C1004  C     0.34647   0.16306   0.81490   0.00000  Uiso   1.00
C1005  C     0.65353   0.17028   0.85177   0.00000  Uiso   1.00
C1006  C     0.50228   0.02134   0.79107   0.00000  Uiso   1.00
C1007  C     0.49772   0.31200   0.87560   0.00000  Uiso   1.00
C1008  C     0.50228   0.31209   0.79106   0.00000  Uiso   1.00
Cu1009 Cu    0.50000   0.16667   0.88022   0.00000  Uiso   1.00
Cu1010 Cu    0.50000   0.16666   0.78645   0.00000  Uiso   1.00
H1011  H     0.50416   0.03740   0.75804   0.00000  Uiso   1.00
H1012  H     0.36456   0.10234   0.75993   0.00000  Uiso   1.00
H1013  H     0.64176   0.12070   0.68488   0.00000  Uiso   1.00
H1014  H     0.62990   0.06927   0.70521   0.00000  Uiso   1.00
H1015  H     0.58601   0.11019   0.71372   0.00000  Uiso   1.00
H1016  H     0.63545   0.23101   0.90670   0.00000  Uiso   1.00
H1017  H     0.35894   0.23918   0.87822   0.00000  Uiso   1.00
H1018  H     0.41398   0.22312   0.95298   0.00000  Uiso   1.00
H1019  H     0.37010   0.26407   0.96146   0.00000  Uiso   1.00
H1020  H     0.35819   0.21264   0.98179   0.00000  Uiso   1.00
H1021  H     0.49584   0.29593   0.90862   0.00000  Uiso   1.00
H1022  H     0.50415   0.29611   0.75804   0.00000  Uiso   1.00
H1023  H     0.49585   0.03722   0.90863   0.00000  Uiso   1.00
H1024  H     0.43971   0.12300   0.70268   0.00000  Uiso   1.00
H1025  H     0.56029   0.21033   0.96399   0.00000  Uiso   1.00
H1026  H     0.43977   0.12299   0.94894   0.00000  Uiso   1.00
H1027  H     0.56023   0.21035   0.71773   0.00000  Uiso   1.00
H1028  H     0.64109   0.09415   0.78845   0.00000  Uiso   1.00
N1029  N     0.50001   0.16668   0.95069   0.00000  Uiso   1.00
N1030  N     0.49999   0.16666   0.71597   0.00000  Uiso   1.00
O1031  O     0.50000   0.10655   0.87291   0.00000  Uiso   1.00
O1032  O     0.34471   0.17840   0.89706   0.00000  Uiso   1.00
O1033  O     0.50000   0.22678   0.79375   0.00000  Uiso   1.00
O1034  O     0.50000   0.10654   0.79372   0.00000  Uiso   1.00
O1035  O     0.50000   0.22679   0.87294   0.00000  Uiso   1.00
O1036  O     0.42495   0.16667   0.86379   0.00000  Uiso   1.00
O1037  O     0.57505   0.16666   0.80288   0.00000  Uiso   1.00
O1038  O     0.42494   0.16666   0.78460   0.00000  Uiso   1.00
O1039  O     0.57506   0.16667   0.88207   0.00000  Uiso   1.00
O1040  O     0.65529   0.15493   0.76960   0.00000  Uiso   1.00
C1041  C     0.83332   0.08735   0.83333   0.00000  Uiso   1.00
C1042  C     0.83105   0.02124   0.87560   0.00000  Uiso   1.00
C1043  C     0.83334   0.29059   0.83333   0.00000  Uiso   1.00
C1044  C     0.83333   0.04274   0.83334   0.00000  Uiso   1.00
C1045  C     0.79984   0.14243   0.68730   0.00000  Uiso   1.00
C1046  C     0.86683   0.19091   0.97937   0.00000  Uiso   1.00
C1047  C     0.79989   0.14240   0.97101   0.00000  Uiso   1.00
C1048  C     0.86677   0.19093   0.69566   0.00000  Uiso   1.00
C1049  C     0.99102   0.11222   0.76091   0.00000  Uiso   1.00
C1050  C     0.96023   0.10255   0.71314   0.00000  Uiso   1.00
C1051  C     0.67566   0.22111   0.90575   0.00000  Uiso   1.00
C1052  C     0.83335   0.24598   0.83333   0.00000  Uiso   1.00
C1053  C     0.70642   0.23078   0.95354   0.00000  Uiso   1.00
C1054  C     0.73478   0.16606   0.82140   0.00000  Uiso   1.00
C1055  C     0.93189   0.16727   0.84527   0.00000  Uiso   1.00
C1056  C     0.67981   0.16306   0.81490   0.00000  Uiso   1.00
C1057  C     0.98686   0.17028   0.85177   0.00000  Uiso   1.00
C1058  C     0.83561   0.02134   0.79107   0.00000  Uiso   1.00
C1059  C     0.83105   0.31200   0.87560   0.00000  Uiso   1.00
C1060  C     0.83562   0.31209   0.79106   0.00000  Uiso   1.00
Cu1061 Cu    0.83333   0.16667   0.88022   0.00000  Uiso   1.00
Cu1062 Cu    0.83333   0.16666   0.78645   0.00000  Uiso   1.00
H1063  H     0.83749   0.03740   0.75804   0.00000  Uiso   1.00
H1064  H     0.69789   0.10234   0.75993   0.00000  Uiso   1.00
H1065  H     0.97509   0.12070   0.68488   0.00000  Uiso   1.00
H1066  H     0.96323   0.06927   0.70521   0.00000  Uiso   1.00
H1067  H     0.91934   0.11019   0.71372   0.00000  Uiso   1.00
H1068  H     0.96878   0.23101   0.90670   0.00000  Uiso   1.00
H1069  H     0.69228   0.23918   0.87822   0.00000  Uiso   1.00
H1070  H     0.74731   0.22312   0.95298   0.00000  Uiso   1.00
H1071  H     0.70343   0.26407   0.96146   0.00000  Uiso   1.00
H1072  H     0.69152   0.21264   0.98179   0.00000  Uiso   1.00
H1073  H     0.82918   0.29593   0.90862   0.00000  Uiso   1.00
H1074  H     0.83749   0.29611   0.75804   0.00000  Uiso   1.00
H1075  H     0.82918   0.03722   0.90863   0.00000  Uiso   1.00
H1076  H     0.77304   0.12300   0.70268   0.00000  Uiso   1.00
H1077  H     0.89362   0.21033   0.96399   0.00000  Uiso   1.00
H1078  H     0.77310   0.12299   0.94894   0.00000  Uiso   1.00
H1079  H     0.89356   0.21035   0.71773   0.00000  Uiso   1.00
H1080  H     0.97442   0.09415   0.78845   0.00000  Uiso   1.00
N1081  N     0.83335   0.16668   0.95069   0.00000  Uiso   1.00
N1082  N     0.83332   0.16666   0.71597   0.00000  Uiso   1.00
O1083  O     0.83333   0.10655   0.87291   0.00000  Uiso   1.00
O1084  O     0.67804   0.17840   0.89706   0.00000  Uiso   1.00
O1085  O     0.83334   0.22678   0.79375   0.00000  Uiso   1.00
O1086  O     0.83333   0.10654   0.79372   0.00000  Uiso   1.00
O1087  O     0.83334   0.22679   0.87294   0.00000  Uiso   1.00
O1088  O     0.75828   0.16667   0.86379   0.00000  Uiso   1.00
O1089  O     0.90839   0.16666   0.80288   0.00000  Uiso   1.00
O1090  O     0.75828   0.16666   0.78460   0.00000  Uiso   1.00
O1091  O     0.90839   0.16667   0.88207   0.00000  Uiso   1.00
O1092  O     0.98863   0.15493   0.76960   0.00000  Uiso   1.00
C1093  C     0.16665   0.42068   0.83333   0.00000  Uiso   1.00
C1094  C     0.16438   0.35457   0.87560   0.00000  Uiso   1.00
C1095  C     0.16667   0.62393   0.83333   0.00000  Uiso   1.00
C1096  C     0.16666   0.37607   0.83334   0.00000  Uiso   1.00
C1097  C     0.13317   0.47576   0.68730   0.00000  Uiso   1.00
C1098  C     0.20016   0.52424   0.97937   0.00000  Uiso   1.00
C1099  C     0.13323   0.47574   0.97101   0.00000  Uiso   1.00
C1100  C     0.20011   0.52426   0.69566   0.00000  Uiso   1.00
C1101  C     0.32435   0.44556   0.76091   0.00000  Uiso   1.00
C1102  C     0.29356   0.43588   0.71314   0.00000  Uiso   1.00
C1103  C     0.00899   0.55444   0.90575   0.00000  Uiso   1.00
C1104  C     0.16668   0.57932   0.83333   0.00000  Uiso   1.00
C1105  C     0.03975   0.56412   0.95354   0.00000  Uiso   1.00
C1106  C     0.06811   0.49940   0.82140   0.00000  Uiso   1.00
C1107  C     0.26522   0.50060   0.84527   0.00000  Uiso   1.00
C1108  C     0.01314   0.49639   0.81490   0.00000  Uiso   1.00
C1109  C     0.32019   0.50361   0.85177   0.00000  Uiso   1.00
C1110  C     0.16895   0.35467   0.79107   0.00000  Uiso   1.00
C1111  C     0.16439   0.64533   0.87560   0.00000  Uiso   1.00
C1112  C     0.16895   0.64543   0.79106   0.00000  Uiso   1.00
Cu1113 Cu    0.16667   0.50001   0.88022   0.00000  Uiso   1.00
Cu1114 Cu    0.16667   0.49999   0.78645   0.00000  Uiso   1.00
H1115  H     0.17082   0.37073   0.75804   0.00000  Uiso   1.00
H1116  H     0.03122   0.43567   0.75993   0.00000  Uiso   1.00
H1117  H     0.30843   0.45404   0.68488   0.00000  Uiso   1.00
H1118  H     0.29656   0.40260   0.70521   0.00000  Uiso   1.00
H1119  H     0.25267   0.44353   0.71372   0.00000  Uiso   1.00
H1120  H     0.30212   0.56434   0.90670   0.00000  Uiso   1.00
H1121  H     0.02561   0.57251   0.87822   0.00000  Uiso   1.00
H1122  H     0.08064   0.55646   0.95298   0.00000  Uiso   1.00
H1123  H     0.03676   0.59740   0.96146   0.00000  Uiso   1.00
H1124  H     0.02486   0.54597   0.98179   0.00000  Uiso   1.00
H1125  H     0.16251   0.62927   0.90862   0.00000  Uiso   1.00
H1126  H     0.17082   0.62944   0.75804   0.00000  Uiso   1.00
H1127  H     0.16251   0.37056   0.90863   0.00000  Uiso   1.00
H1128  H     0.10638   0.45633   0.70268   0.00000  Uiso   1.00
H1129  H     0.22696   0.54367   0.96399   0.00000  Uiso   1.00
H1130  H     0.10644   0.45632   0.94894   0.00000  Uiso   1.00
H1131  H     0.22690   0.54368   0.71773   0.00000  Uiso   1.00
H1132  H     0.30776   0.42748   0.78845   0.00000  Uiso   1.00
N1133  N     0.16668   0.50001   0.95069   0.00000  Uiso   1.00
N1134  N     0.16665   0.49999   0.71597   0.00000  Uiso   1.00
O1135  O     0.16666   0.43989   0.87291   0.00000  Uiso   1.00
O1136  O     0.01137   0.51174   0.89706   0.00000  Uiso   1.00
O1137  O     0.16667   0.56011   0.79375   0.00000  Uiso   1.00
O1138  O     0.16666   0.43988   0.79372   0.00000  Uiso   1.00
O1139  O     0.16667   0.56012   0.87294   0.00000  Uiso   1.00
O1140  O     0.09161   0.50000   0.86379   0.00000  Uiso   1.00
O1141  O     0.24172   0.50000   0.80288   0.00000  Uiso   1.00
O1142  O     0.09161   0.49999   0.78460   0.00000  Uiso   1.00
O1143  O     0.24172   0.50001   0.88207   0.00000  Uiso   1.00
O1144  O     0.32196   0.48826   0.76960   0.00000  Uiso   1.00
C1145  C     0.49999   0.42068   0.83333   0.00000  Uiso   1.00
C1146  C     0.49772   0.35457   0.87560   0.00000  Uiso   1.00
C1147  C     0.50001   0.62393   0.83333   0.00000  Uiso   1.00
C1148  C     0.49999   0.37607   0.83334   0.00000  Uiso   1.00
C1149  C     0.46651   0.47576   0.68730   0.00000  Uiso   1.00
C1150  C     0.53349   0.52424   0.97937   0.00000  Uiso   1.00
C1151  C     0.46656   0.47574   0.97101   0.00000  Uiso   1.00
C1152  C     0.53344   0.52426   0.69566   0.00000  Uiso   1.00
C1153  C     0.65768   0.44556   0.76091   0.00000  Uiso   1.00
C1154  C     0.62689   0.43588   0.71314   0.00000  Uiso   1.00
C1155  C     0.34232   0.55444   0.90575   0.00000  Uiso   1.00
C1156  C     0.50001   0.57932   0.83333   0.00000  Uiso   1.00
C1157  C     0.37309   0.56412   0.95354   0.00000  Uiso   1.00
C1158  C     0.40144   0.49940   0.82140   0.00000  Uiso   1.00
C1159  C     0.59856   0.50060   0.84527   0.00000  Uiso   1.00
C1160  C     0.34647   0.49639   0.81490   0.00000  Uiso   1.00
C1161  C     0.65353   0.50361   0.85177   0.00000  Uiso   1.00
C1162  C     0.50228   0.35467   0.79107   0.00000  Uiso   1.00
C1163  C     0.49772   0.64533   0.87560   0.00000  Uiso   1.00
C1164  C     0.50228   0.64543   0.79106   0.00000  Uiso   1.00
Cu1165 Cu    0.50000   0.50001   0.88022   0.00000  Uiso   1.00
Cu1166 Cu    0.50000   0.49999   0.78645   0.00000  Uiso   1.00
H1167  H     0.50416   0.37073   0.75804   0.00000  Uiso   1.00
H1168  H     0.36456   0.43567   0.75993   0.00000  Uiso   1.00
H1169  H     0.64176   0.45404   0.68488   0.00000  Uiso   1.00
H1170  H     0.62990   0.40260   0.70521   0.00000  Uiso   1.00
H1171  H     0.58601   0.44353   0.71372   0.00000  Uiso   1.00
H1172  H     0.63545   0.56434   0.90670   0.00000  Uiso   1.00
H1173  H     0.35894   0.57251   0.87822   0.00000  Uiso   1.00
H1174  H     0.41398   0.55646   0.95298   0.00000  Uiso   1.00
H1175  H     0.37010   0.59740   0.96146   0.00000  Uiso   1.00
H1176  H     0.35819   0.54597   0.98179   0.00000  Uiso   1.00
H1177  H     0.49584   0.62927   0.90862   0.00000  Uiso   1.00
H1178  H     0.50415   0.62944   0.75804   0.00000  Uiso   1.00
H1179  H     0.49585   0.37056   0.90863   0.00000  Uiso   1.00
H1180  H     0.43971   0.45633   0.70268   0.00000  Uiso   1.00
H1181  H     0.56029   0.54367   0.96399   0.00000  Uiso   1.00
H1182  H     0.43977   0.45632   0.94894   0.00000  Uiso   1.00
H1183  H     0.56023   0.54368   0.71773   0.00000  Uiso   1.00
H1184  H     0.64109   0.42748   0.78845   0.00000  Uiso   1.00
N1185  N     0.50001   0.50001   0.95069   0.00000  Uiso   1.00
N1186  N     0.49999   0.49999   0.71597   0.00000  Uiso   1.00
O1187  O     0.50000   0.43989   0.87291   0.00000  Uiso   1.00
O1188  O     0.34471   0.51174   0.89706   0.00000  Uiso   1.00
O1189  O     0.50000   0.56011   0.79375   0.00000  Uiso   1.00
O1190  O     0.50000   0.43988   0.79372   0.00000  Uiso   1.00
O1191  O     0.50000   0.56012   0.87294   0.00000  Uiso   1.00
O1192  O     0.42495   0.50000   0.86379   0.00000  Uiso   1.00
O1193  O     0.57505   0.50000   0.80288   0.00000  Uiso   1.00
O1194  O     0.42494   0.49999   0.78460   0.00000  Uiso   1.00
O1195  O     0.57506   0.50001   0.88207   0.00000  Uiso   1.00
O1196  O     0.65529   0.48826   0.76960   0.00000  Uiso   1.00
C1197  C     0.83332   0.42068   0.83333   0.00000  Uiso   1.00
C1198  C     0.83105   0.35457   0.87560   0.00000  Uiso   1.00
C1199  C     0.83334   0.62393   0.83333   0.00000  Uiso   1.00
C1200  C     0.83333   0.37607   0.83334   0.00000  Uiso   1.00
C1201  C     0.79984   0.47576   0.68730   0.00000  Uiso   1.00
C1202  C     0.86683   0.52424   0.97937   0.00000  Uiso   1.00
C1203  C     0.79989   0.47574   0.97101   0.00000  Uiso   1.00
C1204  C     0.86677   0.52426   0.69566   0.00000  Uiso   1.00
C1205  C     0.99102   0.44556   0.76091   0.00000  Uiso   1.00
C1206  C     0.96023   0.43588   0.71314   0.00000  Uiso   1.00
C1207  C     0.67566   0.55444   0.90575   0.00000  Uiso   1.00
C1208  C     0.83335   0.57932   0.83333   0.00000  Uiso   1.00
C1209  C     0.70642   0.56412   0.95354   0.00000  Uiso   1.00
C1210  C     0.73478   0.49940   0.82140   0.00000  Uiso   1.00
C1211  C     0.93189   0.50060   0.84527   0.00000  Uiso   1.00
C1212  C     0.67981   0.49639   0.81490   0.00000  Uiso   1.00
C1213  C     0.98686   0.50361   0.85177   0.00000  Uiso   1.00
C1214  C     0.83561   0.35467   0.79107   0.00000  Uiso   1.00
C1215  C     0.83105   0.64533   0.87560   0.00000  Uiso   1.00
C1216  C     0.83562   0.64543   0.79106   0.00000  Uiso   1.00
Cu1217 Cu    0.83333   0.50001   0.88022   0.00000  Uiso   1.00
Cu1218 Cu    0.83333   0.49999   0.78645   0.00000  Uiso   1.00
H1219  H     0.83749   0.37073   0.75804   0.00000  Uiso   1.00
H1220  H     0.69789   0.43567   0.75993   0.00000  Uiso   1.00
H1221  H     0.97509   0.45404   0.68488   0.00000  Uiso   1.00
H1222  H     0.96323   0.40260   0.70521   0.00000  Uiso   1.00
H1223  H     0.91934   0.44353   0.71372   0.00000  Uiso   1.00
H1224  H     0.96878   0.56434   0.90670   0.00000  Uiso   1.00
H1225  H     0.69228   0.57251   0.87822   0.00000  Uiso   1.00
H1226  H     0.74731   0.55646   0.95298   0.00000  Uiso   1.00
H1227  H     0.70343   0.59740   0.96146   0.00000  Uiso   1.00
H1228  H     0.69152   0.54597   0.98179   0.00000  Uiso   1.00
H1229  H     0.82918   0.62927   0.90862   0.00000  Uiso   1.00
H1230  H     0.83749   0.62944   0.75804   0.00000  Uiso   1.00
H1231  H     0.82918   0.37056   0.90863   0.00000  Uiso   1.00
H1232  H     0.77304   0.45633   0.70268   0.00000  Uiso   1.00
H1233  H     0.89362   0.54367   0.96399   0.00000  Uiso   1.00
H1234  H     0.77310   0.45632   0.94894   0.00000  Uiso   1.00
H1235  H     0.89356   0.54368   0.71773   0.00000  Uiso   1.00
H1236  H     0.97442   0.42748   0.78845   0.00000  Uiso   1.00
N1237  N     0.83335   0.50001   0.95069   0.00000  Uiso   1.00
N1238  N     0.83332   0.49999   0.71597   0.00000  Uiso   1.00
O1239  O     0.83333   0.43989   0.87291   0.00000  Uiso   1.00
O1240  O     0.67804   0.51174   0.89706   0.00000  Uiso   1.00
O1241  O     0.83334   0.56011   0.79375   0.00000  Uiso   1.00
O1242  O     0.83333   0.43988   0.79372   0.00000  Uiso   1.00
O1243  O     0.83334   0.56012   0.87294   0.00000  Uiso   1.00
O1244  O     0.75828   0.50000   0.86379   0.00000  Uiso   1.00
O1245  O     0.90839   0.50000   0.80288   0.00000  Uiso   1.00
O1246  O     0.75828   0.49999   0.78460   0.00000  Uiso   1.00
O1247  O     0.90839   0.50001   0.88207   0.00000  Uiso   1.00
O1248  O     0.98863   0.48826   0.76960   0.00000  Uiso   1.00
C1249  C     0.16665   0.75402   0.83333   0.00000  Uiso   1.00
C1250  C     0.16438   0.68791   0.87560   0.00000  Uiso   1.00
C1251  C     0.16667   0.95726   0.83333   0.00000  Uiso   1.00
C1252  C     0.16666   0.70941   0.83334   0.00000  Uiso   1.00
C1253  C     0.13317   0.80909   0.68730   0.00000  Uiso   1.00
C1254  C     0.20016   0.85757   0.97937   0.00000  Uiso   1.00
C1255  C     0.13323   0.80907   0.97101   0.00000  Uiso   1.00
C1256  C     0.20011   0.85760   0.69566   0.00000  Uiso   1.00
C1257  C     0.32435   0.77889   0.76091   0.00000  Uiso   1.00
C1258  C     0.29356   0.76922   0.71314   0.00000  Uiso   1.00
C1259  C     0.00899   0.88778   0.90575   0.00000  Uiso   1.00
C1260  C     0.16668   0.91265   0.83333   0.00000  Uiso   1.00
C1261  C     0.03975   0.89745   0.95354   0.00000  Uiso   1.00
C1262  C     0.06811   0.83273   0.82140   0.00000  Uiso   1.00
C1263  C     0.26522   0.83394   0.84527   0.00000  Uiso   1.00
C1264  C     0.01314   0.82972   0.81490   0.00000  Uiso   1.00
C1265  C     0.32019   0.83694   0.85177   0.00000  Uiso   1.00
C1266  C     0.16895   0.68800   0.79107   0.00000  Uiso   1.00
C1267  C     0.16439   0.97866   0.87560   0.00000  Uiso   1.00
C1268  C     0.16895   0.97876   0.79106   0.00000  Uiso   1.00
Cu1269 Cu    0.16667   0.83334   0.88022   0.00000  Uiso   1.00
Cu1270 Cu    0.16667   0.83333   0.78645   0.00000  Uiso   1.00
H1271  H     0.17082   0.70406   0.75804   0.00000  Uiso   1.00
H1272  H     0.03122   0.76900   0.75993   0.00000  Uiso   1.00
H1273  H     0.30843   0.78737   0.68488   0.00000  Uiso   1.00
H1274  H     0.29656   0.73593   0.70521   0.00000  Uiso   1.00
H1275  H     0.25267   0.77686   0.71372   0.00000  Uiso   1.00
H1276  H     0.30212   0.89768   0.90670   0.00000  Uiso   1.00
H1277  H     0.02561   0.90584   0.87822   0.00000  Uiso   1.00
H1278  H     0.08064   0.88979   0.95298   0.00000  Uiso   1.00
H1279  H     0.03676   0.93074   0.96146   0.00000  Uiso   1.00
H1280  H     0.02486   0.87931   0.98179   0.00000  Uiso   1.00
H1281  H     0.16251   0.96260   0.90862   0.00000  Uiso   1.00
H1282  H     0.17082   0.96278   0.75804   0.00000  Uiso   1.00
H1283  H     0.16251   0.70389   0.90863   0.00000  Uiso   1.00
H1284  H     0.10638   0.78967   0.70268   0.00000  Uiso   1.00
H1285  H     0.22696   0.87700   0.96399   0.00000  Uiso   1.00
H1286  H     0.10644   0.78965   0.94894   0.00000  Uiso   1.00
H1287  H     0.22690   0.87701   0.71773   0.00000  Uiso   1.00
H1288  H     0.30776   0.76082   0.78845   0.00000  Uiso   1.00
N1289  N     0.16668   0.83334   0.95069   0.00000  Uiso   1.00
N1290  N     0.16665   0.83332   0.71597   0.00000  Uiso   1.00
O1291  O     0.16666   0.77322   0.87291   0.00000  Uiso   1.00
O1292  O     0.01137   0.84507   0.89706   0.00000  Uiso   1.00
O1293  O     0.16667   0.89345   0.79375   0.00000  Uiso   1.00
O1294  O     0.16666   0.77321   0.79372   0.00000  Uiso   1.00
O1295  O     0.16667   0.89346   0.87294   0.00000  Uiso   1.00
O1296  O     0.09161   0.83334   0.86379   0.00000  Uiso   1.00
O1297  O     0.24172   0.83333   0.80288   0.00000  Uiso   1.00
O1298  O     0.09161   0.83333   0.78460   0.00000  Uiso   1.00
O1299  O     0.24172   0.83334   0.88207   0.00000  Uiso   1.00
O1300  O     0.32196   0.82160   0.76960   0.00000  Uiso   1.00
C1301  C     0.49999   0.75402   0.83333   0.00000  Uiso   1.00
C1302  C     0.49772   0.68791   0.87560   0.00000  Uiso   1.00
C1303  C     0.50001   0.95726   0.83333   0.00000  Uiso   1.00
C1304  C     0.49999   0.70941   0.83334   0.00000  Uiso   1.00
C1305  C     0.46651   0.80909   0.68730   0.00000  Uiso   1.00
C1306  C     0.53349   0.85757   0.97937   0.00000  Uiso   1.00
C1307  C     0.46656   0.80907   0.97101   0.00000  Uiso   1.00
C1308  C     0.53344   0.85760   0.69566   0.00000  Uiso   1.00
C1309  C     0.65768   0.77889   0.76091   0.00000  Uiso   1.00
C1310  C     0.62689   0.76922   0.71314   0.00000  Uiso   1.00
C1311  C     0.34232   0.88778   0.90575   0.00000  Uiso   1.00
C1312  C     0.50001   0.91265   0.83333   0.00000  Uiso   1.00
C1313  C     0.37309   0.89745   0.95354   0.00000  Uiso   1.00
C1314  C     0.40144   0.83273   0.82140   0.00000  Uiso   1.00
C1315  C     0.59856   0.83394   0.84527   0.00000  Uiso   1.00
C1316  C     0.34647   0.82972   0.81490   0.00000  Uiso   1.00
C1317  C     0.65353   0.83694   0.85177   0.00000  Uiso   1.00
C1318  C     0.50228   0.68800   0.79107   0.00000  Uiso   1.00
C1319  C     0.49772   0.97866   0.87560   0.00000  Uiso   1.00
C1320  C     0.50228   0.97876   0.79106   0.00000  Uiso   1.00
Cu1321 Cu    0.50000   0.83334   0.88022   0.00000  Uiso   1.00
Cu1322 Cu    0.50000   0.83333   0.78645   0.00000  Uiso   1.00
H1323  H     0.50416   0.70406   0.75804   0.00000  Uiso   1.00
H1324  H     0.36456   0.76900   0.75993   0.00000  Uiso   1.00
H1325  H     0.64176   0.78737   0.68488   0.00000  Uiso   1.00
H1326  H     0.62990   0.73593   0.70521   0.00000  Uiso   1.00
H1327  H     0.58601   0.77686   0.71372   0.00000  Uiso   1.00
H1328  H     0.63545   0.89768   0.90670   0.00000  Uiso   1.00
H1329  H     0.35894   0.90584   0.87822   0.00000  Uiso   1.00
H1330  H     0.41398   0.88979   0.95298   0.00000  Uiso   1.00
H1331  H     0.37010   0.93074   0.96146   0.00000  Uiso   1.00
H1332  H     0.35819   0.87931   0.98179   0.00000  Uiso   1.00
H1333  H     0.49584   0.96260   0.90862   0.00000  Uiso   1.00
H1334  H     0.50415   0.96278   0.75804   0.00000  Uiso   1.00
H1335  H     0.49585   0.70389   0.90863   0.00000  Uiso   1.00
H1336  H     0.43971   0.78967   0.70268   0.00000  Uiso   1.00
H1337  H     0.56029   0.87700   0.96399   0.00000  Uiso   1.00
H1338  H     0.43977   0.78965   0.94894   0.00000  Uiso   1.00
H1339  H     0.56023   0.87701   0.71773   0.00000  Uiso   1.00
H1340  H     0.64109   0.76082   0.78845   0.00000  Uiso   1.00
N1341  N     0.50001   0.83334   0.95069   0.00000  Uiso   1.00
N1342  N     0.49999   0.83332   0.71597   0.00000  Uiso   1.00
O1343  O     0.50000   0.77322   0.87291   0.00000  Uiso   1.00
O1344  O     0.34471   0.84507   0.89706   0.00000  Uiso   1.00
O1345  O     0.50000   0.89345   0.79375   0.00000  Uiso   1.00
O1346  O     0.50000   0.77321   0.79372   0.00000  Uiso   1.00
O1347  O     0.50000   0.89346   0.87294   0.00000  Uiso   1.00
O1348  O     0.42495   0.83334   0.86379   0.00000  Uiso   1.00
O1349  O     0.57505   0.83333   0.80288   0.00000  Uiso   1.00
O1350  O     0.42494   0.83333   0.78460   0.00000  Uiso   1.00
O1351  O     0.57506   0.83334   0.88207   0.00000  Uiso   1.00
O1352  O     0.65529   0.82160   0.76960   0.00000  Uiso   1.00
C1353  C     0.83332   0.75402   0.83333   0.00000  Uiso   1.00
C1354  C     0.83105   0.68791   0.87560   0.00000  Uiso   1.00
C1355  C     0.83334   0.95726   0.83333   0.00000  Uiso   1.00
C1356  C     0.83333   0.70941   0.83334   0.00000  Uiso   1.00
C1357  C     0.79984   0.80909   0.68730   0.00000  Uiso   1.00
C1358  C     0.86683   0.85757   0.97937   0.00000  Uiso   1.00
C1359  C     0.79989   0.80907   0.97101   0.00000  Uiso   1.00
C1360  C     0.86677   0.85760   0.69566   0.00000  Uiso   1.00
C1361  C     0.99102   0.77889   0.76091   0.00000  Uiso   1.00
C1362  C     0.96023   0.76922   0.71314   0.00000  Uiso   1.00
C1363  C     0.67566   0.88778   0.90575   0.00000  Uiso   1.00
C1364  C     0.83335   0.91265   0.83333   0.00000  Uiso   1.00
C1365  C     0.70642   0.89745   0.95354   0.00000  Uiso   1.00
C1366  C     0.73478   0.83273   0.82140   0.00000  Uiso   1.00
C1367  C     0.93189   0.83394   0.84527   0.00000  Uiso   1.00
C1368  C     0.67981   0.82972   0.81490   0.00000  Uiso   1.00
C1369  C     0.98686   0.83694   0.85177   0.00000  Uiso   1.00
C1370  C     0.83561   0.68800   0.79107   0.00000  Uiso   1.00
C1371  C     0.83105   0.97866   0.87560   0.00000  Uiso   1.00
C1372  C     0.83562   0.97876   0.79106   0.00000  Uiso   1.00
Cu1373 Cu    0.83333   0.83334   0.88022   0.00000  Uiso   1.00
Cu1374 Cu    0.83333   0.83333   0.78645   0.00000  Uiso   1.00
H1375  H     0.83749   0.70406   0.75804   0.00000  Uiso   1.00
H1376  H     0.69789   0.76900   0.75993   0.00000  Uiso   1.00
H1377  H     0.97509   0.78737   0.68488   0.00000  Uiso   1.00
H1378  H     0.96323   0.73593   0.70521   0.00000  Uiso   1.00
H1379  H     0.91934   0.77686   0.71372   0.00000  Uiso   1.00
H1380  H     0.96878   0.89768   0.90670   0.00000  Uiso   1.00
H1381  H     0.69228   0.90584   0.87822   0.00000  Uiso   1.00
H1382  H     0.74731   0.88979   0.95298   0.00000  Uiso   1.00
H1383  H     0.70343   0.93074   0.96146   0.00000  Uiso   1.00
H1384  H     0.69152   0.87931   0.98179   0.00000  Uiso   1.00
H1385  H     0.82918   0.96260   0.90862   0.00000  Uiso   1.00
H1386  H     0.83749   0.96278   0.75804   0.00000  Uiso   1.00
H1387  H     0.82918   0.70389   0.90863   0.00000  Uiso   1.00
H1388  H     0.77304   0.78967   0.70268   0.00000  Uiso   1.00
H1389  H     0.89362   0.87700   0.96399   0.00000  Uiso   1.00
H1390  H     0.77310   0.78965   0.94894   0.00000  Uiso   1.00
H1391  H     0.89356   0.87701   0.71773   0.00000  Uiso   1.00
H1392  H     0.97442   0.76082   0.78845   0.00000  Uiso   1.00
N1393  N     0.83335   0.83334   0.95069   0.00000  Uiso   1.00
N1394  N     0.83332   0.83332   0.71597   0.00000  Uiso   1.00
O1395  O     0.83333   0.77322   0.87291   0.00000  Uiso   1.00
O1396  O     0.67804   0.84507   0.89706   0.00000  Uiso   1.00
O1397  O     0.83334   0.89345   0.79375   0.00000  Uiso   1.00
O1398  O     0.83333   0.77321   0.79372   0.00000  Uiso   1.00
O1399  O     0.83334   0.89346   0.87294   0.00000  Uiso   1.00
O1400  O     0.75828   0.83334   0.86379   0.00000  Uiso   1.00
O1401  O     0.90839   0.83333   0.80288   0.00000  Uiso   1.00
O1402  O     0.75828   0.83333   0.78460   0.00000  Uiso   1.00
O1403  O     0.90839   0.83334   0.88207   0.00000  Uiso   1.00
O1404  O     0.98863   0.82160   0.76960   0.00000  Uiso   1.00
loop_
_geom_bond_atom_site_label_1
_geom_bond_atom_site_label_2
_geom_bond_distance
_geom_bond_site_symmetry_2
_ccdc_geom_bond_type
C1     C4      1.449   .     S
C1     O43     1.291   .     A
C1     O46     1.290   .     A
C2     H35     1.083   .     S
C2     C4      1.401   .     A
C2     C331    1.383   1_545 S
C3     C19     1.401   .     A
C3     C20     1.401   .     A
C3     C12     1.449   .     S
C4     C18     1.401   .     A
C5     N42     1.367   .     A
C5     H36     1.082   .     S
C5     C943    1.416   1_554 S
C6     H37     1.082   .     S
C6     N41     1.367   .     A
C6     C476    1.416   .     S
C7     N41     1.367   .     A
C7     H38     1.082   .     S
C7     C473    1.416   .     S
C8     H39     1.082   .     S
C8     N42     1.367   .     A
C8     C942    1.416   1_554 S
C9     C10     1.521   .     S
C9     O52     1.413   .     S
C9     H40     1.115   .     S
C9     H76     1.113   .     S
C10    H27     1.110   .     S
C10    H26     1.110   .     S
C10    H25     1.111   .     S
C11    O44     1.413   .     S
C11    C13     1.521   .     S
C11    H29     1.115   .     S
C11    H132    1.113   1_455 S
C12    O47     1.290   .     A
C12    O45     1.291   .     A
C13    H32     1.111   .     S
C13    H30     1.110   .     S
C13    H31     1.110   .     S
C14    O50     1.290   .     A
C14    C16     1.440   .     S
C14    O48     1.282   .     A
C15    O51     1.290   .     A
C15    O49     1.282   .     A
C15    C17     1.440   .     S
C16    C121    1.357   1_455 S
C16    O156    1.389   1_455 S
C17    C68     1.357   .     S
C17    O96     1.389   .     S
C18    H23     1.083   .     S
C18    C332    1.383   1_545 S
C19    H33     1.083   .     S
C19    C158    1.383   .     S
C20    H34     1.083   .     S
C20    C174    1.383   .     S
Cu21   O48     1.972   .     S
Cu21   Cu22    2.675   .     S
Cu21   N41     2.010   .     S
Cu21   O51     1.973   .     S
Cu21   O43     1.965   .     S
Cu21   O47     1.964   .     S
Cu22   O50     1.973   .     S
Cu22   N42     2.010   .     S
Cu22   O46     1.964   .     S
Cu22   O45     1.965   .     S
Cu22   O49     1.972   .     S
H24    C113    1.113   1_455 S
H28    C63     1.113   .     S
O44    C121    1.389   1_455 S
O52    C68     1.389   .     S
C53    C56     1.449   .     S
C53    O95     1.291   .     A
C53    O98     1.290   .     A
C54    H87     1.083   .     S
C54    C56     1.401   .     A
C54    C383    1.383   1_545 S
C55    C71     1.401   .     A
C55    C72     1.401   .     A
C55    C64     1.449   .     S
C56    C70     1.401   .     A
C57    N94     1.367   .     A
C57    H88     1.082   .     S
C57    C995    1.416   1_554 S
C58    H89     1.082   .     S
C58    N93     1.367   .     A
C58    C528    1.416   .     S
C59    N93     1.367   .     A
C59    H90     1.082   .     S
C59    C525    1.416   .     S
C60    H91     1.082   .     S
C60    N94     1.367   .     A
C60    C994    1.416   1_554 S
C61    C62     1.521   .     S
C61    O104    1.413   .     S
C61    H92     1.115   .     S
C61    H128    1.113   .     S
C62    H79     1.110   .     S
C62    H78     1.110   .     S
C62    H77     1.111   .     S
C63    O96     1.413   .     S
C63    C65     1.521   .     S
C63    H81     1.115   .     S
C64    O99     1.290   .     A
C64    O97     1.291   .     A
C65    H84     1.111   .     S
C65    H82     1.110   .     S
C65    H83     1.110   .     S
C66    O102    1.290   .     A
C66    C68     1.440   .     S
C66    O100    1.282   .     A
C67    O103    1.290   .     A
C67    O101    1.282   .     A
C67    C69     1.440   .     S
C69    C120    1.357   .     S
C69    O148    1.389   .     S
C70    H75     1.083   .     S
C70    C384    1.383   1_545 S
C71    H85     1.083   .     S
C71    C210    1.383   .     S
C72    H86     1.083   .     S
C72    C226    1.383   .     S
Cu73   O100    1.972   .     S
Cu73   Cu74    2.675   .     S
Cu73   N93     2.010   .     S
Cu73   O103    1.973   .     S
Cu73   O95     1.965   .     S
Cu73   O99     1.964   .     S
Cu74   O102    1.973   .     S
Cu74   N94     2.010   .     S
Cu74   O98     1.964   .     S
Cu74   O97     1.965   .     S
Cu74   O101    1.972   .     S
H80    C115    1.113   .     S
O104   C120    1.389   .     S
C105   C108    1.449   .     S
C105   O147    1.291   .     A
C105   O150    1.290   .     A
C106   H139    1.083   .     S
C106   C108    1.401   .     A
C106   C435    1.383   1_545 S
C107   C123    1.401   .     A
C107   C124    1.401   .     A
C107   C116    1.449   .     S
C108   C122    1.401   .     A
C109   N146    1.367   .     A
C109   H140    1.082   .     S
C109   C1047   1.416   1_554 S
C110   H141    1.082   .     S
C110   N145    1.367   .     A
C110   C580    1.416   .     S
C111   N145    1.367   .     A
C111   H142    1.082   .     S
C111   C577    1.416   .     S
C112   H143    1.082   .     S
C112   N146    1.367   .     A
C112   C1046   1.416   1_554 S
C113   C114    1.521   .     S
C113   O156    1.413   .     S
C113   H144    1.115   .     S
C113   H24     1.113   1_655 S
C114   H131    1.110   .     S
C114   H130    1.110   .     S
C114   H129    1.111   .     S
C115   O148    1.413   .     S
C115   C117    1.521   .     S
C115   H133    1.115   .     S
C116   O151    1.290   .     A
C116   O149    1.291   .     A
C117   H136    1.111   .     S
C117   H134    1.110   .     S
C117   H135    1.110   .     S
C118   O154    1.290   .     A
C118   C120    1.440   .     S
C118   O152    1.282   .     A
C119   O155    1.290   .     A
C119   O153    1.282   .     A
C119   C121    1.440   .     S
C121   C16     1.357   1_655 S
C121   O44     1.389   1_655 S
C122   H127    1.083   .     S
C122   C436    1.383   1_545 S
C123   H137    1.083   .     S
C123   C262    1.383   .     S
C124   H138    1.083   .     S
C124   C278    1.383   .     S
Cu125  O152    1.972   .     S
Cu125  Cu126   2.675   .     S
Cu125  N145    2.010   .     S
Cu125  O155    1.973   .     S
Cu125  O147    1.965   .     S
Cu125  O151    1.964   .     S
Cu126  O154    1.973   .     S
Cu126  N146    2.010   .     S
Cu126  O150    1.964   .     S
Cu126  O149    1.965   .     S
Cu126  O153    1.972   .     S
H132   C11     1.113   1_655 S
O156   C16     1.389   1_655 S
C157   C160    1.449   .     S
C157   O199    1.291   .     A
C157   O202    1.290   .     A
C158   H191    1.083   .     S
C158   C160    1.401   .     A
C159   C175    1.401   .     A
C159   C176    1.401   .     A
C159   C168    1.449   .     S
C160   C174    1.401   .     A
C161   N198    1.367   .     A
C161   H192    1.082   .     S
C161   C1099   1.416   1_554 S
C162   H193    1.082   .     S
C162   N197    1.367   .     A
C162   C632    1.416   .     S
C163   N197    1.367   .     A
C163   H194    1.082   .     S
C163   C629    1.416   .     S
C164   H195    1.082   .     S
C164   N198    1.367   .     A
C164   C1098   1.416   1_554 S
C165   C166    1.521   .     S
C165   O208    1.413   .     S
C165   H196    1.115   .     S
C165   H232    1.113   .     S
C166   H183    1.110   .     S
C166   H182    1.110   .     S
C166   H181    1.111   .     S
C167   O200    1.413   .     S
C167   C169    1.521   .     S
C167   H185    1.115   .     S
C167   H288    1.113   1_455 S
C168   O203    1.290   .     A
C168   O201    1.291   .     A
C169   H188    1.111   .     S
C169   H186    1.110   .     S
C169   H187    1.110   .     S
C170   O206    1.290   .     A
C170   C172    1.440   .     S
C170   O204    1.282   .     A
C171   O207    1.290   .     A
C171   O205    1.282   .     A
C171   C173    1.440   .     S
C172   C277    1.357   1_455 S
C172   O312    1.389   1_455 S
C173   C224    1.357   .     S
C173   O252    1.389   .     S
C174   H179    1.083   .     S
C175   H189    1.083   .     S
C175   C314    1.383   .     S
C176   H190    1.083   .     S
C176   C330    1.383   .     S
Cu177  O204    1.972   .     S
Cu177  Cu178   2.675   .     S
Cu177  N197    2.010   .     S
Cu177  O207    1.973   .     S
Cu177  O199    1.965   .     S
Cu177  O203    1.964   .     S
Cu178  O206    1.973   .     S
Cu178  N198    2.010   .     S
Cu178  O202    1.964   .     S
Cu178  O201    1.965   .     S
Cu178  O205    1.972   .     S
H180   C269    1.113   1_455 S
H184   C219    1.113   .     S
O200   C277    1.389   1_455 S
O208   C224    1.389   .     S
C209   C212    1.449   .     S
C209   O251    1.291   .     A
C209   O254    1.290   .     A
C210   H243    1.083   .     S
C210   C212    1.401   .     A
C211   C227    1.401   .     A
C211   C228    1.401   .     A
C211   C220    1.449   .     S
C212   C226    1.401   .     A
C213   N250    1.367   .     A
C213   H244    1.082   .     S
C213   C1151   1.416   1_554 S
C214   H245    1.082   .     S
C214   N249    1.367   .     A
C214   C684    1.416   .     S
C215   N249    1.367   .     A
C215   H246    1.082   .     S
C215   C681    1.416   .     S
C216   H247    1.082   .     S
C216   N250    1.367   .     A
C216   C1150   1.416   1_554 S
C217   C218    1.521   .     S
C217   O260    1.413   .     S
C217   H248    1.115   .     S
C217   H284    1.113   .     S
C218   H235    1.110   .     S
C218   H234    1.110   .     S
C218   H233    1.111   .     S
C219   O252    1.413   .     S
C219   C221    1.521   .     S
C219   H237    1.115   .     S
C220   O255    1.290   .     A
C220   O253    1.291   .     A
C221   H240    1.111   .     S
C221   H238    1.110   .     S
C221   H239    1.110   .     S
C222   O258    1.290   .     A
C222   C224    1.440   .     S
C222   O256    1.282   .     A
C223   O259    1.290   .     A
C223   O257    1.282   .     A
C223   C225    1.440   .     S
C225   C276    1.357   .     S
C225   O304    1.389   .     S
C226   H231    1.083   .     S
C227   H241    1.083   .     S
C227   C366    1.383   .     S
C228   H242    1.083   .     S
C228   C382    1.383   .     S
Cu229  O256    1.972   .     S
Cu229  Cu230   2.675   .     S
Cu229  N249    2.010   .     S
Cu229  O259    1.973   .     S
Cu229  O251    1.965   .     S
Cu229  O255    1.964   .     S
Cu230  O258    1.973   .     S
Cu230  N250    2.010   .     S
Cu230  O254    1.964   .     S
Cu230  O253    1.965   .     S
Cu230  O257    1.972   .     S
H236   C271    1.113   .     S
O260   C276    1.389   .     S
C261   C264    1.449   .     S
C261   O303    1.291   .     A
C261   O306    1.290   .     A
C262   H295    1.083   .     S
C262   C264    1.401   .     A
C263   C279    1.401   .     A
C263   C280    1.401   .     A
C263   C272    1.449   .     S
C264   C278    1.401   .     A
C265   N302    1.367   .     A
C265   H296    1.082   .     S
C265   C1203   1.416   1_554 S
C266   H297    1.082   .     S
C266   N301    1.367   .     A
C266   C736    1.416   .     S
C267   N301    1.367   .     A
C267   H298    1.082   .     S
C267   C733    1.416   .     S
C268   H299    1.082   .     S
C268   N302    1.367   .     A
C268   C1202   1.416   1_554 S
C269   C270    1.521   .     S
C269   O312    1.413   .     S
C269   H300    1.115   .     S
C269   H180    1.113   1_655 S
C270   H287    1.110   .     S
C270   H286    1.110   .     S
C270   H285    1.111   .     S
C271   O304    1.413   .     S
C271   C273    1.521   .     S
C271   H289    1.115   .     S
C272   O307    1.290   .     A
C272   O305    1.291   .     A
C273   H292    1.111   .     S
C273   H290    1.110   .     S
C273   H291    1.110   .     S
C274   O310    1.290   .     A
C274   C276    1.440   .     S
C274   O308    1.282   .     A
C275   O311    1.290   .     A
C275   O309    1.282   .     A
C275   C277    1.440   .     S
C277   C172    1.357   1_655 S
C277   O200    1.389   1_655 S
C278   H283    1.083   .     S
C279   H293    1.083   .     S
C279   C418    1.383   .     S
C280   H294    1.083   .     S
C280   C434    1.383   .     S
Cu281  O308    1.972   .     S
Cu281  Cu282   2.675   .     S
Cu281  N301    2.010   .     S
Cu281  O311    1.973   .     S
Cu281  O303    1.965   .     S
Cu281  O307    1.964   .     S
Cu282  O310    1.973   .     S
Cu282  N302    2.010   .     S
Cu282  O306    1.964   .     S
Cu282  O305    1.965   .     S
Cu282  O309    1.972   .     S
H288   C167    1.113   1_655 S
O312   C172    1.389   1_655 S
C313   C316    1.449   .     S
C313   O355    1.291   .     A
C313   O358    1.290   .     A
C314   H347    1.083   .     S
C314   C316    1.401   .     A
C315   C331    1.401   .     A
C315   C332    1.401   .     A
C315   C324    1.449   .     S
C316   C330    1.401   .     A
C317   N354    1.367   .     A
C317   H348    1.082   .     S
C317   C1255   1.416   1_554 S
C318   H349    1.082   .     S
C318   N353    1.367   .     A
C318   C788    1.416   .     S
C319   N353    1.367   .     A
C319   H350    1.082   .     S
C319   C785    1.416   .     S
C320   H351    1.082   .     S
C320   N354    1.367   .     A
C320   C1254   1.416   1_554 S
C321   C322    1.521   .     S
C321   O364    1.413   .     S
C321   H352    1.115   .     S
C321   H388    1.113   .     S
C322   H339    1.110   .     S
C322   H338    1.110   .     S
C322   H337    1.111   .     S
C323   O356    1.413   .     S
C323   C325    1.521   .     S
C323   H341    1.115   .     S
C323   H444    1.113   1_455 S
C324   O359    1.290   .     A
C324   O357    1.291   .     A
C325   H344    1.111   .     S
C325   H342    1.110   .     S
C325   H343    1.110   .     S
C326   O362    1.290   .     A
C326   C328    1.440   .     S
C326   O360    1.282   .     A
C327   O363    1.290   .     A
C327   O361    1.282   .     A
C327   C329    1.440   .     S
C328   C433    1.357   1_455 S
C328   O468    1.389   1_455 S
C329   C380    1.357   .     S
C329   O408    1.389   .     S
C330   H335    1.083   .     S
C331   H345    1.083   .     S
C331   C2      1.383   1_565 S
C332   H346    1.083   .     S
C332   C18     1.383   1_565 S
Cu333  O360    1.972   .     S
Cu333  Cu334   2.675   .     S
Cu333  N353    2.010   .     S
Cu333  O363    1.973   .     S
Cu333  O355    1.965   .     S
Cu333  O359    1.964   .     S
Cu334  O362    1.973   .     S
Cu334  N354    2.010   .     S
Cu334  O358    1.964   .     S
Cu334  O357    1.965   .     S
Cu334  O361    1.972   .     S
H336   C425    1.113   1_455 S
H340   C375    1.113   .     S
O356   C433    1.389   1_455 S
O364   C380    1.389   .     S
C365   C368    1.449   .     S
C365   O407    1.291   .     A
C365   O410    1.290   .     A
C366   H399    1.083   .     S
C366   C368    1.401   .     A
C367   C383    1.401   .     A
C367   C384    1.401   .     A
C367   C376    1.449   .     S
C368   C382    1.401   .     A
C369   N406    1.367   .     A
C369   H400    1.082   .     S
C369   C1307   1.416   1_554 S
C370   H401    1.082   .     S
C370   N405    1.367   .     A
C370   C840    1.416   .     S
C371   N405    1.367   .     A
C371   H402    1.082   .     S
C371   C837    1.416   .     S
C372   H403    1.082   .     S
C372   N406    1.367   .     A
C372   C1306   1.416   1_554 S
C373   C374    1.521   .     S
C373   O416    1.413   .     S
C373   H404    1.115   .     S
C373   H440    1.113   .     S
C374   H391    1.110   .     S
C374   H390    1.110   .     S
C374   H389    1.111   .     S
C375   O408    1.413   .     S
C375   C377    1.521   .     S
C375   H393    1.115   .     S
C376   O411    1.290   .     A
C376   O409    1.291   .     A
C377   H396    1.111   .     S
C377   H394    1.110   .     S
C377   H395    1.110   .     S
C378   O414    1.290   .     A
C378   C380    1.440   .     S
C378   O412    1.282   .     A
C379   O415    1.290   .     A
C379   O413    1.282   .     A
C379   C381    1.440   .     S
C381   C432    1.357   .     S
C381   O460    1.389   .     S
C382   H387    1.083   .     S
C383   H397    1.083   .     S
C383   C54     1.383   1_565 S
C384   H398    1.083   .     S
C384   C70     1.383   1_565 S
Cu385  O412    1.972   .     S
Cu385  Cu386   2.675   .     S
Cu385  N405    2.010   .     S
Cu385  O415    1.973   .     S
Cu385  O407    1.965   .     S
Cu385  O411    1.964   .     S
Cu386  O414    1.973   .     S
Cu386  N406    2.010   .     S
Cu386  O410    1.964   .     S
Cu386  O409    1.965   .     S
Cu386  O413    1.972   .     S
H392   C427    1.113   .     S
O416   C432    1.389   .     S
C417   C420    1.449   .     S
C417   O459    1.291   .     A
C417   O462    1.290   .     A
C418   H451    1.083   .     S
C418   C420    1.401   .     A
C419   C435    1.401   .     A
C419   C436    1.401   .     A
C419   C428    1.449   .     S
C420   C434    1.401   .     A
C421   N458    1.367   .     A
C421   H452    1.082   .     S
C421   C1359   1.416   1_554 S
C422   H453    1.082   .     S
C422   N457    1.367   .     A
C422   C892    1.416   .     S
C423   N457    1.367   .     A
C423   H454    1.082   .     S
C423   C889    1.416   .     S
C424   H455    1.082   .     S
C424   N458    1.367   .     A
C424   C1358   1.416   1_554 S
C425   C426    1.521   .     S
C425   O468    1.413   .     S
C425   H456    1.115   .     S
C425   H336    1.113   1_655 S
C426   H443    1.110   .     S
C426   H442    1.110   .     S
C426   H441    1.111   .     S
C427   O460    1.413   .     S
C427   C429    1.521   .     S
C427   H445    1.115   .     S
C428   O463    1.290   .     A
C428   O461    1.291   .     A
C429   H448    1.111   .     S
C429   H446    1.110   .     S
C429   H447    1.110   .     S
C430   O466    1.290   .     A
C430   C432    1.440   .     S
C430   O464    1.282   .     A
C431   O467    1.290   .     A
C431   O465    1.282   .     A
C431   C433    1.440   .     S
C433   C328    1.357   1_655 S
C433   O356    1.389   1_655 S
C434   H439    1.083   .     S
C435   H449    1.083   .     S
C435   C106    1.383   1_565 S
C436   H450    1.083   .     S
C436   C122    1.383   1_565 S
Cu437  O464    1.972   .     S
Cu437  Cu438   2.675   .     S
Cu437  N457    2.010   .     S
Cu437  O467    1.973   .     S
Cu437  O459    1.965   .     S
Cu437  O463    1.964   .     S
Cu438  O466    1.973   .     S
Cu438  N458    2.010   .     S
Cu438  O462    1.964   .     S
Cu438  O461    1.965   .     S
Cu438  O465    1.972   .     S
H444   C323    1.113   1_655 S
O468   C328    1.389   1_655 S
C469   C472    1.449   .     S
C469   O511    1.291   .     A
C469   O514    1.290   .     A
C470   H503    1.083   .     S
C470   C472    1.401   .     A
C470   C799    1.383   1_545 S
C471   C487    1.401   .     A
C471   C488    1.401   .     A
C471   C480    1.449   .     S
C472   C486    1.401   .     A
C473   N510    1.367   .     A
C473   H504    1.082   .     S
C474   H505    1.082   .     S
C474   N509    1.367   .     A
C474   C944    1.416   .     S
C475   N509    1.367   .     A
C475   H506    1.082   .     S
C475   C941    1.416   .     S
C476   H507    1.082   .     S
C476   N510    1.367   .     A
C477   C478    1.521   .     S
C477   O520    1.413   .     S
C477   H508    1.115   .     S
C477   H544    1.113   .     S
C478   H495    1.110   .     S
C478   H494    1.110   .     S
C478   H493    1.111   .     S
C479   O512    1.413   .     S
C479   C481    1.521   .     S
C479   H497    1.115   .     S
C479   H600    1.113   1_455 S
C480   O515    1.290   .     A
C480   O513    1.291   .     A
C481   H500    1.111   .     S
C481   H498    1.110   .     S
C481   H499    1.110   .     S
C482   O518    1.290   .     A
C482   C484    1.440   .     S
C482   O516    1.282   .     A
C483   O519    1.290   .     A
C483   O517    1.282   .     A
C483   C485    1.440   .     S
C484   C589    1.357   1_455 S
C484   O624    1.389   1_455 S
C485   C536    1.357   .     S
C485   O564    1.389   .     S
C486   H491    1.083   .     S
C486   C800    1.383   1_545 S
C487   H501    1.083   .     S
C487   C626    1.383   .     S
C488   H502    1.083   .     S
C488   C642    1.383   .     S
Cu489  O516    1.972   .     S
Cu489  Cu490   2.675   .     S
Cu489  N509    2.010   .     S
Cu489  O519    1.973   .     S
Cu489  O511    1.965   .     S
Cu489  O515    1.964   .     S
Cu490  O518    1.973   .     S
Cu490  N510    2.010   .     S
Cu490  O514    1.964   .     S
Cu490  O513    1.965   .     S
Cu490  O517    1.972   .     S
H492   C581    1.113   1_455 S
H496   C531    1.113   .     S
O512   C589    1.389   1_455 S
O520   C536    1.389   .     S
C521   C524    1.449   .     S
C521   O563    1.291   .     A
C521   O566    1.290   .     A
C522   H555    1.083   .     S
C522   C524    1.401   .     A
C522   C851    1.383   1_545 S
C523   C539    1.401   .     A
C523   C540    1.401   .     A
C523   C532    1.449   .     S
C524   C538    1.401   .     A
C525   N562    1.367   .     A
C525   H556    1.082   .     S
C526   H557    1.082   .     S
C526   N561    1.367   .     A
C526   C996    1.416   .     S
C527   N561    1.367   .     A
C527   H558    1.082   .     S
C527   C993    1.416   .     S
C528   H559    1.082   .     S
C528   N562    1.367   .     A
C529   C530    1.521   .     S
C529   O572    1.413   .     S
C529   H560    1.115   .     S
C529   H596    1.113   .     S
C530   H547    1.110   .     S
C530   H546    1.110   .     S
C530   H545    1.111   .     S
C531   O564    1.413   .     S
C531   C533    1.521   .     S
C531   H549    1.115   .     S
C532   O567    1.290   .     A
C532   O565    1.291   .     A
C533   H552    1.111   .     S
C533   H550    1.110   .     S
C533   H551    1.110   .     S
C534   O570    1.290   .     A
C534   C536    1.440   .     S
C534   O568    1.282   .     A
C535   O571    1.290   .     A
C535   O569    1.282   .     A
C535   C537    1.440   .     S
C537   C588    1.357   .     S
C537   O616    1.389   .     S
C538   H543    1.083   .     S
C538   C852    1.383   1_545 S
C539   H553    1.083   .     S
C539   C678    1.383   .     S
C540   H554    1.083   .     S
C540   C694    1.383   .     S
Cu541  O568    1.972   .     S
Cu541  Cu542   2.675   .     S
Cu541  N561    2.010   .     S
Cu541  O571    1.973   .     S
Cu541  O563    1.965   .     S
Cu541  O567    1.964   .     S
Cu542  O570    1.973   .     S
Cu542  N562    2.010   .     S
Cu542  O566    1.964   .     S
Cu542  O565    1.965   .     S
Cu542  O569    1.972   .     S
H548   C583    1.113   .     S
O572   C588    1.389   .     S
C573   C576    1.449   .     S
C573   O615    1.291   .     A
C573   O618    1.290   .     A
C574   H607    1.083   .     S
C574   C576    1.401   .     A
C574   C903    1.383   1_545 S
C575   C591    1.401   .     A
C575   C592    1.401   .     A
C575   C584    1.449   .     S
C576   C590    1.401   .     A
C577   N614    1.367   .     A
C577   H608    1.082   .     S
C578   H609    1.082   .     S
C578   N613    1.367   .     A
C578   C1048   1.416   .     S
C579   N613    1.367   .     A
C579   H610    1.082   .     S
C579   C1045   1.416   .     S
C580   H611    1.082   .     S
C580   N614    1.367   .     A
C581   C582    1.521   .     S
C581   O624    1.413   .     S
C581   H612    1.115   .     S
C581   H492    1.113   1_655 S
C582   H599    1.110   .     S
C582   H598    1.110   .     S
C582   H597    1.111   .     S
C583   O616    1.413   .     S
C583   C585    1.521   .     S
C583   H601    1.115   .     S
C584   O619    1.290   .     A
C584   O617    1.291   .     A
C585   H604    1.111   .     S
C585   H602    1.110   .     S
C585   H603    1.110   .     S
C586   O622    1.290   .     A
C586   C588    1.440   .     S
C586   O620    1.282   .     A
C587   O623    1.290   .     A
C587   O621    1.282   .     A
C587   C589    1.440   .     S
C589   C484    1.357   1_655 S
C589   O512    1.389   1_655 S
C590   H595    1.083   .     S
C590   C904    1.383   1_545 S
C591   H605    1.083   .     S
C591   C730    1.383   .     S
C592   H606    1.083   .     S
C592   C746    1.383   .     S
Cu593  O620    1.972   .     S
Cu593  Cu594   2.675   .     S
Cu593  N613    2.010   .     S
Cu593  O623    1.973   .     S
Cu593  O615    1.965   .     S
Cu593  O619    1.964   .     S
Cu594  O622    1.973   .     S
Cu594  N614    2.010   .     S
Cu594  O618    1.964   .     S
Cu594  O617    1.965   .     S
Cu594  O621    1.972   .     S
H600   C479    1.113   1_655 S
O624   C484    1.389   1_655 S
C625   C628    1.449   .     S
C625   O667    1.291   .     A
C625   O670    1.290   .     A
C626   H659    1.083   .     S
C626   C628    1.401   .     A
C627   C643    1.401   .     A
C627   C644    1.401   .     A
C627   C636    1.449   .     S
C628   C642    1.401   .     A
C629   N666    1.367   .     A
C629   H660    1.082   .     S
C630   H661    1.082   .     S
C630   N665    1.367   .     A
C630   C1100   1.416   .     S
C631   N665    1.367   .     A
C631   H662    1.082   .     S
C631   C1097   1.416   .     S
C632   H663    1.082   .     S
C632   N666    1.367   .     A
C633   C634    1.521   .     S
C633   O676    1.413   .     S
C633   H664    1.115   .     S
C633   H700    1.113   .     S
C634   H651    1.110   .     S
C634   H650    1.110   .     S
C634   H649    1.111   .     S
C635   O668    1.413   .     S
C635   C637    1.521   .     S
C635   H653    1.115   .     S
C635   H756    1.113   1_455 S
C636   O671    1.290   .     A
C636   O669    1.291   .     A
C637   H656    1.111   .     S
C637   H654    1.110   .     S
C637   H655    1.110   .     S
C638   O674    1.290   .     A
C638   C640    1.440   .     S
C638   O672    1.282   .     A
C639   O675    1.290   .     A
C639   O673    1.282   .     A
C639   C641    1.440   .     S
C640   C745    1.357   1_455 S
C640   O780    1.389   1_455 S
C641   C692    1.357   .     S
C641   O720    1.389   .     S
C642   H647    1.083   .     S
C643   H657    1.083   .     S
C643   C782    1.383   .     S
C644   H658    1.083   .     S
C644   C798    1.383   .     S
Cu645  O672    1.972   .     S
Cu645  Cu646   2.675   .     S
Cu645  N665    2.010   .     S
Cu645  O675    1.973   .     S
Cu645  O667    1.965   .     S
Cu645  O671    1.964   .     S
Cu646  O674    1.973   .     S
Cu646  N666    2.010   .     S
Cu646  O670    1.964   .     S
Cu646  O669    1.965   .     S
Cu646  O673    1.972   .     S
H648   C737    1.113   1_455 S
H652   C687    1.113   .     S
O668   C745    1.389   1_455 S
O676   C692    1.389   .     S
C677   C680    1.449   .     S
C677   O719    1.291   .     A
C677   O722    1.290   .     A
C678   H711    1.083   .     S
C678   C680    1.401   .     A
C679   C695    1.401   .     A
C679   C696    1.401   .     A
C679   C688    1.449   .     S
C680   C694    1.401   .     A
C681   N718    1.367   .     A
C681   H712    1.082   .     S
C682   H713    1.082   .     S
C682   N717    1.367   .     A
C682   C1152   1.416   .     S
C683   N717    1.367   .     A
C683   H714    1.082   .     S
C683   C1149   1.416   .     S
C684   H715    1.082   .     S
C684   N718    1.367   .     A
C685   C686    1.521   .     S
C685   O728    1.413   .     S
C685   H716    1.115   .     S
C685   H752    1.113   .     S
C686   H703    1.110   .     S
C686   H702    1.110   .     S
C686   H701    1.111   .     S
C687   O720    1.413   .     S
C687   C689    1.521   .     S
C687   H705    1.115   .     S
C688   O723    1.290   .     A
C688   O721    1.291   .     A
C689   H708    1.111   .     S
C689   H706    1.110   .     S
C689   H707    1.110   .     S
C690   O726    1.290   .     A
C690   C692    1.440   .     S
C690   O724    1.282   .     A
C691   O727    1.290   .     A
C691   O725    1.282   .     A
C691   C693    1.440   .     S
C693   C744    1.357   .     S
C693   O772    1.389   .     S
C694   H699    1.083   .     S
C695   H709    1.083   .     S
C695   C834    1.383   .     S
C696   H710    1.083   .     S
C696   C850    1.383   .     S
Cu697  O724    1.972   .     S
Cu697  Cu698   2.675   .     S
Cu697  N717    2.010   .     S
Cu697  O727    1.973   .     S
Cu697  O719    1.965   .     S
Cu697  O723    1.964   .     S
Cu698  O726    1.973   .     S
Cu698  N718    2.010   .     S
Cu698  O722    1.964   .     S
Cu698  O721    1.965   .     S
Cu698  O725    1.972   .     S
H704   C739    1.113   .     S
O728   C744    1.389   .     S
C729   C732    1.449   .     S
C729   O771    1.291   .     A
C729   O774    1.290   .     A
C730   H763    1.083   .     S
C730   C732    1.401   .     A
C731   C747    1.401   .     A
C731   C748    1.401   .     A
C731   C740    1.449   .     S
C732   C746    1.401   .     A
C733   N770    1.367   .     A
C733   H764    1.082   .     S
C734   H765    1.082   .     S
C734   N769    1.367   .     A
C734   C1204   1.416   .     S
C735   N769    1.367   .     A
C735   H766    1.082   .     S
C735   C1201   1.416   .     S
C736   H767    1.082   .     S
C736   N770    1.367   .     A
C737   C738    1.521   .     S
C737   O780    1.413   .     S
C737   H768    1.115   .     S
C737   H648    1.113   1_655 S
C738   H755    1.110   .     S
C738   H754    1.110   .     S
C738   H753    1.111   .     S
C739   O772    1.413   .     S
C739   C741    1.521   .     S
C739   H757    1.115   .     S
C740   O775    1.290   .     A
C740   O773    1.291   .     A
C741   H760    1.111   .     S
C741   H758    1.110   .     S
C741   H759    1.110   .     S
C742   O778    1.290   .     A
C742   C744    1.440   .     S
C742   O776    1.282   .     A
C743   O779    1.290   .     A
C743   O777    1.282   .     A
C743   C745    1.440   .     S
C745   C640    1.357   1_655 S
C745   O668    1.389   1_655 S
C746   H751    1.083   .     S
C747   H761    1.083   .     S
C747   C886    1.383   .     S
C748   H762    1.083   .     S
C748   C902    1.383   .     S
Cu749  O776    1.972   .     S
Cu749  Cu750   2.675   .     S
Cu749  N769    2.010   .     S
Cu749  O779    1.973   .     S
Cu749  O771    1.965   .     S
Cu749  O775    1.964   .     S
Cu750  O778    1.973   .     S
Cu750  N770    2.010   .     S
Cu750  O774    1.964   .     S
Cu750  O773    1.965   .     S
Cu750  O777    1.972   .     S
H756   C635    1.113   1_655 S
O780   C640    1.389   1_655 S
C781   C784    1.449   .     S
C781   O823    1.291   .     A
C781   O826    1.290   .     A
C782   H815    1.083   .     S
C782   C784    1.401   .     A
C783   C799    1.401   .     A
C783   C800    1.401   .     A
C783   C792    1.449   .     S
C784   C798    1.401   .     A
C785   N822    1.367   .     A
C785   H816    1.082   .     S
C786   H817    1.082   .     S
C786   N821    1.367   .     A
C786   C1256   1.416   .     S
C787   N821    1.367   .     A
C787   H818    1.082   .     S
C787   C1253   1.416   .     S
C788   H819    1.082   .     S
C788   N822    1.367   .     A
C789   C790    1.521   .     S
C789   O832    1.413   .     S
C789   H820    1.115   .     S
C789   H856    1.113   .     S
C790   H807    1.110   .     S
C790   H806    1.110   .     S
C790   H805    1.111   .     S
C791   O824    1.413   .     S
C791   C793    1.521   .     S
C791   H809    1.115   .     S
C791   H912    1.113   1_455 S
C792   O827    1.290   .     A
C792   O825    1.291   .     A
C793   H812    1.111   .     S
C793   H810    1.110   .     S
C793   H811    1.110   .     S
C794   O830    1.290   .     A
C794   C796    1.440   .     S
C794   O828    1.282   .     A
C795   O831    1.290   .     A
C795   O829    1.282   .     A
C795   C797    1.440   .     S
C796   C901    1.357   1_455 S
C796   O936    1.389   1_455 S
C797   C848    1.357   .     S
C797   O876    1.389   .     S
C798   H803    1.083   .     S
C799   H813    1.083   .     S
C799   C470    1.383   1_565 S
C800   H814    1.083   .     S
C800   C486    1.383   1_565 S
Cu801  O828    1.972   .     S
Cu801  Cu802   2.675   .     S
Cu801  N821    2.010   .     S
Cu801  O831    1.973   .     S
Cu801  O823    1.965   .     S
Cu801  O827    1.964   .     S
Cu802  O830    1.973   .     S
Cu802  N822    2.010   .     S
Cu802  O826    1.964   .     S
Cu802  O825    1.965   .     S
Cu802  O829    1.972   .     S
H804   C893    1.113   1_455 S
H808   C843    1.113   .     S
O824   C901    1.389   1_455 S
O832   C848    1.389   .     S
C833   C836    1.449   .     S
C833   O875    1.291   .     A
C833   O878    1.290   .     A
C834   H867    1.083   .     S
C834   C836    1.401   .     A
C835   C851    1.401   .     A
C835   C852    1.401   .     A
C835   C844    1.449   .     S
C836   C850    1.401   .     A
C837   N874    1.367   .     A
C837   H868    1.082   .     S
C838   H869    1.082   .     S
C838   N873    1.367   .     A
C838   C1308   1.416   .     S
C839   N873    1.367   .     A
C839   H870    1.082   .     S
C839   C1305   1.416   .     S
C840   H871    1.082   .     S
C840   N874    1.367   .     A
C841   C842    1.521   .     S
C841   O884    1.413   .     S
C841   H872    1.115   .     S
C841   H908    1.113   .     S
C842   H859    1.110   .     S
C842   H858    1.110   .     S
C842   H857    1.111   .     S
C843   O876    1.413   .     S
C843   C845    1.521   .     S
C843   H861    1.115   .     S
C844   O879    1.290   .     A
C844   O877    1.291   .     A
C845   H864    1.111   .     S
C845   H862    1.110   .     S
C845   H863    1.110   .     S
C846   O882    1.290   .     A
C846   C848    1.440   .     S
C846   O880    1.282   .     A
C847   O883    1.290   .     A
C847   O881    1.282   .     A
C847   C849    1.440   .     S
C849   C900    1.357   .     S
C849   O928    1.389   .     S
C850   H855    1.083   .     S
C851   H865    1.083   .     S
C851   C522    1.383   1_565 S
C852   H866    1.083   .     S
C852   C538    1.383   1_565 S
Cu853  O880    1.972   .     S
Cu853  Cu854   2.675   .     S
Cu853  N873    2.010   .     S
Cu853  O883    1.973   .     S
Cu853  O875    1.965   .     S
Cu853  O879    1.964   .     S
Cu854  O882    1.973   .     S
Cu854  N874    2.010   .     S
Cu854  O878    1.964   .     S
Cu854  O877    1.965   .     S
Cu854  O881    1.972   .     S
H860   C895    1.113   .     S
O884   C900    1.389   .     S
C885   C888    1.449   .     S
C885   O927    1.291   .     A
C885   O930    1.290   .     A
C886   H919    1.083   .     S
C886   C888    1.401   .     A
C887   C903    1.401   .     A
C887   C904    1.401   .     A
C887   C896    1.449   .     S
C888   C902    1.401   .     A
C889   N926    1.367   .     A
C889   H920    1.082   .     S
C890   H921    1.082   .     S
C890   N925    1.367   .     A
C890   C1360   1.416   .     S
C891   N925    1.367   .     A
C891   H922    1.082   .     S
C891   C1357   1.416   .     S
C892   H923    1.082   .     S
C892   N926    1.367   .     A
C893   C894    1.521   .     S
C893   O936    1.413   .     S
C893   H924    1.115   .     S
C893   H804    1.113   1_655 S
C894   H911    1.110   .     S
C894   H910    1.110   .     S
C894   H909    1.111   .     S
C895   O928    1.413   .     S
C895   C897    1.521   .     S
C895   H913    1.115   .     S
C896   O931    1.290   .     A
C896   O929    1.291   .     A
C897   H916    1.111   .     S
C897   H914    1.110   .     S
C897   H915    1.110   .     S
C898   O934    1.290   .     A
C898   C900    1.440   .     S
C898   O932    1.282   .     A
C899   O935    1.290   .     A
C899   O933    1.282   .     A
C899   C901    1.440   .     S
C901   C796    1.357   1_655 S
C901   O824    1.389   1_655 S
C902   H907    1.083   .     S
C903   H917    1.083   .     S
C903   C574    1.383   1_565 S
C904   H918    1.083   .     S
C904   C590    1.383   1_565 S
Cu905  O932    1.972   .     S
Cu905  Cu906   2.675   .     S
Cu905  N925    2.010   .     S
Cu905  O935    1.973   .     S
Cu905  O927    1.965   .     S
Cu905  O931    1.964   .     S
Cu906  O934    1.973   .     S
Cu906  N926    2.010   .     S
Cu906  O930    1.964   .     S
Cu906  O929    1.965   .     S
Cu906  O933    1.972   .     S
H912   C791    1.113   1_655 S
O936   C796    1.389   1_655 S
C937   C940    1.449   .     S
C937   O979    1.291   .     A
C937   O982    1.290   .     A
C938   H971    1.083   .     S
C938   C940    1.401   .     A
C938   C1267   1.383   1_545 S
C939   C955    1.401   .     A
C939   C956    1.401   .     A
C939   C948    1.449   .     S
C940   C954    1.401   .     A
C941   N978    1.367   .     A
C941   H972    1.082   .     S
C942   H973    1.082   .     S
C942   N977    1.367   .     A
C942   C8      1.416   1_556 S
C943   N977    1.367   .     A
C943   H974    1.082   .     S
C943   C5      1.416   1_556 S
C944   H975    1.082   .     S
C944   N978    1.367   .     A
C945   C946    1.521   .     S
C945   O988    1.413   .     S
C945   H976    1.115   .     S
C945   H1012   1.113   .     S
C946   H963    1.110   .     S
C946   H962    1.110   .     S
C946   H961    1.111   .     S
C947   O980    1.413   .     S
C947   C949    1.521   .     S
C947   H965    1.115   .     S
C947   H1068   1.113   1_455 S
C948   O983    1.290   .     A
C948   O981    1.291   .     A
C949   H968    1.111   .     S
C949   H966    1.110   .     S
C949   H967    1.110   .     S
C950   O986    1.290   .     A
C950   C952    1.440   .     S
C950   O984    1.282   .     A
C951   O987    1.290   .     A
C951   O985    1.282   .     A
C951   C953    1.440   .     S
C952   C1057   1.357   1_455 S
C952   O1092   1.389   1_455 S
C953   C1004   1.357   .     S
C953   O1032   1.389   .     S
C954   H959    1.083   .     S
C954   C1268   1.383   1_545 S
C955   H969    1.083   .     S
C955   C1094   1.383   .     S
C956   H970    1.083   .     S
C956   C1110   1.383   .     S
Cu957  O984    1.972   .     S
Cu957  Cu958   2.675   .     S
Cu957  N977    2.010   .     S
Cu957  O987    1.973   .     S
Cu957  O979    1.965   .     S
Cu957  O983    1.964   .     S
Cu958  O986    1.973   .     S
Cu958  N978    2.010   .     S
Cu958  O982    1.964   .     S
Cu958  O981    1.965   .     S
Cu958  O985    1.972   .     S
H960   C1049   1.113   1_455 S
H964   C999    1.113   .     S
O980   C1057   1.389   1_455 S
O988   C1004   1.389   .     S
C989   C992    1.449   .     S
C989   O1031   1.291   .     A
C989   O1034   1.290   .     A
C990   H1023   1.083   .     S
C990   C992    1.401   .     A
C990   C1319   1.383   1_545 S
C991   C1007   1.401   .     A
C991   C1008   1.401   .     A
C991   C1000   1.449   .     S
C992   C1006   1.401   .     A
C993   N1030   1.367   .     A
C993   H1024   1.082   .     S
C994   H1025   1.082   .     S
C994   N1029   1.367   .     A
C994   C60     1.416   1_556 S
C995   N1029   1.367   .     A
C995   H1026   1.082   .     S
C995   C57     1.416   1_556 S
C996   H1027   1.082   .     S
C996   N1030   1.367   .     A
C997   C998    1.521   .     S
C997   O1040   1.413   .     S
C997   H1028   1.115   .     S
C997   H1064   1.113   .     S
C998   H1015   1.110   .     S
C998   H1014   1.110   .     S
C998   H1013   1.111   .     S
C999   O1032   1.413   .     S
C999   C1001   1.521   .     S
C999   H1017   1.115   .     S
C1000  O1035   1.290   .     A
C1000  O1033   1.291   .     A
C1001  H1020   1.111   .     S
C1001  H1018   1.110   .     S
C1001  H1019   1.110   .     S
C1002  O1038   1.290   .     A
C1002  C1004   1.440   .     S
C1002  O1036   1.282   .     A
C1003  O1039   1.290   .     A
C1003  O1037   1.282   .     A
C1003  C1005   1.440   .     S
C1005  C1056   1.357   .     S
C1005  O1084   1.389   .     S
C1006  H1011   1.083   .     S
C1006  C1320   1.383   1_545 S
C1007  H1021   1.083   .     S
C1007  C1146   1.383   .     S
C1008  H1022   1.083   .     S
C1008  C1162   1.383   .     S
Cu1009 O1036   1.972   .     S
Cu1009 Cu1010  2.675   .     S
Cu1009 N1029   2.010   .     S
Cu1009 O1039   1.973   .     S
Cu1009 O1031   1.965   .     S
Cu1009 O1035   1.964   .     S
Cu1010 O1038   1.973   .     S
Cu1010 N1030   2.010   .     S
Cu1010 O1034   1.964   .     S
Cu1010 O1033   1.965   .     S
Cu1010 O1037   1.972   .     S
H1016  C1051   1.113   .     S
O1040  C1056   1.389   .     S
C1041  C1044   1.449   .     S
C1041  O1083   1.291   .     A
C1041  O1086   1.290   .     A
C1042  H1075   1.083   .     S
C1042  C1044   1.401   .     A
C1042  C1371   1.383   1_545 S
C1043  C1059   1.401   .     A
C1043  C1060   1.401   .     A
C1043  C1052   1.449   .     S
C1044  C1058   1.401   .     A
C1045  N1082   1.367   .     A
C1045  H1076   1.082   .     S
C1046  H1077   1.082   .     S
C1046  N1081   1.367   .     A
C1046  C112    1.416   1_556 S
C1047  N1081   1.367   .     A
C1047  H1078   1.082   .     S
C1047  C109    1.416   1_556 S
C1048  H1079   1.082   .     S
C1048  N1082   1.367   .     A
C1049  C1050   1.521   .     S
C1049  O1092   1.413   .     S
C1049  H1080   1.115   .     S
C1049  H960    1.113   1_655 S
C1050  H1067   1.110   .     S
C1050  H1066   1.110   .     S
C1050  H1065   1.111   .     S
C1051  O1084   1.413   .     S
C1051  C1053   1.521   .     S
C1051  H1069   1.115   .     S
C1052  O1087   1.290   .     A
C1052  O1085   1.291   .     A
C1053  H1072   1.111   .     S
C1053  H1070   1.110   .     S
C1053  H1071   1.110   .     S
C1054  O1090   1.290   .     A
C1054  C1056   1.440   .     S
C1054  O1088   1.282   .     A
C1055  O1091   1.290   .     A
C1055  O1089   1.282   .     A
C1055  C1057   1.440   .     S
C1057  C952    1.357   1_655 S
C1057  O980    1.389   1_655 S
C1058  H1063   1.083   .     S
C1058  C1372   1.383   1_545 S
C1059  H1073   1.083   .     S
C1059  C1198   1.383   .     S
C1060  H1074   1.083   .     S
C1060  C1214   1.383   .     S
Cu1061 O1088   1.972   .     S
Cu1061 Cu1062  2.675   .     S
Cu1061 N1081   2.010   .     S
Cu1061 O1091   1.973   .     S
Cu1061 O1083   1.965   .     S
Cu1061 O1087   1.964   .     S
Cu1062 O1090   1.973   .     S
Cu1062 N1082   2.010   .     S
Cu1062 O1086   1.964   .     S
Cu1062 O1085   1.965   .     S
Cu1062 O1089   1.972   .     S
H1068  C947    1.113   1_655 S
O1092  C952    1.389   1_655 S
C1093  C1096   1.449   .     S
C1093  O1135   1.291   .     A
C1093  O1138   1.290   .     A
C1094  H1127   1.083   .     S
C1094  C1096   1.401   .     A
C1095  C1111   1.401   .     A
C1095  C1112   1.401   .     A
C1095  C1104   1.449   .     S
C1096  C1110   1.401   .     A
C1097  N1134   1.367   .     A
C1097  H1128   1.082   .     S
C1098  H1129   1.082   .     S
C1098  N1133   1.367   .     A
C1098  C164    1.416   1_556 S
C1099  N1133   1.367   .     A
C1099  H1130   1.082   .     S
C1099  C161    1.416   1_556 S
C1100  H1131   1.082   .     S
C1100  N1134   1.367   .     A
C1101  C1102   1.521   .     S
C1101  O1144   1.413   .     S
C1101  H1132   1.115   .     S
C1101  H1168   1.113   .     S
C1102  H1119   1.110   .     S
C1102  H1118   1.110   .     S
C1102  H1117   1.111   .     S
C1103  O1136   1.413   .     S
C1103  C1105   1.521   .     S
C1103  H1121   1.115   .     S
C1103  H1224   1.113   1_455 S
C1104  O1139   1.290   .     A
C1104  O1137   1.291   .     A
C1105  H1124   1.111   .     S
C1105  H1122   1.110   .     S
C1105  H1123   1.110   .     S
C1106  O1142   1.290   .     A
C1106  C1108   1.440   .     S
C1106  O1140   1.282   .     A
C1107  O1143   1.290   .     A
C1107  O1141   1.282   .     A
C1107  C1109   1.440   .     S
C1108  C1213   1.357   1_455 S
C1108  O1248   1.389   1_455 S
C1109  C1160   1.357   .     S
C1109  O1188   1.389   .     S
C1110  H1115   1.083   .     S
C1111  H1125   1.083   .     S
C1111  C1250   1.383   .     S
C1112  H1126   1.083   .     S
C1112  C1266   1.383   .     S
Cu1113 O1140   1.972   .     S
Cu1113 Cu1114  2.675   .     S
Cu1113 N1133   2.010   .     S
Cu1113 O1143   1.973   .     S
Cu1113 O1135   1.965   .     S
Cu1113 O1139   1.964   .     S
Cu1114 O1142   1.973   .     S
Cu1114 N1134   2.010   .     S
Cu1114 O1138   1.964   .     S
Cu1114 O1137   1.965   .     S
Cu1114 O1141   1.972   .     S
H1116  C1205   1.113   1_455 S
H1120  C1155   1.113   .     S
O1136  C1213   1.389   1_455 S
O1144  C1160   1.389   .     S
C1145  C1148   1.449   .     S
C1145  O1187   1.291   .     A
C1145  O1190   1.290   .     A
C1146  H1179   1.083   .     S
C1146  C1148   1.401   .     A
C1147  C1163   1.401   .     A
C1147  C1164   1.401   .     A
C1147  C1156   1.449   .     S
C1148  C1162   1.401   .     A
C1149  N1186   1.367   .     A
C1149  H1180   1.082   .     S
C1150  H1181   1.082   .     S
C1150  N1185   1.367   .     A
C1150  C216    1.416   1_556 S
C1151  N1185   1.367   .     A
C1151  H1182   1.082   .     S
C1151  C213    1.416   1_556 S
C1152  H1183   1.082   .     S
C1152  N1186   1.367   .     A
C1153  C1154   1.521   .     S
C1153  O1196   1.413   .     S
C1153  H1184   1.115   .     S
C1153  H1220   1.113   .     S
C1154  H1171   1.110   .     S
C1154  H1170   1.110   .     S
C1154  H1169   1.111   .     S
C1155  O1188   1.413   .     S
C1155  C1157   1.521   .     S
C1155  H1173   1.115   .     S
C1156  O1191   1.290   .     A
C1156  O1189   1.291   .     A
C1157  H1176   1.111   .     S
C1157  H1174   1.110   .     S
C1157  H1175   1.110   .     S
C1158  O1194   1.290   .     A
C1158  C1160   1.440   .     S
C1158  O1192   1.282   .     A
C1159  O1195   1.290   .     A
C1159  O1193   1.282   .     A
C1159  C1161   1.440   .     S
C1161  C1212   1.357   .     S
C1161  O1240   1.389   .     S
C1162  H1167   1.083   .     S
C1163  H1177   1.083   .     S
C1163  C1302   1.383   .     S
C1164  H1178   1.083   .     S
C1164  C1318   1.383   .     S
Cu1165 O1192   1.972   .     S
Cu1165 Cu1166  2.675   .     S
Cu1165 N1185   2.010   .     S
Cu1165 O1195   1.973   .     S
Cu1165 O1187   1.965   .     S
Cu1165 O1191   1.964   .     S
Cu1166 O1194   1.973   .     S
Cu1166 N1186   2.010   .     S
Cu1166 O1190   1.964   .     S
Cu1166 O1189   1.965   .     S
Cu1166 O1193   1.972   .     S
H1172  C1207   1.113   .     S
O1196  C1212   1.389   .     S
C1197  C1200   1.449   .     S
C1197  O1239   1.291   .     A
C1197  O1242   1.290   .     A
C1198  H1231   1.083   .     S
C1198  C1200   1.401   .     A
C1199  C1215   1.401   .     A
C1199  C1216   1.401   .     A
C1199  C1208   1.449   .     S
C1200  C1214   1.401   .     A
C1201  N1238   1.367   .     A
C1201  H1232   1.082   .     S
C1202  H1233   1.082   .     S
C1202  N1237   1.367   .     A
C1202  C268    1.416   1_556 S
C1203  N1237   1.367   .     A
C1203  H1234   1.082   .     S
C1203  C265    1.416   1_556 S
C1204  H1235   1.082   .     S
C1204  N1238   1.367   .     A
C1205  C1206   1.521   .     S
C1205  O1248   1.413   .     S
C1205  H1236   1.115   .     S
C1205  H1116   1.113   1_655 S
C1206  H1223   1.110   .     S
C1206  H1222   1.110   .     S
C1206  H1221   1.111   .     S
C1207  O1240   1.413   .     S
C1207  C1209   1.521   .     S
C1207  H1225   1.115   .     S
C1208  O1243   1.290   .     A
C1208  O1241   1.291   .     A
C1209  H1228   1.111   .     S
C1209  H1226   1.110   .     S
C1209  H1227   1.110   .     S
C1210  O1246   1.290   .     A
C1210  C1212   1.440   .     S
C1210  O1244   1.282   .     A
C1211  O1247   1.290   .     A
C1211  O1245   1.282   .     A
C1211  C1213   1.440   .     S
C1213  C1108   1.357   1_655 S
C1213  O1136   1.389   1_655 S
C1214  H1219   1.083   .     S
C1215  H1229   1.083   .     S
C1215  C1354   1.383   .     S
C1216  H1230   1.083   .     S
C1216  C1370   1.383   .     S
Cu1217 O1244   1.972   .     S
Cu1217 Cu1218  2.675   .     S
Cu1217 N1237   2.010   .     S
Cu1217 O1247   1.973   .     S
Cu1217 O1239   1.965   .     S
Cu1217 O1243   1.964   .     S
Cu1218 O1246   1.973   .     S
Cu1218 N1238   2.010   .     S
Cu1218 O1242   1.964   .     S
Cu1218 O1241   1.965   .     S
Cu1218 O1245   1.972   .     S
H1224  C1103   1.113   1_655 S
O1248  C1108   1.389   1_655 S
C1249  C1252   1.449   .     S
C1249  O1291   1.291   .     A
C1249  O1294   1.290   .     A
C1250  H1283   1.083   .     S
C1250  C1252   1.401   .     A
C1251  C1267   1.401   .     A
C1251  C1268   1.401   .     A
C1251  C1260   1.449   .     S
C1252  C1266   1.401   .     A
C1253  N1290   1.367   .     A
C1253  H1284   1.082   .     S
C1254  H1285   1.082   .     S
C1254  N1289   1.367   .     A
C1254  C320    1.416   1_556 S
C1255  N1289   1.367   .     A
C1255  H1286   1.082   .     S
C1255  C317    1.416   1_556 S
C1256  H1287   1.082   .     S
C1256  N1290   1.367   .     A
C1257  C1258   1.521   .     S
C1257  O1300   1.413   .     S
C1257  H1288   1.115   .     S
C1257  H1324   1.113   .     S
C1258  H1275   1.110   .     S
C1258  H1274   1.110   .     S
C1258  H1273   1.111   .     S
C1259  O1292   1.413   .     S
C1259  C1261   1.521   .     S
C1259  H1277   1.115   .     S
C1259  H1380   1.113   1_455 S
C1260  O1295   1.290   .     A
C1260  O1293   1.291   .     A
C1261  H1280   1.111   .     S
C1261  H1278   1.110   .     S
C1261  H1279   1.110   .     S
C1262  O1298   1.290   .     A
C1262  C1264   1.440   .     S
C1262  O1296   1.282   .     A
C1263  O1299   1.290   .     A
C1263  O1297   1.282   .     A
C1263  C1265   1.440   .     S
C1264  C1369   1.357   1_455 S
C1264  O1404   1.389   1_455 S
C1265  C1316   1.357   .     S
C1265  O1344   1.389   .     S
C1266  H1271   1.083   .     S
C1267  H1281   1.083   .     S
C1267  C938    1.383   1_565 S
C1268  H1282   1.083   .     S
C1268  C954    1.383   1_565 S
Cu1269 O1296   1.972   .     S
Cu1269 Cu1270  2.675   .     S
Cu1269 N1289   2.010   .     S
Cu1269 O1299   1.973   .     S
Cu1269 O1291   1.965   .     S
Cu1269 O1295   1.964   .     S
Cu1270 O1298   1.973   .     S
Cu1270 N1290   2.010   .     S
Cu1270 O1294   1.964   .     S
Cu1270 O1293   1.965   .     S
Cu1270 O1297   1.972   .     S
H1272  C1361   1.113   1_455 S
H1276  C1311   1.113   .     S
O1292  C1369   1.389   1_455 S
O1300  C1316   1.389   .     S
C1301  C1304   1.449   .     S
C1301  O1343   1.291   .     A
C1301  O1346   1.290   .     A
C1302  H1335   1.083   .     S
C1302  C1304   1.401   .     A
C1303  C1319   1.401   .     A
C1303  C1320   1.401   .     A
C1303  C1312   1.449   .     S
C1304  C1318   1.401   .     A
C1305  N1342   1.367   .     A
C1305  H1336   1.082   .     S
C1306  H1337   1.082   .     S
C1306  N1341   1.367   .     A
C1306  C372    1.416   1_556 S
C1307  N1341   1.367   .     A
C1307  H1338   1.082   .     S
C1307  C369    1.416   1_556 S
C1308  H1339   1.082   .     S
C1308  N1342   1.367   .     A
C1309  C1310   1.521   .     S
C1309  O1352   1.413   .     S
C1309  H1340   1.115   .     S
C1309  H1376   1.113   .     S
C1310  H1327   1.110   .     S
C1310  H1326   1.110   .     S
C1310  H1325   1.111   .     S
C1311  O1344   1.413   .     S
C1311  C1313   1.521   .     S
C1311  H1329   1.115   .     S
C1312  O1347   1.290   .     A
C1312  O1345   1.291   .     A
C1313  H1332   1.111   .     S
C1313  H1330   1.110   .     S
C1313  H1331   1.110   .     S
C1314  O1350   1.290   .     A
C1314  C1316   1.440   .     S
C1314  O1348   1.282   .     A
C1315  O1351   1.290   .     A
C1315  O1349   1.282   .     A
C1315  C1317   1.440   .     S
C1317  C1368   1.357   .     S
C1317  O1396   1.389   .     S
C1318  H1323   1.083   .     S
C1319  H1333   1.083   .     S
C1319  C990    1.383   1_565 S
C1320  H1334   1.083   .     S
C1320  C1006   1.383   1_565 S
Cu1321 O1348   1.972   .     S
Cu1321 Cu1322  2.675   .     S
Cu1321 N1341   2.010   .     S
Cu1321 O1351   1.973   .     S
Cu1321 O1343   1.965   .     S
Cu1321 O1347   1.964   .     S
Cu1322 O1350   1.973   .     S
Cu1322 N1342   2.010   .     S
Cu1322 O1346   1.964   .     S
Cu1322 O1345   1.965   .     S
Cu1322 O1349   1.972   .     S
H1328  C1363   1.113   .     S
O1352  C1368   1.389   .     S
C1353  C1356   1.449   .     S
C1353  O1395   1.291   .     A
C1353  O1398   1.290   .     A
C1354  H1387   1.083   .     S
C1354  C1356   1.401   .     A
C1355  C1371   1.401   .     A
C1355  C1372   1.401   .     A
C1355  C1364   1.449   .     S
C1356  C1370   1.401   .     A
C1357  N1394   1.367   .     A
C1357  H1388   1.082   .     S
C1358  H1389   1.082   .     S
C1358  N1393   1.367   .     A
C1358  C424    1.416   1_556 S
C1359  N1393   1.367   .     A
C1359  H1390   1.082   .     S
C1359  C421    1.416   1_556 S
C1360  H1391   1.082   .     S
C1360  N1394   1.367   .     A
C1361  C1362   1.521   .     S
C1361  O1404   1.413   .     S
C1361  H1392   1.115   .     S
C1361  H1272   1.113   1_655 S
C1362  H1379   1.110   .     S
C1362  H1378   1.110   .     S
C1362  H1377   1.111   .     S
C1363  O1396   1.413   .     S
C1363  C1365   1.521   .     S
C1363  H1381   1.115   .     S
C1364  O1399   1.290   .     A
C1364  O1397   1.291   .     A
C1365  H1384   1.111   .     S
C1365  H1382   1.110   .     S
C1365  H1383   1.110   .     S
C1366  O1402   1.290   .     A
C1366  C1368   1.440   .     S
C1366  O1400   1.282   .     A
C1367  O1403   1.290   .     A
C1367  O1401   1.282   .     A
C1367  C1369   1.440   .     S
C1369  C1264   1.357   1_655 S
C1369  O1292   1.389   1_655 S
C1370  H1375   1.083   .     S
C1371  H1385   1.083   .     S
C1371  C1042   1.383   1_565 S
C1372  H1386   1.083   .     S
C1372  C1058   1.383   1_565 S
Cu1373 O1400   1.972   .     S
Cu1373 Cu1374  2.675   .     S
Cu1373 N1393   2.010   .     S
Cu1373 O1403   1.973   .     S
Cu1373 O1395   1.965   .     S
Cu1373 O1399   1.964   .     S
Cu1374 O1402   1.973   .     S
Cu1374 N1394   2.010   .     S
Cu1374 O1398   1.964   .     S
Cu1374 O1397   1.965   .     S
Cu1374 O1401   1.972   .     S
H1380  C1259   1.113   1_655 S
O1404  C1264   1.389   1_655 S
