data_str_m2_o1_o10_pcu_sym.26
_audit_creation_date              2020-01-03
_audit_creation_method            'Materials Studio'
_symmetry_space_group_name_H-M    'P1'
_symmetry_Int_Tables_number       1
_symmetry_cell_setting            triclinic
loop_
_symmetry_equiv_pos_as_xyz
  x,y,z
_cell_length_a                    26.4238
_cell_length_b                    32.4740
_cell_length_c                    28.6462
_cell_angle_alpha                 89.4341
_cell_angle_beta                  97.4662
_cell_angle_gamma                 90.9134
loop_
_atom_site_label
_atom_site_type_symbol
_atom_site_fract_x
_atom_site_fract_y
_atom_site_fract_z
_atom_site_U_iso_or_equiv
_atom_site_adp_type
_atom_site_occupancy
C1     C     0.16748   0.08747   0.16701   0.00000  Uiso   1.00
C2     C     0.19183   0.02042   0.20642   0.00000  Uiso   1.00
C3     C     0.16554   0.29051   0.16581   0.00000  Uiso   1.00
C4     C     0.16780   0.04282   0.16753   0.00000  Uiso   1.00
C5     C     0.13457   0.14106   0.02147   0.00000  Uiso   1.00
C6     C     0.19876   0.19227   0.31187   0.00000  Uiso   1.00
C7     C     0.13454   0.14094   0.30527   0.00000  Uiso   1.00
C8     C     0.19879   0.19239   0.02806   0.00000  Uiso   1.00
C9     C     0.32488   0.13932   0.10705   0.00000  Uiso   1.00
C10    C     0.00846   0.19401   0.22628   0.00000  Uiso   1.00
C11    C     0.11347   0.29322   0.08622   0.00000  Uiso   1.00
C12    C     0.16586   0.24587   0.16632   0.00000  Uiso   1.00
C13    C     0.21986   0.04012   0.24711   0.00000  Uiso   1.00
C14    C     0.10016   0.11305   0.27768   0.00000  Uiso   1.00
C15    C     0.23317   0.22028   0.05566   0.00000  Uiso   1.00
C16    C     0.06821   0.16607   0.15489   0.00000  Uiso   1.00
C17    C     0.26512   0.16726   0.17844   0.00000  Uiso   1.00
C18    C     0.01364   0.16099   0.14929   0.00000  Uiso   1.00
C19    C     0.31970   0.17234   0.18404   0.00000  Uiso   1.00
C20    C     0.14302   0.02225   0.12810   0.00000  Uiso   1.00
C21    C     0.19031   0.31109   0.20523   0.00000  Uiso   1.00
C22    C     0.14150   0.31291   0.12691   0.00000  Uiso   1.00
Cu23   Cu    0.16667   0.16667   0.21355   0.00000  Uiso   1.00
Cu24   Cu    0.16667   0.16666   0.11978   0.00000  Uiso   1.00
F25    F     0.10243   0.11541   0.04156   0.00000  Uiso   1.00
F26    F     0.23091   0.21792   0.29177   0.00000  Uiso   1.00
H27    H     0.12398   0.03953   0.09846   0.00000  Uiso   1.00
H28    H     0.20935   0.29380   0.23487   0.00000  Uiso   1.00
N29    N     0.16668   0.16668   0.28403   0.00000  Uiso   1.00
N30    N     0.16665   0.16666   0.04931   0.00000  Uiso   1.00
N31    N     0.30749   0.12208   0.07343   0.00000  Uiso   1.00
N32    N     0.02584   0.21126   0.25991   0.00000  Uiso   1.00
N33    N     0.09104   0.27746   0.05365   0.00000  Uiso   1.00
N34    N     0.24229   0.05587   0.27969   0.00000  Uiso   1.00
N35    N     0.07239   0.09052   0.25578   0.00000  Uiso   1.00
N36    N     0.26095   0.24282   0.07756   0.00000  Uiso   1.00
O37    O     0.16666   0.10655   0.20625   0.00000  Uiso   1.00
O38    O     0.16667   0.22678   0.12709   0.00000  Uiso   1.00
O39    O     0.16666   0.10654   0.12706   0.00000  Uiso   1.00
O40    O     0.16667   0.22679   0.20628   0.00000  Uiso   1.00
O41    O     0.09161   0.16667   0.19712   0.00000  Uiso   1.00
O42    O     0.24172   0.16666   0.13621   0.00000  Uiso   1.00
O43    O     0.09161   0.16666   0.11793   0.00000  Uiso   1.00
O44    O     0.24172   0.16667   0.21540   0.00000  Uiso   1.00
C45    C     0.50081   0.08747   0.16701   0.00000  Uiso   1.00
C46    C     0.52517   0.02042   0.20642   0.00000  Uiso   1.00
C47    C     0.49887   0.29051   0.16581   0.00000  Uiso   1.00
C48    C     0.50113   0.04282   0.16753   0.00000  Uiso   1.00
C49    C     0.46791   0.14106   0.02147   0.00000  Uiso   1.00
C50    C     0.53209   0.19227   0.31187   0.00000  Uiso   1.00
C51    C     0.46787   0.14094   0.30527   0.00000  Uiso   1.00
C52    C     0.53213   0.19239   0.02806   0.00000  Uiso   1.00
C53    C     0.65821   0.13932   0.10705   0.00000  Uiso   1.00
C54    C     0.34179   0.19401   0.22628   0.00000  Uiso   1.00
C55    C     0.44681   0.29322   0.08622   0.00000  Uiso   1.00
C56    C     0.49919   0.24587   0.16632   0.00000  Uiso   1.00
C57    C     0.55319   0.04012   0.24711   0.00000  Uiso   1.00
C58    C     0.43350   0.11305   0.27768   0.00000  Uiso   1.00
C59    C     0.56650   0.22028   0.05566   0.00000  Uiso   1.00
C60    C     0.40155   0.16607   0.15489   0.00000  Uiso   1.00
C61    C     0.59845   0.16726   0.17844   0.00000  Uiso   1.00
C62    C     0.34697   0.16099   0.14929   0.00000  Uiso   1.00
C63    C     0.65303   0.17234   0.18404   0.00000  Uiso   1.00
C64    C     0.47636   0.02225   0.12810   0.00000  Uiso   1.00
C65    C     0.52364   0.31109   0.20523   0.00000  Uiso   1.00
C66    C     0.47483   0.31291   0.12691   0.00000  Uiso   1.00
Cu67   Cu    0.50000   0.16667   0.21355   0.00000  Uiso   1.00
Cu68   Cu    0.50000   0.16666   0.11978   0.00000  Uiso   1.00
F69    F     0.43576   0.11541   0.04156   0.00000  Uiso   1.00
F70    F     0.56424   0.21792   0.29177   0.00000  Uiso   1.00
H71    H     0.45731   0.03953   0.09846   0.00000  Uiso   1.00
H72    H     0.54269   0.29380   0.23487   0.00000  Uiso   1.00
N73    N     0.50001   0.16668   0.28403   0.00000  Uiso   1.00
N74    N     0.49999   0.16666   0.04931   0.00000  Uiso   1.00
N75    N     0.64082   0.12208   0.07343   0.00000  Uiso   1.00
N76    N     0.35918   0.21126   0.25991   0.00000  Uiso   1.00
N77    N     0.42437   0.27746   0.05365   0.00000  Uiso   1.00
N78    N     0.57562   0.05587   0.27969   0.00000  Uiso   1.00
N79    N     0.40572   0.09052   0.25578   0.00000  Uiso   1.00
N80    N     0.59428   0.24282   0.07756   0.00000  Uiso   1.00
O81    O     0.50000   0.10655   0.20625   0.00000  Uiso   1.00
O82    O     0.50000   0.22678   0.12709   0.00000  Uiso   1.00
O83    O     0.50000   0.10654   0.12706   0.00000  Uiso   1.00
O84    O     0.50000   0.22679   0.20628   0.00000  Uiso   1.00
O85    O     0.42495   0.16667   0.19712   0.00000  Uiso   1.00
O86    O     0.57505   0.16666   0.13621   0.00000  Uiso   1.00
O87    O     0.42494   0.16666   0.11793   0.00000  Uiso   1.00
O88    O     0.57506   0.16667   0.21540   0.00000  Uiso   1.00
C89    C     0.83414   0.08747   0.16701   0.00000  Uiso   1.00
C90    C     0.85850   0.02042   0.20642   0.00000  Uiso   1.00
C91    C     0.83220   0.29051   0.16581   0.00000  Uiso   1.00
C92    C     0.83446   0.04282   0.16753   0.00000  Uiso   1.00
C93    C     0.80124   0.14106   0.02147   0.00000  Uiso   1.00
C94    C     0.86543   0.19227   0.31187   0.00000  Uiso   1.00
C95    C     0.80120   0.14094   0.30527   0.00000  Uiso   1.00
C96    C     0.86546   0.19239   0.02806   0.00000  Uiso   1.00
C97    C     0.99154   0.13932   0.10705   0.00000  Uiso   1.00
C98    C     0.67512   0.19401   0.22628   0.00000  Uiso   1.00
C99    C     0.78014   0.29322   0.08622   0.00000  Uiso   1.00
C100   C     0.83252   0.24587   0.16632   0.00000  Uiso   1.00
C101   C     0.88652   0.04012   0.24711   0.00000  Uiso   1.00
C102   C     0.76683   0.11305   0.27768   0.00000  Uiso   1.00
C103   C     0.89984   0.22028   0.05566   0.00000  Uiso   1.00
C104   C     0.73488   0.16607   0.15489   0.00000  Uiso   1.00
C105   C     0.93179   0.16726   0.17844   0.00000  Uiso   1.00
C106   C     0.68030   0.16099   0.14929   0.00000  Uiso   1.00
C107   C     0.98636   0.17234   0.18404   0.00000  Uiso   1.00
C108   C     0.80969   0.02225   0.12810   0.00000  Uiso   1.00
C109   C     0.85698   0.31109   0.20523   0.00000  Uiso   1.00
C110   C     0.80817   0.31291   0.12691   0.00000  Uiso   1.00
Cu111  Cu    0.83333   0.16667   0.21355   0.00000  Uiso   1.00
Cu112  Cu    0.83333   0.16666   0.11978   0.00000  Uiso   1.00
F113   F     0.76909   0.11541   0.04156   0.00000  Uiso   1.00
F114   F     0.89757   0.21792   0.29177   0.00000  Uiso   1.00
H115   H     0.79064   0.03953   0.09846   0.00000  Uiso   1.00
H116   H     0.87602   0.29380   0.23487   0.00000  Uiso   1.00
N117   N     0.83335   0.16668   0.28403   0.00000  Uiso   1.00
N118   N     0.83332   0.16666   0.04931   0.00000  Uiso   1.00
N119   N     0.97416   0.12208   0.07343   0.00000  Uiso   1.00
N120   N     0.69251   0.21126   0.25991   0.00000  Uiso   1.00
N121   N     0.75771   0.27746   0.05365   0.00000  Uiso   1.00
N122   N     0.90895   0.05587   0.27969   0.00000  Uiso   1.00
N123   N     0.73905   0.09052   0.25578   0.00000  Uiso   1.00
N124   N     0.92761   0.24282   0.07756   0.00000  Uiso   1.00
O125   O     0.83333   0.10655   0.20625   0.00000  Uiso   1.00
O126   O     0.83334   0.22678   0.12709   0.00000  Uiso   1.00
O127   O     0.83333   0.10654   0.12706   0.00000  Uiso   1.00
O128   O     0.83334   0.22679   0.20628   0.00000  Uiso   1.00
O129   O     0.75828   0.16667   0.19712   0.00000  Uiso   1.00
O130   O     0.90839   0.16666   0.13621   0.00000  Uiso   1.00
O131   O     0.75828   0.16666   0.11793   0.00000  Uiso   1.00
O132   O     0.90839   0.16667   0.21540   0.00000  Uiso   1.00
C133   C     0.16748   0.42080   0.16701   0.00000  Uiso   1.00
C134   C     0.19183   0.35376   0.20642   0.00000  Uiso   1.00
C135   C     0.16554   0.62385   0.16581   0.00000  Uiso   1.00
C136   C     0.16780   0.37615   0.16753   0.00000  Uiso   1.00
C137   C     0.13457   0.47439   0.02147   0.00000  Uiso   1.00
C138   C     0.19876   0.52561   0.31187   0.00000  Uiso   1.00
C139   C     0.13454   0.47428   0.30527   0.00000  Uiso   1.00
C140   C     0.19879   0.52572   0.02806   0.00000  Uiso   1.00
C141   C     0.32488   0.47266   0.10705   0.00000  Uiso   1.00
C142   C     0.00846   0.52734   0.22628   0.00000  Uiso   1.00
C143   C     0.11347   0.62655   0.08622   0.00000  Uiso   1.00
C144   C     0.16586   0.57920   0.16632   0.00000  Uiso   1.00
C145   C     0.21986   0.37345   0.24711   0.00000  Uiso   1.00
C146   C     0.10016   0.44639   0.27768   0.00000  Uiso   1.00
C147   C     0.23317   0.55361   0.05566   0.00000  Uiso   1.00
C148   C     0.06821   0.49940   0.15489   0.00000  Uiso   1.00
C149   C     0.26512   0.50060   0.17844   0.00000  Uiso   1.00
C150   C     0.01364   0.49432   0.14929   0.00000  Uiso   1.00
C151   C     0.31970   0.50568   0.18404   0.00000  Uiso   1.00
C152   C     0.14302   0.35558   0.12810   0.00000  Uiso   1.00
C153   C     0.19031   0.64442   0.20523   0.00000  Uiso   1.00
C154   C     0.14150   0.64624   0.12691   0.00000  Uiso   1.00
Cu155  Cu    0.16667   0.50001   0.21355   0.00000  Uiso   1.00
Cu156  Cu    0.16667   0.49999   0.11978   0.00000  Uiso   1.00
F157   F     0.10243   0.44874   0.04156   0.00000  Uiso   1.00
F158   F     0.23091   0.55126   0.29177   0.00000  Uiso   1.00
H159   H     0.12398   0.37286   0.09846   0.00000  Uiso   1.00
H160   H     0.20935   0.62714   0.23487   0.00000  Uiso   1.00
N161   N     0.16668   0.50001   0.28403   0.00000  Uiso   1.00
N162   N     0.16665   0.49999   0.04931   0.00000  Uiso   1.00
N163   N     0.30749   0.45541   0.07343   0.00000  Uiso   1.00
N164   N     0.02584   0.54459   0.25991   0.00000  Uiso   1.00
N165   N     0.09104   0.61080   0.05365   0.00000  Uiso   1.00
N166   N     0.24229   0.38920   0.27969   0.00000  Uiso   1.00
N167   N     0.07239   0.42385   0.25578   0.00000  Uiso   1.00
N168   N     0.26095   0.57615   0.07756   0.00000  Uiso   1.00
O169   O     0.16666   0.43989   0.20625   0.00000  Uiso   1.00
O170   O     0.16667   0.56011   0.12709   0.00000  Uiso   1.00
O171   O     0.16666   0.43988   0.12706   0.00000  Uiso   1.00
O172   O     0.16667   0.56012   0.20628   0.00000  Uiso   1.00
O173   O     0.09161   0.50000   0.19712   0.00000  Uiso   1.00
O174   O     0.24172   0.50000   0.13621   0.00000  Uiso   1.00
O175   O     0.09161   0.49999   0.11793   0.00000  Uiso   1.00
O176   O     0.24172   0.50001   0.21540   0.00000  Uiso   1.00
C177   C     0.50081   0.42080   0.16701   0.00000  Uiso   1.00
C178   C     0.52517   0.35376   0.20642   0.00000  Uiso   1.00
C179   C     0.49887   0.62385   0.16581   0.00000  Uiso   1.00
C180   C     0.50113   0.37615   0.16753   0.00000  Uiso   1.00
C181   C     0.46791   0.47439   0.02147   0.00000  Uiso   1.00
C182   C     0.53209   0.52561   0.31187   0.00000  Uiso   1.00
C183   C     0.46787   0.47428   0.30527   0.00000  Uiso   1.00
C184   C     0.53213   0.52572   0.02806   0.00000  Uiso   1.00
C185   C     0.65821   0.47266   0.10705   0.00000  Uiso   1.00
C186   C     0.34179   0.52734   0.22628   0.00000  Uiso   1.00
C187   C     0.44681   0.62655   0.08622   0.00000  Uiso   1.00
C188   C     0.49919   0.57920   0.16632   0.00000  Uiso   1.00
C189   C     0.55319   0.37345   0.24711   0.00000  Uiso   1.00
C190   C     0.43350   0.44639   0.27768   0.00000  Uiso   1.00
C191   C     0.56650   0.55361   0.05566   0.00000  Uiso   1.00
C192   C     0.40155   0.49940   0.15489   0.00000  Uiso   1.00
C193   C     0.59845   0.50060   0.17844   0.00000  Uiso   1.00
C194   C     0.34697   0.49432   0.14929   0.00000  Uiso   1.00
C195   C     0.65303   0.50568   0.18404   0.00000  Uiso   1.00
C196   C     0.47636   0.35558   0.12810   0.00000  Uiso   1.00
C197   C     0.52364   0.64442   0.20523   0.00000  Uiso   1.00
C198   C     0.47483   0.64624   0.12691   0.00000  Uiso   1.00
Cu199  Cu    0.50000   0.50001   0.21355   0.00000  Uiso   1.00
Cu200  Cu    0.50000   0.49999   0.11978   0.00000  Uiso   1.00
F201   F     0.43576   0.44874   0.04156   0.00000  Uiso   1.00
F202   F     0.56424   0.55126   0.29177   0.00000  Uiso   1.00
H203   H     0.45731   0.37286   0.09846   0.00000  Uiso   1.00
H204   H     0.54269   0.62714   0.23487   0.00000  Uiso   1.00
N205   N     0.50001   0.50001   0.28403   0.00000  Uiso   1.00
N206   N     0.49999   0.49999   0.04931   0.00000  Uiso   1.00
N207   N     0.64082   0.45541   0.07343   0.00000  Uiso   1.00
N208   N     0.35918   0.54459   0.25991   0.00000  Uiso   1.00
N209   N     0.42437   0.61080   0.05365   0.00000  Uiso   1.00
N210   N     0.57562   0.38920   0.27969   0.00000  Uiso   1.00
N211   N     0.40572   0.42385   0.25578   0.00000  Uiso   1.00
N212   N     0.59428   0.57615   0.07756   0.00000  Uiso   1.00
O213   O     0.50000   0.43989   0.20625   0.00000  Uiso   1.00
O214   O     0.50000   0.56011   0.12709   0.00000  Uiso   1.00
O215   O     0.50000   0.43988   0.12706   0.00000  Uiso   1.00
O216   O     0.50000   0.56012   0.20628   0.00000  Uiso   1.00
O217   O     0.42495   0.50000   0.19712   0.00000  Uiso   1.00
O218   O     0.57505   0.50000   0.13621   0.00000  Uiso   1.00
O219   O     0.42494   0.49999   0.11793   0.00000  Uiso   1.00
O220   O     0.57506   0.50001   0.21540   0.00000  Uiso   1.00
C221   C     0.83414   0.42080   0.16701   0.00000  Uiso   1.00
C222   C     0.85850   0.35376   0.20642   0.00000  Uiso   1.00
C223   C     0.83220   0.62385   0.16581   0.00000  Uiso   1.00
C224   C     0.83446   0.37615   0.16753   0.00000  Uiso   1.00
C225   C     0.80124   0.47439   0.02147   0.00000  Uiso   1.00
C226   C     0.86543   0.52561   0.31187   0.00000  Uiso   1.00
C227   C     0.80120   0.47428   0.30527   0.00000  Uiso   1.00
C228   C     0.86546   0.52572   0.02806   0.00000  Uiso   1.00
C229   C     0.99154   0.47266   0.10705   0.00000  Uiso   1.00
C230   C     0.67512   0.52734   0.22628   0.00000  Uiso   1.00
C231   C     0.78014   0.62655   0.08622   0.00000  Uiso   1.00
C232   C     0.83252   0.57920   0.16632   0.00000  Uiso   1.00
C233   C     0.88652   0.37345   0.24711   0.00000  Uiso   1.00
C234   C     0.76683   0.44639   0.27768   0.00000  Uiso   1.00
C235   C     0.89984   0.55361   0.05566   0.00000  Uiso   1.00
C236   C     0.73488   0.49940   0.15489   0.00000  Uiso   1.00
C237   C     0.93179   0.50060   0.17844   0.00000  Uiso   1.00
C238   C     0.68030   0.49432   0.14929   0.00000  Uiso   1.00
C239   C     0.98636   0.50568   0.18404   0.00000  Uiso   1.00
C240   C     0.80969   0.35558   0.12810   0.00000  Uiso   1.00
C241   C     0.85698   0.64442   0.20523   0.00000  Uiso   1.00
C242   C     0.80817   0.64624   0.12691   0.00000  Uiso   1.00
Cu243  Cu    0.83333   0.50001   0.21355   0.00000  Uiso   1.00
Cu244  Cu    0.83333   0.49999   0.11978   0.00000  Uiso   1.00
F245   F     0.76909   0.44874   0.04156   0.00000  Uiso   1.00
F246   F     0.89757   0.55126   0.29177   0.00000  Uiso   1.00
H247   H     0.79064   0.37286   0.09846   0.00000  Uiso   1.00
H248   H     0.87602   0.62714   0.23487   0.00000  Uiso   1.00
N249   N     0.83335   0.50001   0.28403   0.00000  Uiso   1.00
N250   N     0.83332   0.49999   0.04931   0.00000  Uiso   1.00
N251   N     0.97416   0.45541   0.07343   0.00000  Uiso   1.00
N252   N     0.69251   0.54459   0.25991   0.00000  Uiso   1.00
N253   N     0.75771   0.61080   0.05365   0.00000  Uiso   1.00
N254   N     0.90895   0.38920   0.27969   0.00000  Uiso   1.00
N255   N     0.73905   0.42385   0.25578   0.00000  Uiso   1.00
N256   N     0.92761   0.57615   0.07756   0.00000  Uiso   1.00
O257   O     0.83333   0.43989   0.20625   0.00000  Uiso   1.00
O258   O     0.83334   0.56011   0.12709   0.00000  Uiso   1.00
O259   O     0.83333   0.43988   0.12706   0.00000  Uiso   1.00
O260   O     0.83334   0.56012   0.20628   0.00000  Uiso   1.00
O261   O     0.75828   0.50000   0.19712   0.00000  Uiso   1.00
O262   O     0.90839   0.50000   0.13621   0.00000  Uiso   1.00
O263   O     0.75828   0.49999   0.11793   0.00000  Uiso   1.00
O264   O     0.90839   0.50001   0.21540   0.00000  Uiso   1.00
C265   C     0.16748   0.75413   0.16701   0.00000  Uiso   1.00
C266   C     0.19183   0.68709   0.20642   0.00000  Uiso   1.00
C267   C     0.16554   0.95718   0.16581   0.00000  Uiso   1.00
C268   C     0.16780   0.70949   0.16753   0.00000  Uiso   1.00
C269   C     0.13457   0.80773   0.02147   0.00000  Uiso   1.00
C270   C     0.19876   0.85894   0.31187   0.00000  Uiso   1.00
C271   C     0.13454   0.80761   0.30527   0.00000  Uiso   1.00
C272   C     0.19879   0.85906   0.02806   0.00000  Uiso   1.00
C273   C     0.32488   0.80599   0.10705   0.00000  Uiso   1.00
C274   C     0.00846   0.86068   0.22628   0.00000  Uiso   1.00
C275   C     0.11347   0.95988   0.08622   0.00000  Uiso   1.00
C276   C     0.16586   0.91253   0.16632   0.00000  Uiso   1.00
C277   C     0.21986   0.70678   0.24711   0.00000  Uiso   1.00
C278   C     0.10016   0.77972   0.27768   0.00000  Uiso   1.00
C279   C     0.23317   0.88695   0.05566   0.00000  Uiso   1.00
C280   C     0.06821   0.83274   0.15489   0.00000  Uiso   1.00
C281   C     0.26512   0.83393   0.17844   0.00000  Uiso   1.00
C282   C     0.01364   0.82766   0.14929   0.00000  Uiso   1.00
C283   C     0.31970   0.83901   0.18404   0.00000  Uiso   1.00
C284   C     0.14302   0.68891   0.12810   0.00000  Uiso   1.00
C285   C     0.19031   0.97775   0.20523   0.00000  Uiso   1.00
C286   C     0.14150   0.97958   0.12691   0.00000  Uiso   1.00
Cu287  Cu    0.16667   0.83334   0.21355   0.00000  Uiso   1.00
Cu288  Cu    0.16667   0.83333   0.11978   0.00000  Uiso   1.00
F289   F     0.10243   0.78208   0.04156   0.00000  Uiso   1.00
F290   F     0.23091   0.88459   0.29177   0.00000  Uiso   1.00
H291   H     0.12398   0.70620   0.09846   0.00000  Uiso   1.00
H292   H     0.20935   0.96047   0.23487   0.00000  Uiso   1.00
N293   N     0.16668   0.83334   0.28403   0.00000  Uiso   1.00
N294   N     0.16665   0.83332   0.04931   0.00000  Uiso   1.00
N295   N     0.30749   0.78874   0.07343   0.00000  Uiso   1.00
N296   N     0.02584   0.87792   0.25991   0.00000  Uiso   1.00
N297   N     0.09104   0.94413   0.05365   0.00000  Uiso   1.00
N298   N     0.24229   0.72253   0.27969   0.00000  Uiso   1.00
N299   N     0.07239   0.75718   0.25578   0.00000  Uiso   1.00
N300   N     0.26095   0.90948   0.07756   0.00000  Uiso   1.00
O301   O     0.16666   0.77322   0.20625   0.00000  Uiso   1.00
O302   O     0.16667   0.89345   0.12709   0.00000  Uiso   1.00
O303   O     0.16666   0.77321   0.12706   0.00000  Uiso   1.00
O304   O     0.16667   0.89346   0.20628   0.00000  Uiso   1.00
O305   O     0.09161   0.83334   0.19712   0.00000  Uiso   1.00
O306   O     0.24172   0.83333   0.13621   0.00000  Uiso   1.00
O307   O     0.09161   0.83333   0.11793   0.00000  Uiso   1.00
O308   O     0.24172   0.83334   0.21540   0.00000  Uiso   1.00
C309   C     0.50081   0.75413   0.16701   0.00000  Uiso   1.00
C310   C     0.52517   0.68709   0.20642   0.00000  Uiso   1.00
C311   C     0.49887   0.95718   0.16581   0.00000  Uiso   1.00
C312   C     0.50113   0.70949   0.16753   0.00000  Uiso   1.00
C313   C     0.46791   0.80773   0.02147   0.00000  Uiso   1.00
C314   C     0.53209   0.85894   0.31187   0.00000  Uiso   1.00
C315   C     0.46787   0.80761   0.30527   0.00000  Uiso   1.00
C316   C     0.53213   0.85906   0.02806   0.00000  Uiso   1.00
C317   C     0.65821   0.80599   0.10705   0.00000  Uiso   1.00
C318   C     0.34179   0.86068   0.22628   0.00000  Uiso   1.00
C319   C     0.44681   0.95988   0.08622   0.00000  Uiso   1.00
C320   C     0.49919   0.91253   0.16632   0.00000  Uiso   1.00
C321   C     0.55319   0.70678   0.24711   0.00000  Uiso   1.00
C322   C     0.43350   0.77972   0.27768   0.00000  Uiso   1.00
C323   C     0.56650   0.88695   0.05566   0.00000  Uiso   1.00
C324   C     0.40155   0.83274   0.15489   0.00000  Uiso   1.00
C325   C     0.59845   0.83393   0.17844   0.00000  Uiso   1.00
C326   C     0.34697   0.82766   0.14929   0.00000  Uiso   1.00
C327   C     0.65303   0.83901   0.18404   0.00000  Uiso   1.00
C328   C     0.47636   0.68891   0.12810   0.00000  Uiso   1.00
C329   C     0.52364   0.97775   0.20523   0.00000  Uiso   1.00
C330   C     0.47483   0.97958   0.12691   0.00000  Uiso   1.00
Cu331  Cu    0.50000   0.83334   0.21355   0.00000  Uiso   1.00
Cu332  Cu    0.50000   0.83333   0.11978   0.00000  Uiso   1.00
F333   F     0.43576   0.78208   0.04156   0.00000  Uiso   1.00
F334   F     0.56424   0.88459   0.29177   0.00000  Uiso   1.00
H335   H     0.45731   0.70620   0.09846   0.00000  Uiso   1.00
H336   H     0.54269   0.96047   0.23487   0.00000  Uiso   1.00
N337   N     0.50001   0.83334   0.28403   0.00000  Uiso   1.00
N338   N     0.49999   0.83332   0.04931   0.00000  Uiso   1.00
N339   N     0.64082   0.78874   0.07343   0.00000  Uiso   1.00
N340   N     0.35918   0.87792   0.25991   0.00000  Uiso   1.00
N341   N     0.42437   0.94413   0.05365   0.00000  Uiso   1.00
N342   N     0.57562   0.72253   0.27969   0.00000  Uiso   1.00
N343   N     0.40572   0.75718   0.25578   0.00000  Uiso   1.00
N344   N     0.59428   0.90948   0.07756   0.00000  Uiso   1.00
O345   O     0.50000   0.77322   0.20625   0.00000  Uiso   1.00
O346   O     0.50000   0.89345   0.12709   0.00000  Uiso   1.00
O347   O     0.50000   0.77321   0.12706   0.00000  Uiso   1.00
O348   O     0.50000   0.89346   0.20628   0.00000  Uiso   1.00
O349   O     0.42495   0.83334   0.19712   0.00000  Uiso   1.00
O350   O     0.57505   0.83333   0.13621   0.00000  Uiso   1.00
O351   O     0.42494   0.83333   0.11793   0.00000  Uiso   1.00
O352   O     0.57506   0.83334   0.21540   0.00000  Uiso   1.00
C353   C     0.83414   0.75413   0.16701   0.00000  Uiso   1.00
C354   C     0.85850   0.68709   0.20642   0.00000  Uiso   1.00
C355   C     0.83220   0.95718   0.16581   0.00000  Uiso   1.00
C356   C     0.83446   0.70949   0.16753   0.00000  Uiso   1.00
C357   C     0.80124   0.80773   0.02147   0.00000  Uiso   1.00
C358   C     0.86543   0.85894   0.31187   0.00000  Uiso   1.00
C359   C     0.80120   0.80761   0.30527   0.00000  Uiso   1.00
C360   C     0.86546   0.85906   0.02806   0.00000  Uiso   1.00
C361   C     0.99154   0.80599   0.10705   0.00000  Uiso   1.00
C362   C     0.67512   0.86068   0.22628   0.00000  Uiso   1.00
C363   C     0.78014   0.95988   0.08622   0.00000  Uiso   1.00
C364   C     0.83252   0.91253   0.16632   0.00000  Uiso   1.00
C365   C     0.88652   0.70678   0.24711   0.00000  Uiso   1.00
C366   C     0.76683   0.77972   0.27768   0.00000  Uiso   1.00
C367   C     0.89984   0.88695   0.05566   0.00000  Uiso   1.00
C368   C     0.73488   0.83274   0.15489   0.00000  Uiso   1.00
C369   C     0.93179   0.83393   0.17844   0.00000  Uiso   1.00
C370   C     0.68030   0.82766   0.14929   0.00000  Uiso   1.00
C371   C     0.98636   0.83901   0.18404   0.00000  Uiso   1.00
C372   C     0.80969   0.68891   0.12810   0.00000  Uiso   1.00
C373   C     0.85698   0.97775   0.20523   0.00000  Uiso   1.00
C374   C     0.80817   0.97958   0.12691   0.00000  Uiso   1.00
Cu375  Cu    0.83333   0.83334   0.21355   0.00000  Uiso   1.00
Cu376  Cu    0.83333   0.83333   0.11978   0.00000  Uiso   1.00
F377   F     0.76909   0.78208   0.04156   0.00000  Uiso   1.00
F378   F     0.89757   0.88459   0.29177   0.00000  Uiso   1.00
H379   H     0.79064   0.70620   0.09846   0.00000  Uiso   1.00
H380   H     0.87602   0.96047   0.23487   0.00000  Uiso   1.00
N381   N     0.83335   0.83334   0.28403   0.00000  Uiso   1.00
N382   N     0.83332   0.83332   0.04931   0.00000  Uiso   1.00
N383   N     0.97416   0.78874   0.07343   0.00000  Uiso   1.00
N384   N     0.69251   0.87792   0.25991   0.00000  Uiso   1.00
N385   N     0.75771   0.94413   0.05365   0.00000  Uiso   1.00
N386   N     0.90895   0.72253   0.27969   0.00000  Uiso   1.00
N387   N     0.73905   0.75718   0.25578   0.00000  Uiso   1.00
N388   N     0.92761   0.90948   0.07756   0.00000  Uiso   1.00
O389   O     0.83333   0.77322   0.20625   0.00000  Uiso   1.00
O390   O     0.83334   0.89345   0.12709   0.00000  Uiso   1.00
O391   O     0.83333   0.77321   0.12706   0.00000  Uiso   1.00
O392   O     0.83334   0.89346   0.20628   0.00000  Uiso   1.00
O393   O     0.75828   0.83334   0.19712   0.00000  Uiso   1.00
O394   O     0.90839   0.83333   0.13621   0.00000  Uiso   1.00
O395   O     0.75828   0.83333   0.11793   0.00000  Uiso   1.00
O396   O     0.90839   0.83334   0.21540   0.00000  Uiso   1.00
C397   C     0.16748   0.08747   0.50034   0.00000  Uiso   1.00
C398   C     0.19183   0.02042   0.53975   0.00000  Uiso   1.00
C399   C     0.16554   0.29051   0.49914   0.00000  Uiso   1.00
C400   C     0.16780   0.04282   0.50086   0.00000  Uiso   1.00
C401   C     0.13457   0.14106   0.35480   0.00000  Uiso   1.00
C402   C     0.19876   0.19227   0.64520   0.00000  Uiso   1.00
C403   C     0.13454   0.14094   0.63861   0.00000  Uiso   1.00
C404   C     0.19879   0.19239   0.36139   0.00000  Uiso   1.00
C405   C     0.32488   0.13932   0.44039   0.00000  Uiso   1.00
C406   C     0.00846   0.19401   0.55961   0.00000  Uiso   1.00
C407   C     0.11347   0.29322   0.41956   0.00000  Uiso   1.00
C408   C     0.16586   0.24587   0.49966   0.00000  Uiso   1.00
C409   C     0.21986   0.04012   0.58045   0.00000  Uiso   1.00
C410   C     0.10016   0.11305   0.61101   0.00000  Uiso   1.00
C411   C     0.23317   0.22028   0.38899   0.00000  Uiso   1.00
C412   C     0.06821   0.16607   0.48823   0.00000  Uiso   1.00
C413   C     0.26512   0.16726   0.51177   0.00000  Uiso   1.00
C414   C     0.01364   0.16099   0.48262   0.00000  Uiso   1.00
C415   C     0.31970   0.17234   0.51738   0.00000  Uiso   1.00
C416   C     0.14302   0.02225   0.46143   0.00000  Uiso   1.00
C417   C     0.19031   0.31109   0.53857   0.00000  Uiso   1.00
C418   C     0.14150   0.31291   0.46025   0.00000  Uiso   1.00
Cu419  Cu    0.16667   0.16667   0.54689   0.00000  Uiso   1.00
Cu420  Cu    0.16667   0.16666   0.45311   0.00000  Uiso   1.00
F421   F     0.10243   0.11541   0.37489   0.00000  Uiso   1.00
F422   F     0.23091   0.21792   0.62511   0.00000  Uiso   1.00
H423   H     0.12398   0.03953   0.43179   0.00000  Uiso   1.00
H424   H     0.20935   0.29380   0.56821   0.00000  Uiso   1.00
N425   N     0.16668   0.16668   0.61736   0.00000  Uiso   1.00
N426   N     0.16665   0.16666   0.38264   0.00000  Uiso   1.00
N427   N     0.30749   0.12208   0.40676   0.00000  Uiso   1.00
N428   N     0.02584   0.21126   0.59324   0.00000  Uiso   1.00
N429   N     0.09104   0.27746   0.38698   0.00000  Uiso   1.00
N430   N     0.24229   0.05587   0.61302   0.00000  Uiso   1.00
N431   N     0.07239   0.09052   0.58911   0.00000  Uiso   1.00
N432   N     0.26095   0.24282   0.41089   0.00000  Uiso   1.00
O433   O     0.16666   0.10655   0.53958   0.00000  Uiso   1.00
O434   O     0.16667   0.22678   0.46042   0.00000  Uiso   1.00
O435   O     0.16666   0.10654   0.46039   0.00000  Uiso   1.00
O436   O     0.16667   0.22679   0.53961   0.00000  Uiso   1.00
O437   O     0.09161   0.16667   0.53046   0.00000  Uiso   1.00
O438   O     0.24172   0.16666   0.46954   0.00000  Uiso   1.00
O439   O     0.09161   0.16666   0.45127   0.00000  Uiso   1.00
O440   O     0.24172   0.16667   0.54873   0.00000  Uiso   1.00
C441   C     0.50081   0.08747   0.50034   0.00000  Uiso   1.00
C442   C     0.52517   0.02042   0.53975   0.00000  Uiso   1.00
C443   C     0.49887   0.29051   0.49914   0.00000  Uiso   1.00
C444   C     0.50113   0.04282   0.50086   0.00000  Uiso   1.00
C445   C     0.46791   0.14106   0.35480   0.00000  Uiso   1.00
C446   C     0.53209   0.19227   0.64520   0.00000  Uiso   1.00
C447   C     0.46787   0.14094   0.63861   0.00000  Uiso   1.00
C448   C     0.53213   0.19239   0.36139   0.00000  Uiso   1.00
C449   C     0.65821   0.13932   0.44039   0.00000  Uiso   1.00
C450   C     0.34179   0.19401   0.55961   0.00000  Uiso   1.00
C451   C     0.44681   0.29322   0.41956   0.00000  Uiso   1.00
C452   C     0.49919   0.24587   0.49966   0.00000  Uiso   1.00
C453   C     0.55319   0.04012   0.58045   0.00000  Uiso   1.00
C454   C     0.43350   0.11305   0.61101   0.00000  Uiso   1.00
C455   C     0.56650   0.22028   0.38899   0.00000  Uiso   1.00
C456   C     0.40155   0.16607   0.48823   0.00000  Uiso   1.00
C457   C     0.59845   0.16726   0.51177   0.00000  Uiso   1.00
C458   C     0.34697   0.16099   0.48262   0.00000  Uiso   1.00
C459   C     0.65303   0.17234   0.51738   0.00000  Uiso   1.00
C460   C     0.47636   0.02225   0.46143   0.00000  Uiso   1.00
C461   C     0.52364   0.31109   0.53857   0.00000  Uiso   1.00
C462   C     0.47483   0.31291   0.46025   0.00000  Uiso   1.00
Cu463  Cu    0.50000   0.16667   0.54689   0.00000  Uiso   1.00
Cu464  Cu    0.50000   0.16666   0.45311   0.00000  Uiso   1.00
F465   F     0.43576   0.11541   0.37489   0.00000  Uiso   1.00
F466   F     0.56424   0.21792   0.62511   0.00000  Uiso   1.00
H467   H     0.45731   0.03953   0.43179   0.00000  Uiso   1.00
H468   H     0.54269   0.29380   0.56821   0.00000  Uiso   1.00
N469   N     0.50001   0.16668   0.61736   0.00000  Uiso   1.00
N470   N     0.49999   0.16666   0.38264   0.00000  Uiso   1.00
N471   N     0.64082   0.12208   0.40676   0.00000  Uiso   1.00
N472   N     0.35918   0.21126   0.59324   0.00000  Uiso   1.00
N473   N     0.42437   0.27746   0.38698   0.00000  Uiso   1.00
N474   N     0.57562   0.05587   0.61302   0.00000  Uiso   1.00
N475   N     0.40572   0.09052   0.58911   0.00000  Uiso   1.00
N476   N     0.59428   0.24282   0.41089   0.00000  Uiso   1.00
O477   O     0.50000   0.10655   0.53958   0.00000  Uiso   1.00
O478   O     0.50000   0.22678   0.46042   0.00000  Uiso   1.00
O479   O     0.50000   0.10654   0.46039   0.00000  Uiso   1.00
O480   O     0.50000   0.22679   0.53961   0.00000  Uiso   1.00
O481   O     0.42495   0.16667   0.53046   0.00000  Uiso   1.00
O482   O     0.57505   0.16666   0.46954   0.00000  Uiso   1.00
O483   O     0.42494   0.16666   0.45127   0.00000  Uiso   1.00
O484   O     0.57506   0.16667   0.54873   0.00000  Uiso   1.00
C485   C     0.83414   0.08747   0.50034   0.00000  Uiso   1.00
C486   C     0.85850   0.02042   0.53975   0.00000  Uiso   1.00
C487   C     0.83220   0.29051   0.49914   0.00000  Uiso   1.00
C488   C     0.83446   0.04282   0.50086   0.00000  Uiso   1.00
C489   C     0.80124   0.14106   0.35480   0.00000  Uiso   1.00
C490   C     0.86543   0.19227   0.64520   0.00000  Uiso   1.00
C491   C     0.80120   0.14094   0.63861   0.00000  Uiso   1.00
C492   C     0.86546   0.19239   0.36139   0.00000  Uiso   1.00
C493   C     0.99154   0.13932   0.44039   0.00000  Uiso   1.00
C494   C     0.67512   0.19401   0.55961   0.00000  Uiso   1.00
C495   C     0.78014   0.29322   0.41956   0.00000  Uiso   1.00
C496   C     0.83252   0.24587   0.49966   0.00000  Uiso   1.00
C497   C     0.88652   0.04012   0.58045   0.00000  Uiso   1.00
C498   C     0.76683   0.11305   0.61101   0.00000  Uiso   1.00
C499   C     0.89984   0.22028   0.38899   0.00000  Uiso   1.00
C500   C     0.73488   0.16607   0.48823   0.00000  Uiso   1.00
C501   C     0.93179   0.16726   0.51177   0.00000  Uiso   1.00
C502   C     0.68030   0.16099   0.48262   0.00000  Uiso   1.00
C503   C     0.98636   0.17234   0.51738   0.00000  Uiso   1.00
C504   C     0.80969   0.02225   0.46143   0.00000  Uiso   1.00
C505   C     0.85698   0.31109   0.53857   0.00000  Uiso   1.00
C506   C     0.80817   0.31291   0.46025   0.00000  Uiso   1.00
Cu507  Cu    0.83333   0.16667   0.54689   0.00000  Uiso   1.00
Cu508  Cu    0.83333   0.16666   0.45311   0.00000  Uiso   1.00
F509   F     0.76909   0.11541   0.37489   0.00000  Uiso   1.00
F510   F     0.89757   0.21792   0.62511   0.00000  Uiso   1.00
H511   H     0.79064   0.03953   0.43179   0.00000  Uiso   1.00
H512   H     0.87602   0.29380   0.56821   0.00000  Uiso   1.00
N513   N     0.83335   0.16668   0.61736   0.00000  Uiso   1.00
N514   N     0.83332   0.16666   0.38264   0.00000  Uiso   1.00
N515   N     0.97416   0.12208   0.40676   0.00000  Uiso   1.00
N516   N     0.69251   0.21126   0.59324   0.00000  Uiso   1.00
N517   N     0.75771   0.27746   0.38698   0.00000  Uiso   1.00
N518   N     0.90895   0.05587   0.61302   0.00000  Uiso   1.00
N519   N     0.73905   0.09052   0.58911   0.00000  Uiso   1.00
N520   N     0.92761   0.24282   0.41089   0.00000  Uiso   1.00
O521   O     0.83333   0.10655   0.53958   0.00000  Uiso   1.00
O522   O     0.83334   0.22678   0.46042   0.00000  Uiso   1.00
O523   O     0.83333   0.10654   0.46039   0.00000  Uiso   1.00
O524   O     0.83334   0.22679   0.53961   0.00000  Uiso   1.00
O525   O     0.75828   0.16667   0.53046   0.00000  Uiso   1.00
O526   O     0.90839   0.16666   0.46954   0.00000  Uiso   1.00
O527   O     0.75828   0.16666   0.45127   0.00000  Uiso   1.00
O528   O     0.90839   0.16667   0.54873   0.00000  Uiso   1.00
C529   C     0.16748   0.42080   0.50034   0.00000  Uiso   1.00
C530   C     0.19183   0.35376   0.53975   0.00000  Uiso   1.00
C531   C     0.16554   0.62385   0.49914   0.00000  Uiso   1.00
C532   C     0.16780   0.37615   0.50086   0.00000  Uiso   1.00
C533   C     0.13457   0.47439   0.35480   0.00000  Uiso   1.00
C534   C     0.19876   0.52561   0.64520   0.00000  Uiso   1.00
C535   C     0.13454   0.47428   0.63861   0.00000  Uiso   1.00
C536   C     0.19879   0.52572   0.36139   0.00000  Uiso   1.00
C537   C     0.32488   0.47266   0.44039   0.00000  Uiso   1.00
C538   C     0.00846   0.52734   0.55961   0.00000  Uiso   1.00
C539   C     0.11347   0.62655   0.41956   0.00000  Uiso   1.00
C540   C     0.16586   0.57920   0.49966   0.00000  Uiso   1.00
C541   C     0.21986   0.37345   0.58045   0.00000  Uiso   1.00
C542   C     0.10016   0.44639   0.61101   0.00000  Uiso   1.00
C543   C     0.23317   0.55361   0.38899   0.00000  Uiso   1.00
C544   C     0.06821   0.49940   0.48823   0.00000  Uiso   1.00
C545   C     0.26512   0.50060   0.51177   0.00000  Uiso   1.00
C546   C     0.01364   0.49432   0.48262   0.00000  Uiso   1.00
C547   C     0.31970   0.50568   0.51738   0.00000  Uiso   1.00
C548   C     0.14302   0.35558   0.46143   0.00000  Uiso   1.00
C549   C     0.19031   0.64442   0.53857   0.00000  Uiso   1.00
C550   C     0.14150   0.64624   0.46025   0.00000  Uiso   1.00
Cu551  Cu    0.16667   0.50001   0.54689   0.00000  Uiso   1.00
Cu552  Cu    0.16667   0.49999   0.45311   0.00000  Uiso   1.00
F553   F     0.10243   0.44874   0.37489   0.00000  Uiso   1.00
F554   F     0.23091   0.55126   0.62511   0.00000  Uiso   1.00
H555   H     0.12398   0.37286   0.43179   0.00000  Uiso   1.00
H556   H     0.20935   0.62714   0.56821   0.00000  Uiso   1.00
N557   N     0.16668   0.50001   0.61736   0.00000  Uiso   1.00
N558   N     0.16665   0.49999   0.38264   0.00000  Uiso   1.00
N559   N     0.30749   0.45541   0.40676   0.00000  Uiso   1.00
N560   N     0.02584   0.54459   0.59324   0.00000  Uiso   1.00
N561   N     0.09104   0.61080   0.38698   0.00000  Uiso   1.00
N562   N     0.24229   0.38920   0.61302   0.00000  Uiso   1.00
N563   N     0.07239   0.42385   0.58911   0.00000  Uiso   1.00
N564   N     0.26095   0.57615   0.41089   0.00000  Uiso   1.00
O565   O     0.16666   0.43989   0.53958   0.00000  Uiso   1.00
O566   O     0.16667   0.56011   0.46042   0.00000  Uiso   1.00
O567   O     0.16666   0.43988   0.46039   0.00000  Uiso   1.00
O568   O     0.16667   0.56012   0.53961   0.00000  Uiso   1.00
O569   O     0.09161   0.50000   0.53046   0.00000  Uiso   1.00
O570   O     0.24172   0.50000   0.46954   0.00000  Uiso   1.00
O571   O     0.09161   0.49999   0.45127   0.00000  Uiso   1.00
O572   O     0.24172   0.50001   0.54873   0.00000  Uiso   1.00
C573   C     0.50081   0.42080   0.50034   0.00000  Uiso   1.00
C574   C     0.52517   0.35376   0.53975   0.00000  Uiso   1.00
C575   C     0.49887   0.62385   0.49914   0.00000  Uiso   1.00
C576   C     0.50113   0.37615   0.50086   0.00000  Uiso   1.00
C577   C     0.46791   0.47439   0.35480   0.00000  Uiso   1.00
C578   C     0.53209   0.52561   0.64520   0.00000  Uiso   1.00
C579   C     0.46787   0.47428   0.63861   0.00000  Uiso   1.00
C580   C     0.53213   0.52572   0.36139   0.00000  Uiso   1.00
C581   C     0.65821   0.47266   0.44039   0.00000  Uiso   1.00
C582   C     0.34179   0.52734   0.55961   0.00000  Uiso   1.00
C583   C     0.44681   0.62655   0.41956   0.00000  Uiso   1.00
C584   C     0.49919   0.57920   0.49966   0.00000  Uiso   1.00
C585   C     0.55319   0.37345   0.58045   0.00000  Uiso   1.00
C586   C     0.43350   0.44639   0.61101   0.00000  Uiso   1.00
C587   C     0.56650   0.55361   0.38899   0.00000  Uiso   1.00
C588   C     0.40155   0.49940   0.48823   0.00000  Uiso   1.00
C589   C     0.59845   0.50060   0.51177   0.00000  Uiso   1.00
C590   C     0.34697   0.49432   0.48262   0.00000  Uiso   1.00
C591   C     0.65303   0.50568   0.51738   0.00000  Uiso   1.00
C592   C     0.47636   0.35558   0.46143   0.00000  Uiso   1.00
C593   C     0.52364   0.64442   0.53857   0.00000  Uiso   1.00
C594   C     0.47483   0.64624   0.46025   0.00000  Uiso   1.00
Cu595  Cu    0.50000   0.50001   0.54689   0.00000  Uiso   1.00
Cu596  Cu    0.50000   0.49999   0.45311   0.00000  Uiso   1.00
F597   F     0.43576   0.44874   0.37489   0.00000  Uiso   1.00
F598   F     0.56424   0.55126   0.62511   0.00000  Uiso   1.00
H599   H     0.45731   0.37286   0.43179   0.00000  Uiso   1.00
H600   H     0.54269   0.62714   0.56821   0.00000  Uiso   1.00
N601   N     0.50001   0.50001   0.61736   0.00000  Uiso   1.00
N602   N     0.49999   0.49999   0.38264   0.00000  Uiso   1.00
N603   N     0.64082   0.45541   0.40676   0.00000  Uiso   1.00
N604   N     0.35918   0.54459   0.59324   0.00000  Uiso   1.00
N605   N     0.42437   0.61080   0.38698   0.00000  Uiso   1.00
N606   N     0.57562   0.38920   0.61302   0.00000  Uiso   1.00
N607   N     0.40572   0.42385   0.58911   0.00000  Uiso   1.00
N608   N     0.59428   0.57615   0.41089   0.00000  Uiso   1.00
O609   O     0.50000   0.43989   0.53958   0.00000  Uiso   1.00
O610   O     0.50000   0.56011   0.46042   0.00000  Uiso   1.00
O611   O     0.50000   0.43988   0.46039   0.00000  Uiso   1.00
O612   O     0.50000   0.56012   0.53961   0.00000  Uiso   1.00
O613   O     0.42495   0.50000   0.53046   0.00000  Uiso   1.00
O614   O     0.57505   0.50000   0.46954   0.00000  Uiso   1.00
O615   O     0.42494   0.49999   0.45127   0.00000  Uiso   1.00
O616   O     0.57506   0.50001   0.54873   0.00000  Uiso   1.00
C617   C     0.83414   0.42080   0.50034   0.00000  Uiso   1.00
C618   C     0.85850   0.35376   0.53975   0.00000  Uiso   1.00
C619   C     0.83220   0.62385   0.49914   0.00000  Uiso   1.00
C620   C     0.83446   0.37615   0.50086   0.00000  Uiso   1.00
C621   C     0.80124   0.47439   0.35480   0.00000  Uiso   1.00
C622   C     0.86543   0.52561   0.64520   0.00000  Uiso   1.00
C623   C     0.80120   0.47428   0.63861   0.00000  Uiso   1.00
C624   C     0.86546   0.52572   0.36139   0.00000  Uiso   1.00
C625   C     0.99154   0.47266   0.44039   0.00000  Uiso   1.00
C626   C     0.67512   0.52734   0.55961   0.00000  Uiso   1.00
C627   C     0.78014   0.62655   0.41956   0.00000  Uiso   1.00
C628   C     0.83252   0.57920   0.49966   0.00000  Uiso   1.00
C629   C     0.88652   0.37345   0.58045   0.00000  Uiso   1.00
C630   C     0.76683   0.44639   0.61101   0.00000  Uiso   1.00
C631   C     0.89984   0.55361   0.38899   0.00000  Uiso   1.00
C632   C     0.73488   0.49940   0.48823   0.00000  Uiso   1.00
C633   C     0.93179   0.50060   0.51177   0.00000  Uiso   1.00
C634   C     0.68030   0.49432   0.48262   0.00000  Uiso   1.00
C635   C     0.98636   0.50568   0.51738   0.00000  Uiso   1.00
C636   C     0.80969   0.35558   0.46143   0.00000  Uiso   1.00
C637   C     0.85698   0.64442   0.53857   0.00000  Uiso   1.00
C638   C     0.80817   0.64624   0.46025   0.00000  Uiso   1.00
Cu639  Cu    0.83333   0.50001   0.54689   0.00000  Uiso   1.00
Cu640  Cu    0.83333   0.49999   0.45311   0.00000  Uiso   1.00
F641   F     0.76909   0.44874   0.37489   0.00000  Uiso   1.00
F642   F     0.89757   0.55126   0.62511   0.00000  Uiso   1.00
H643   H     0.79064   0.37286   0.43179   0.00000  Uiso   1.00
H644   H     0.87602   0.62714   0.56821   0.00000  Uiso   1.00
N645   N     0.83335   0.50001   0.61736   0.00000  Uiso   1.00
N646   N     0.83332   0.49999   0.38264   0.00000  Uiso   1.00
N647   N     0.97416   0.45541   0.40676   0.00000  Uiso   1.00
N648   N     0.69251   0.54459   0.59324   0.00000  Uiso   1.00
N649   N     0.75771   0.61080   0.38698   0.00000  Uiso   1.00
N650   N     0.90895   0.38920   0.61302   0.00000  Uiso   1.00
N651   N     0.73905   0.42385   0.58911   0.00000  Uiso   1.00
N652   N     0.92761   0.57615   0.41089   0.00000  Uiso   1.00
O653   O     0.83333   0.43989   0.53958   0.00000  Uiso   1.00
O654   O     0.83334   0.56011   0.46042   0.00000  Uiso   1.00
O655   O     0.83333   0.43988   0.46039   0.00000  Uiso   1.00
O656   O     0.83334   0.56012   0.53961   0.00000  Uiso   1.00
O657   O     0.75828   0.50000   0.53046   0.00000  Uiso   1.00
O658   O     0.90839   0.50000   0.46954   0.00000  Uiso   1.00
O659   O     0.75828   0.49999   0.45127   0.00000  Uiso   1.00
O660   O     0.90839   0.50001   0.54873   0.00000  Uiso   1.00
C661   C     0.16748   0.75413   0.50034   0.00000  Uiso   1.00
C662   C     0.19183   0.68709   0.53975   0.00000  Uiso   1.00
C663   C     0.16554   0.95718   0.49914   0.00000  Uiso   1.00
C664   C     0.16780   0.70949   0.50086   0.00000  Uiso   1.00
C665   C     0.13457   0.80773   0.35480   0.00000  Uiso   1.00
C666   C     0.19876   0.85894   0.64520   0.00000  Uiso   1.00
C667   C     0.13454   0.80761   0.63861   0.00000  Uiso   1.00
C668   C     0.19879   0.85906   0.36139   0.00000  Uiso   1.00
C669   C     0.32488   0.80599   0.44039   0.00000  Uiso   1.00
C670   C     0.00846   0.86068   0.55961   0.00000  Uiso   1.00
C671   C     0.11347   0.95988   0.41956   0.00000  Uiso   1.00
C672   C     0.16586   0.91253   0.49966   0.00000  Uiso   1.00
C673   C     0.21986   0.70678   0.58045   0.00000  Uiso   1.00
C674   C     0.10016   0.77972   0.61101   0.00000  Uiso   1.00
C675   C     0.23317   0.88695   0.38899   0.00000  Uiso   1.00
C676   C     0.06821   0.83274   0.48823   0.00000  Uiso   1.00
C677   C     0.26512   0.83393   0.51177   0.00000  Uiso   1.00
C678   C     0.01364   0.82766   0.48262   0.00000  Uiso   1.00
C679   C     0.31970   0.83901   0.51738   0.00000  Uiso   1.00
C680   C     0.14302   0.68891   0.46143   0.00000  Uiso   1.00
C681   C     0.19031   0.97775   0.53857   0.00000  Uiso   1.00
C682   C     0.14150   0.97958   0.46025   0.00000  Uiso   1.00
Cu683  Cu    0.16667   0.83334   0.54689   0.00000  Uiso   1.00
Cu684  Cu    0.16667   0.83333   0.45311   0.00000  Uiso   1.00
F685   F     0.10243   0.78208   0.37489   0.00000  Uiso   1.00
F686   F     0.23091   0.88459   0.62511   0.00000  Uiso   1.00
H687   H     0.12398   0.70620   0.43179   0.00000  Uiso   1.00
H688   H     0.20935   0.96047   0.56821   0.00000  Uiso   1.00
N689   N     0.16668   0.83334   0.61736   0.00000  Uiso   1.00
N690   N     0.16665   0.83332   0.38264   0.00000  Uiso   1.00
N691   N     0.30749   0.78874   0.40676   0.00000  Uiso   1.00
N692   N     0.02584   0.87792   0.59324   0.00000  Uiso   1.00
N693   N     0.09104   0.94413   0.38698   0.00000  Uiso   1.00
N694   N     0.24229   0.72253   0.61302   0.00000  Uiso   1.00
N695   N     0.07239   0.75718   0.58911   0.00000  Uiso   1.00
N696   N     0.26095   0.90948   0.41089   0.00000  Uiso   1.00
O697   O     0.16666   0.77322   0.53958   0.00000  Uiso   1.00
O698   O     0.16667   0.89345   0.46042   0.00000  Uiso   1.00
O699   O     0.16666   0.77321   0.46039   0.00000  Uiso   1.00
O700   O     0.16667   0.89346   0.53961   0.00000  Uiso   1.00
O701   O     0.09161   0.83334   0.53046   0.00000  Uiso   1.00
O702   O     0.24172   0.83333   0.46954   0.00000  Uiso   1.00
O703   O     0.09161   0.83333   0.45127   0.00000  Uiso   1.00
O704   O     0.24172   0.83334   0.54873   0.00000  Uiso   1.00
C705   C     0.50081   0.75413   0.50034   0.00000  Uiso   1.00
C706   C     0.52517   0.68709   0.53975   0.00000  Uiso   1.00
C707   C     0.49887   0.95718   0.49914   0.00000  Uiso   1.00
C708   C     0.50113   0.70949   0.50086   0.00000  Uiso   1.00
C709   C     0.46791   0.80773   0.35480   0.00000  Uiso   1.00
C710   C     0.53209   0.85894   0.64520   0.00000  Uiso   1.00
C711   C     0.46787   0.80761   0.63861   0.00000  Uiso   1.00
C712   C     0.53213   0.85906   0.36139   0.00000  Uiso   1.00
C713   C     0.65821   0.80599   0.44039   0.00000  Uiso   1.00
C714   C     0.34179   0.86068   0.55961   0.00000  Uiso   1.00
C715   C     0.44681   0.95988   0.41956   0.00000  Uiso   1.00
C716   C     0.49919   0.91253   0.49966   0.00000  Uiso   1.00
C717   C     0.55319   0.70678   0.58045   0.00000  Uiso   1.00
C718   C     0.43350   0.77972   0.61101   0.00000  Uiso   1.00
C719   C     0.56650   0.88695   0.38899   0.00000  Uiso   1.00
C720   C     0.40155   0.83274   0.48823   0.00000  Uiso   1.00
C721   C     0.59845   0.83393   0.51177   0.00000  Uiso   1.00
C722   C     0.34697   0.82766   0.48262   0.00000  Uiso   1.00
C723   C     0.65303   0.83901   0.51738   0.00000  Uiso   1.00
C724   C     0.47636   0.68891   0.46143   0.00000  Uiso   1.00
C725   C     0.52364   0.97775   0.53857   0.00000  Uiso   1.00
C726   C     0.47483   0.97958   0.46025   0.00000  Uiso   1.00
Cu727  Cu    0.50000   0.83334   0.54689   0.00000  Uiso   1.00
Cu728  Cu    0.50000   0.83333   0.45311   0.00000  Uiso   1.00
F729   F     0.43576   0.78208   0.37489   0.00000  Uiso   1.00
F730   F     0.56424   0.88459   0.62511   0.00000  Uiso   1.00
H731   H     0.45731   0.70620   0.43179   0.00000  Uiso   1.00
H732   H     0.54269   0.96047   0.56821   0.00000  Uiso   1.00
N733   N     0.50001   0.83334   0.61736   0.00000  Uiso   1.00
N734   N     0.49999   0.83332   0.38264   0.00000  Uiso   1.00
N735   N     0.64082   0.78874   0.40676   0.00000  Uiso   1.00
N736   N     0.35918   0.87792   0.59324   0.00000  Uiso   1.00
N737   N     0.42437   0.94413   0.38698   0.00000  Uiso   1.00
N738   N     0.57562   0.72253   0.61302   0.00000  Uiso   1.00
N739   N     0.40572   0.75718   0.58911   0.00000  Uiso   1.00
N740   N     0.59428   0.90948   0.41089   0.00000  Uiso   1.00
O741   O     0.50000   0.77322   0.53958   0.00000  Uiso   1.00
O742   O     0.50000   0.89345   0.46042   0.00000  Uiso   1.00
O743   O     0.50000   0.77321   0.46039   0.00000  Uiso   1.00
O744   O     0.50000   0.89346   0.53961   0.00000  Uiso   1.00
O745   O     0.42495   0.83334   0.53046   0.00000  Uiso   1.00
O746   O     0.57505   0.83333   0.46954   0.00000  Uiso   1.00
O747   O     0.42494   0.83333   0.45127   0.00000  Uiso   1.00
O748   O     0.57506   0.83334   0.54873   0.00000  Uiso   1.00
C749   C     0.83414   0.75413   0.50034   0.00000  Uiso   1.00
C750   C     0.85850   0.68709   0.53975   0.00000  Uiso   1.00
C751   C     0.83220   0.95718   0.49914   0.00000  Uiso   1.00
C752   C     0.83446   0.70949   0.50086   0.00000  Uiso   1.00
C753   C     0.80124   0.80773   0.35480   0.00000  Uiso   1.00
C754   C     0.86543   0.85894   0.64520   0.00000  Uiso   1.00
C755   C     0.80120   0.80761   0.63861   0.00000  Uiso   1.00
C756   C     0.86546   0.85906   0.36139   0.00000  Uiso   1.00
C757   C     0.99154   0.80599   0.44039   0.00000  Uiso   1.00
C758   C     0.67512   0.86068   0.55961   0.00000  Uiso   1.00
C759   C     0.78014   0.95988   0.41956   0.00000  Uiso   1.00
C760   C     0.83252   0.91253   0.49966   0.00000  Uiso   1.00
C761   C     0.88652   0.70678   0.58045   0.00000  Uiso   1.00
C762   C     0.76683   0.77972   0.61101   0.00000  Uiso   1.00
C763   C     0.89984   0.88695   0.38899   0.00000  Uiso   1.00
C764   C     0.73488   0.83274   0.48823   0.00000  Uiso   1.00
C765   C     0.93179   0.83393   0.51177   0.00000  Uiso   1.00
C766   C     0.68030   0.82766   0.48262   0.00000  Uiso   1.00
C767   C     0.98636   0.83901   0.51738   0.00000  Uiso   1.00
C768   C     0.80969   0.68891   0.46143   0.00000  Uiso   1.00
C769   C     0.85698   0.97775   0.53857   0.00000  Uiso   1.00
C770   C     0.80817   0.97958   0.46025   0.00000  Uiso   1.00
Cu771  Cu    0.83333   0.83334   0.54689   0.00000  Uiso   1.00
Cu772  Cu    0.83333   0.83333   0.45311   0.00000  Uiso   1.00
F773   F     0.76909   0.78208   0.37489   0.00000  Uiso   1.00
F774   F     0.89757   0.88459   0.62511   0.00000  Uiso   1.00
H775   H     0.79064   0.70620   0.43179   0.00000  Uiso   1.00
H776   H     0.87602   0.96047   0.56821   0.00000  Uiso   1.00
N777   N     0.83335   0.83334   0.61736   0.00000  Uiso   1.00
N778   N     0.83332   0.83332   0.38264   0.00000  Uiso   1.00
N779   N     0.97416   0.78874   0.40676   0.00000  Uiso   1.00
N780   N     0.69251   0.87792   0.59324   0.00000  Uiso   1.00
N781   N     0.75771   0.94413   0.38698   0.00000  Uiso   1.00
N782   N     0.90895   0.72253   0.61302   0.00000  Uiso   1.00
N783   N     0.73905   0.75718   0.58911   0.00000  Uiso   1.00
N784   N     0.92761   0.90948   0.41089   0.00000  Uiso   1.00
O785   O     0.83333   0.77322   0.53958   0.00000  Uiso   1.00
O786   O     0.83334   0.89345   0.46042   0.00000  Uiso   1.00
O787   O     0.83333   0.77321   0.46039   0.00000  Uiso   1.00
O788   O     0.83334   0.89346   0.53961   0.00000  Uiso   1.00
O789   O     0.75828   0.83334   0.53046   0.00000  Uiso   1.00
O790   O     0.90839   0.83333   0.46954   0.00000  Uiso   1.00
O791   O     0.75828   0.83333   0.45127   0.00000  Uiso   1.00
O792   O     0.90839   0.83334   0.54873   0.00000  Uiso   1.00
C793   C     0.16748   0.08747   0.83368   0.00000  Uiso   1.00
C794   C     0.19183   0.02042   0.87309   0.00000  Uiso   1.00
C795   C     0.16554   0.29051   0.83247   0.00000  Uiso   1.00
C796   C     0.16780   0.04282   0.83419   0.00000  Uiso   1.00
C797   C     0.13457   0.14106   0.68813   0.00000  Uiso   1.00
C798   C     0.19876   0.19227   0.97853   0.00000  Uiso   1.00
C799   C     0.13454   0.14094   0.97194   0.00000  Uiso   1.00
C800   C     0.19879   0.19239   0.69473   0.00000  Uiso   1.00
C801   C     0.32488   0.13932   0.77372   0.00000  Uiso   1.00
C802   C     0.00846   0.19401   0.89295   0.00000  Uiso   1.00
C803   C     0.11347   0.29322   0.75289   0.00000  Uiso   1.00
C804   C     0.16586   0.24587   0.83299   0.00000  Uiso   1.00
C805   C     0.21986   0.04012   0.91378   0.00000  Uiso   1.00
C806   C     0.10016   0.11305   0.94434   0.00000  Uiso   1.00
C807   C     0.23317   0.22028   0.72232   0.00000  Uiso   1.00
C808   C     0.06821   0.16607   0.82156   0.00000  Uiso   1.00
C809   C     0.26512   0.16726   0.84511   0.00000  Uiso   1.00
C810   C     0.01364   0.16099   0.81596   0.00000  Uiso   1.00
C811   C     0.31970   0.17234   0.85071   0.00000  Uiso   1.00
C812   C     0.14302   0.02225   0.79477   0.00000  Uiso   1.00
C813   C     0.19031   0.31109   0.87190   0.00000  Uiso   1.00
C814   C     0.14150   0.31291   0.79358   0.00000  Uiso   1.00
Cu815  Cu    0.16667   0.16667   0.88022   0.00000  Uiso   1.00
Cu816  Cu    0.16667   0.16666   0.78645   0.00000  Uiso   1.00
F817   F     0.10243   0.11541   0.70823   0.00000  Uiso   1.00
F818   F     0.23091   0.21792   0.95844   0.00000  Uiso   1.00
H819   H     0.12398   0.03953   0.76513   0.00000  Uiso   1.00
H820   H     0.20935   0.29380   0.90154   0.00000  Uiso   1.00
N821   N     0.16668   0.16668   0.95069   0.00000  Uiso   1.00
N822   N     0.16665   0.16666   0.71597   0.00000  Uiso   1.00
N823   N     0.30749   0.12208   0.74009   0.00000  Uiso   1.00
N824   N     0.02584   0.21126   0.92657   0.00000  Uiso   1.00
N825   N     0.09104   0.27746   0.72031   0.00000  Uiso   1.00
N826   N     0.24229   0.05587   0.94636   0.00000  Uiso   1.00
N827   N     0.07239   0.09052   0.92244   0.00000  Uiso   1.00
N828   N     0.26095   0.24282   0.74422   0.00000  Uiso   1.00
O829   O     0.16666   0.10655   0.87291   0.00000  Uiso   1.00
O830   O     0.16667   0.22678   0.79375   0.00000  Uiso   1.00
O831   O     0.16666   0.10654   0.79372   0.00000  Uiso   1.00
O832   O     0.16667   0.22679   0.87294   0.00000  Uiso   1.00
O833   O     0.09161   0.16667   0.86379   0.00000  Uiso   1.00
O834   O     0.24172   0.16666   0.80288   0.00000  Uiso   1.00
O835   O     0.09161   0.16666   0.78460   0.00000  Uiso   1.00
O836   O     0.24172   0.16667   0.88207   0.00000  Uiso   1.00
C837   C     0.50081   0.08747   0.83368   0.00000  Uiso   1.00
C838   C     0.52517   0.02042   0.87309   0.00000  Uiso   1.00
C839   C     0.49887   0.29051   0.83247   0.00000  Uiso   1.00
C840   C     0.50113   0.04282   0.83419   0.00000  Uiso   1.00
C841   C     0.46791   0.14106   0.68813   0.00000  Uiso   1.00
C842   C     0.53209   0.19227   0.97853   0.00000  Uiso   1.00
C843   C     0.46787   0.14094   0.97194   0.00000  Uiso   1.00
C844   C     0.53213   0.19239   0.69473   0.00000  Uiso   1.00
C845   C     0.65821   0.13932   0.77372   0.00000  Uiso   1.00
C846   C     0.34179   0.19401   0.89295   0.00000  Uiso   1.00
C847   C     0.44681   0.29322   0.75289   0.00000  Uiso   1.00
C848   C     0.49919   0.24587   0.83299   0.00000  Uiso   1.00
C849   C     0.55319   0.04012   0.91378   0.00000  Uiso   1.00
C850   C     0.43350   0.11305   0.94434   0.00000  Uiso   1.00
C851   C     0.56650   0.22028   0.72232   0.00000  Uiso   1.00
C852   C     0.40155   0.16607   0.82156   0.00000  Uiso   1.00
C853   C     0.59845   0.16726   0.84511   0.00000  Uiso   1.00
C854   C     0.34697   0.16099   0.81596   0.00000  Uiso   1.00
C855   C     0.65303   0.17234   0.85071   0.00000  Uiso   1.00
C856   C     0.47636   0.02225   0.79477   0.00000  Uiso   1.00
C857   C     0.52364   0.31109   0.87190   0.00000  Uiso   1.00
C858   C     0.47483   0.31291   0.79358   0.00000  Uiso   1.00
Cu859  Cu    0.50000   0.16667   0.88022   0.00000  Uiso   1.00
Cu860  Cu    0.50000   0.16666   0.78645   0.00000  Uiso   1.00
F861   F     0.43576   0.11541   0.70823   0.00000  Uiso   1.00
F862   F     0.56424   0.21792   0.95844   0.00000  Uiso   1.00
H863   H     0.45731   0.03953   0.76513   0.00000  Uiso   1.00
H864   H     0.54269   0.29380   0.90154   0.00000  Uiso   1.00
N865   N     0.50001   0.16668   0.95069   0.00000  Uiso   1.00
N866   N     0.49999   0.16666   0.71597   0.00000  Uiso   1.00
N867   N     0.64082   0.12208   0.74009   0.00000  Uiso   1.00
N868   N     0.35918   0.21126   0.92657   0.00000  Uiso   1.00
N869   N     0.42437   0.27746   0.72031   0.00000  Uiso   1.00
N870   N     0.57562   0.05587   0.94636   0.00000  Uiso   1.00
N871   N     0.40572   0.09052   0.92244   0.00000  Uiso   1.00
N872   N     0.59428   0.24282   0.74422   0.00000  Uiso   1.00
O873   O     0.50000   0.10655   0.87291   0.00000  Uiso   1.00
O874   O     0.50000   0.22678   0.79375   0.00000  Uiso   1.00
O875   O     0.50000   0.10654   0.79372   0.00000  Uiso   1.00
O876   O     0.50000   0.22679   0.87294   0.00000  Uiso   1.00
O877   O     0.42495   0.16667   0.86379   0.00000  Uiso   1.00
O878   O     0.57505   0.16666   0.80288   0.00000  Uiso   1.00
O879   O     0.42494   0.16666   0.78460   0.00000  Uiso   1.00
O880   O     0.57506   0.16667   0.88207   0.00000  Uiso   1.00
C881   C     0.83414   0.08747   0.83368   0.00000  Uiso   1.00
C882   C     0.85850   0.02042   0.87309   0.00000  Uiso   1.00
C883   C     0.83220   0.29051   0.83247   0.00000  Uiso   1.00
C884   C     0.83446   0.04282   0.83419   0.00000  Uiso   1.00
C885   C     0.80124   0.14106   0.68813   0.00000  Uiso   1.00
C886   C     0.86543   0.19227   0.97853   0.00000  Uiso   1.00
C887   C     0.80120   0.14094   0.97194   0.00000  Uiso   1.00
C888   C     0.86546   0.19239   0.69473   0.00000  Uiso   1.00
C889   C     0.99154   0.13932   0.77372   0.00000  Uiso   1.00
C890   C     0.67512   0.19401   0.89295   0.00000  Uiso   1.00
C891   C     0.78014   0.29322   0.75289   0.00000  Uiso   1.00
C892   C     0.83252   0.24587   0.83299   0.00000  Uiso   1.00
C893   C     0.88652   0.04012   0.91378   0.00000  Uiso   1.00
C894   C     0.76683   0.11305   0.94434   0.00000  Uiso   1.00
C895   C     0.89984   0.22028   0.72232   0.00000  Uiso   1.00
C896   C     0.73488   0.16607   0.82156   0.00000  Uiso   1.00
C897   C     0.93179   0.16726   0.84511   0.00000  Uiso   1.00
C898   C     0.68030   0.16099   0.81596   0.00000  Uiso   1.00
C899   C     0.98636   0.17234   0.85071   0.00000  Uiso   1.00
C900   C     0.80969   0.02225   0.79477   0.00000  Uiso   1.00
C901   C     0.85698   0.31109   0.87190   0.00000  Uiso   1.00
C902   C     0.80817   0.31291   0.79358   0.00000  Uiso   1.00
Cu903  Cu    0.83333   0.16667   0.88022   0.00000  Uiso   1.00
Cu904  Cu    0.83333   0.16666   0.78645   0.00000  Uiso   1.00
F905   F     0.76909   0.11541   0.70823   0.00000  Uiso   1.00
F906   F     0.89757   0.21792   0.95844   0.00000  Uiso   1.00
H907   H     0.79064   0.03953   0.76513   0.00000  Uiso   1.00
H908   H     0.87602   0.29380   0.90154   0.00000  Uiso   1.00
N909   N     0.83335   0.16668   0.95069   0.00000  Uiso   1.00
N910   N     0.83332   0.16666   0.71597   0.00000  Uiso   1.00
N911   N     0.97416   0.12208   0.74009   0.00000  Uiso   1.00
N912   N     0.69251   0.21126   0.92657   0.00000  Uiso   1.00
N913   N     0.75771   0.27746   0.72031   0.00000  Uiso   1.00
N914   N     0.90895   0.05587   0.94636   0.00000  Uiso   1.00
N915   N     0.73905   0.09052   0.92244   0.00000  Uiso   1.00
N916   N     0.92761   0.24282   0.74422   0.00000  Uiso   1.00
O917   O     0.83333   0.10655   0.87291   0.00000  Uiso   1.00
O918   O     0.83334   0.22678   0.79375   0.00000  Uiso   1.00
O919   O     0.83333   0.10654   0.79372   0.00000  Uiso   1.00
O920   O     0.83334   0.22679   0.87294   0.00000  Uiso   1.00
O921   O     0.75828   0.16667   0.86379   0.00000  Uiso   1.00
O922   O     0.90839   0.16666   0.80288   0.00000  Uiso   1.00
O923   O     0.75828   0.16666   0.78460   0.00000  Uiso   1.00
O924   O     0.90839   0.16667   0.88207   0.00000  Uiso   1.00
C925   C     0.16748   0.42080   0.83368   0.00000  Uiso   1.00
C926   C     0.19183   0.35376   0.87309   0.00000  Uiso   1.00
C927   C     0.16554   0.62385   0.83247   0.00000  Uiso   1.00
C928   C     0.16780   0.37615   0.83419   0.00000  Uiso   1.00
C929   C     0.13457   0.47439   0.68813   0.00000  Uiso   1.00
C930   C     0.19876   0.52561   0.97853   0.00000  Uiso   1.00
C931   C     0.13454   0.47428   0.97194   0.00000  Uiso   1.00
C932   C     0.19879   0.52572   0.69473   0.00000  Uiso   1.00
C933   C     0.32488   0.47266   0.77372   0.00000  Uiso   1.00
C934   C     0.00846   0.52734   0.89295   0.00000  Uiso   1.00
C935   C     0.11347   0.62655   0.75289   0.00000  Uiso   1.00
C936   C     0.16586   0.57920   0.83299   0.00000  Uiso   1.00
C937   C     0.21986   0.37345   0.91378   0.00000  Uiso   1.00
C938   C     0.10016   0.44639   0.94434   0.00000  Uiso   1.00
C939   C     0.23317   0.55361   0.72232   0.00000  Uiso   1.00
C940   C     0.06821   0.49940   0.82156   0.00000  Uiso   1.00
C941   C     0.26512   0.50060   0.84511   0.00000  Uiso   1.00
C942   C     0.01364   0.49432   0.81596   0.00000  Uiso   1.00
C943   C     0.31970   0.50568   0.85071   0.00000  Uiso   1.00
C944   C     0.14302   0.35558   0.79477   0.00000  Uiso   1.00
C945   C     0.19031   0.64442   0.87190   0.00000  Uiso   1.00
C946   C     0.14150   0.64624   0.79358   0.00000  Uiso   1.00
Cu947  Cu    0.16667   0.50001   0.88022   0.00000  Uiso   1.00
Cu948  Cu    0.16667   0.49999   0.78645   0.00000  Uiso   1.00
F949   F     0.10243   0.44874   0.70823   0.00000  Uiso   1.00
F950   F     0.23091   0.55126   0.95844   0.00000  Uiso   1.00
H951   H     0.12398   0.37286   0.76513   0.00000  Uiso   1.00
H952   H     0.20935   0.62714   0.90154   0.00000  Uiso   1.00
N953   N     0.16668   0.50001   0.95069   0.00000  Uiso   1.00
N954   N     0.16665   0.49999   0.71597   0.00000  Uiso   1.00
N955   N     0.30749   0.45541   0.74009   0.00000  Uiso   1.00
N956   N     0.02584   0.54459   0.92657   0.00000  Uiso   1.00
N957   N     0.09104   0.61080   0.72031   0.00000  Uiso   1.00
N958   N     0.24229   0.38920   0.94636   0.00000  Uiso   1.00
N959   N     0.07239   0.42385   0.92244   0.00000  Uiso   1.00
N960   N     0.26095   0.57615   0.74422   0.00000  Uiso   1.00
O961   O     0.16666   0.43989   0.87291   0.00000  Uiso   1.00
O962   O     0.16667   0.56011   0.79375   0.00000  Uiso   1.00
O963   O     0.16666   0.43988   0.79372   0.00000  Uiso   1.00
O964   O     0.16667   0.56012   0.87294   0.00000  Uiso   1.00
O965   O     0.09161   0.50000   0.86379   0.00000  Uiso   1.00
O966   O     0.24172   0.50000   0.80288   0.00000  Uiso   1.00
O967   O     0.09161   0.49999   0.78460   0.00000  Uiso   1.00
O968   O     0.24172   0.50001   0.88207   0.00000  Uiso   1.00
C969   C     0.50081   0.42080   0.83368   0.00000  Uiso   1.00
C970   C     0.52517   0.35376   0.87309   0.00000  Uiso   1.00
C971   C     0.49887   0.62385   0.83247   0.00000  Uiso   1.00
C972   C     0.50113   0.37615   0.83419   0.00000  Uiso   1.00
C973   C     0.46791   0.47439   0.68813   0.00000  Uiso   1.00
C974   C     0.53209   0.52561   0.97853   0.00000  Uiso   1.00
C975   C     0.46787   0.47428   0.97194   0.00000  Uiso   1.00
C976   C     0.53213   0.52572   0.69473   0.00000  Uiso   1.00
C977   C     0.65821   0.47266   0.77372   0.00000  Uiso   1.00
C978   C     0.34179   0.52734   0.89295   0.00000  Uiso   1.00
C979   C     0.44681   0.62655   0.75289   0.00000  Uiso   1.00
C980   C     0.49919   0.57920   0.83299   0.00000  Uiso   1.00
C981   C     0.55319   0.37345   0.91378   0.00000  Uiso   1.00
C982   C     0.43350   0.44639   0.94434   0.00000  Uiso   1.00
C983   C     0.56650   0.55361   0.72232   0.00000  Uiso   1.00
C984   C     0.40155   0.49940   0.82156   0.00000  Uiso   1.00
C985   C     0.59845   0.50060   0.84511   0.00000  Uiso   1.00
C986   C     0.34697   0.49432   0.81596   0.00000  Uiso   1.00
C987   C     0.65303   0.50568   0.85071   0.00000  Uiso   1.00
C988   C     0.47636   0.35558   0.79477   0.00000  Uiso   1.00
C989   C     0.52364   0.64442   0.87190   0.00000  Uiso   1.00
C990   C     0.47483   0.64624   0.79358   0.00000  Uiso   1.00
Cu991  Cu    0.50000   0.50001   0.88022   0.00000  Uiso   1.00
Cu992  Cu    0.50000   0.49999   0.78645   0.00000  Uiso   1.00
F993   F     0.43576   0.44874   0.70823   0.00000  Uiso   1.00
F994   F     0.56424   0.55126   0.95844   0.00000  Uiso   1.00
H995   H     0.45731   0.37286   0.76513   0.00000  Uiso   1.00
H996   H     0.54269   0.62714   0.90154   0.00000  Uiso   1.00
N997   N     0.50001   0.50001   0.95069   0.00000  Uiso   1.00
N998   N     0.49999   0.49999   0.71597   0.00000  Uiso   1.00
N999   N     0.64082   0.45541   0.74009   0.00000  Uiso   1.00
N1000  N     0.35918   0.54459   0.92657   0.00000  Uiso   1.00
N1001  N     0.42437   0.61080   0.72031   0.00000  Uiso   1.00
N1002  N     0.57562   0.38920   0.94636   0.00000  Uiso   1.00
N1003  N     0.40572   0.42385   0.92244   0.00000  Uiso   1.00
N1004  N     0.59428   0.57615   0.74422   0.00000  Uiso   1.00
O1005  O     0.50000   0.43989   0.87291   0.00000  Uiso   1.00
O1006  O     0.50000   0.56011   0.79375   0.00000  Uiso   1.00
O1007  O     0.50000   0.43988   0.79372   0.00000  Uiso   1.00
O1008  O     0.50000   0.56012   0.87294   0.00000  Uiso   1.00
O1009  O     0.42495   0.50000   0.86379   0.00000  Uiso   1.00
O1010  O     0.57505   0.50000   0.80288   0.00000  Uiso   1.00
O1011  O     0.42494   0.49999   0.78460   0.00000  Uiso   1.00
O1012  O     0.57506   0.50001   0.88207   0.00000  Uiso   1.00
C1013  C     0.83414   0.42080   0.83368   0.00000  Uiso   1.00
C1014  C     0.85850   0.35376   0.87309   0.00000  Uiso   1.00
C1015  C     0.83220   0.62385   0.83247   0.00000  Uiso   1.00
C1016  C     0.83446   0.37615   0.83419   0.00000  Uiso   1.00
C1017  C     0.80124   0.47439   0.68813   0.00000  Uiso   1.00
C1018  C     0.86543   0.52561   0.97853   0.00000  Uiso   1.00
C1019  C     0.80120   0.47428   0.97194   0.00000  Uiso   1.00
C1020  C     0.86546   0.52572   0.69473   0.00000  Uiso   1.00
C1021  C     0.99154   0.47266   0.77372   0.00000  Uiso   1.00
C1022  C     0.67512   0.52734   0.89295   0.00000  Uiso   1.00
C1023  C     0.78014   0.62655   0.75289   0.00000  Uiso   1.00
C1024  C     0.83252   0.57920   0.83299   0.00000  Uiso   1.00
C1025  C     0.88652   0.37345   0.91378   0.00000  Uiso   1.00
C1026  C     0.76683   0.44639   0.94434   0.00000  Uiso   1.00
C1027  C     0.89984   0.55361   0.72232   0.00000  Uiso   1.00
C1028  C     0.73488   0.49940   0.82156   0.00000  Uiso   1.00
C1029  C     0.93179   0.50060   0.84511   0.00000  Uiso   1.00
C1030  C     0.68030   0.49432   0.81596   0.00000  Uiso   1.00
C1031  C     0.98636   0.50568   0.85071   0.00000  Uiso   1.00
C1032  C     0.80969   0.35558   0.79477   0.00000  Uiso   1.00
C1033  C     0.85698   0.64442   0.87190   0.00000  Uiso   1.00
C1034  C     0.80817   0.64624   0.79358   0.00000  Uiso   1.00
Cu1035 Cu    0.83333   0.50001   0.88022   0.00000  Uiso   1.00
Cu1036 Cu    0.83333   0.49999   0.78645   0.00000  Uiso   1.00
F1037  F     0.76909   0.44874   0.70823   0.00000  Uiso   1.00
F1038  F     0.89757   0.55126   0.95844   0.00000  Uiso   1.00
H1039  H     0.79064   0.37286   0.76513   0.00000  Uiso   1.00
H1040  H     0.87602   0.62714   0.90154   0.00000  Uiso   1.00
N1041  N     0.83335   0.50001   0.95069   0.00000  Uiso   1.00
N1042  N     0.83332   0.49999   0.71597   0.00000  Uiso   1.00
N1043  N     0.97416   0.45541   0.74009   0.00000  Uiso   1.00
N1044  N     0.69251   0.54459   0.92657   0.00000  Uiso   1.00
N1045  N     0.75771   0.61080   0.72031   0.00000  Uiso   1.00
N1046  N     0.90895   0.38920   0.94636   0.00000  Uiso   1.00
N1047  N     0.73905   0.42385   0.92244   0.00000  Uiso   1.00
N1048  N     0.92761   0.57615   0.74422   0.00000  Uiso   1.00
O1049  O     0.83333   0.43989   0.87291   0.00000  Uiso   1.00
O1050  O     0.83334   0.56011   0.79375   0.00000  Uiso   1.00
O1051  O     0.83333   0.43988   0.79372   0.00000  Uiso   1.00
O1052  O     0.83334   0.56012   0.87294   0.00000  Uiso   1.00
O1053  O     0.75828   0.50000   0.86379   0.00000  Uiso   1.00
O1054  O     0.90839   0.50000   0.80288   0.00000  Uiso   1.00
O1055  O     0.75828   0.49999   0.78460   0.00000  Uiso   1.00
O1056  O     0.90839   0.50001   0.88207   0.00000  Uiso   1.00
C1057  C     0.16748   0.75413   0.83368   0.00000  Uiso   1.00
C1058  C     0.19183   0.68709   0.87309   0.00000  Uiso   1.00
C1059  C     0.16554   0.95718   0.83247   0.00000  Uiso   1.00
C1060  C     0.16780   0.70949   0.83419   0.00000  Uiso   1.00
C1061  C     0.13457   0.80773   0.68813   0.00000  Uiso   1.00
C1062  C     0.19876   0.85894   0.97853   0.00000  Uiso   1.00
C1063  C     0.13454   0.80761   0.97194   0.00000  Uiso   1.00
C1064  C     0.19879   0.85906   0.69473   0.00000  Uiso   1.00
C1065  C     0.32488   0.80599   0.77372   0.00000  Uiso   1.00
C1066  C     0.00846   0.86068   0.89295   0.00000  Uiso   1.00
C1067  C     0.11347   0.95988   0.75289   0.00000  Uiso   1.00
C1068  C     0.16586   0.91253   0.83299   0.00000  Uiso   1.00
C1069  C     0.21986   0.70678   0.91378   0.00000  Uiso   1.00
C1070  C     0.10016   0.77972   0.94434   0.00000  Uiso   1.00
C1071  C     0.23317   0.88695   0.72232   0.00000  Uiso   1.00
C1072  C     0.06821   0.83274   0.82156   0.00000  Uiso   1.00
C1073  C     0.26512   0.83393   0.84511   0.00000  Uiso   1.00
C1074  C     0.01364   0.82766   0.81596   0.00000  Uiso   1.00
C1075  C     0.31970   0.83901   0.85071   0.00000  Uiso   1.00
C1076  C     0.14302   0.68891   0.79477   0.00000  Uiso   1.00
C1077  C     0.19031   0.97775   0.87190   0.00000  Uiso   1.00
C1078  C     0.14150   0.97958   0.79358   0.00000  Uiso   1.00
Cu1079 Cu    0.16667   0.83334   0.88022   0.00000  Uiso   1.00
Cu1080 Cu    0.16667   0.83333   0.78645   0.00000  Uiso   1.00
F1081  F     0.10243   0.78208   0.70823   0.00000  Uiso   1.00
F1082  F     0.23091   0.88459   0.95844   0.00000  Uiso   1.00
H1083  H     0.12398   0.70620   0.76513   0.00000  Uiso   1.00
H1084  H     0.20935   0.96047   0.90154   0.00000  Uiso   1.00
N1085  N     0.16668   0.83334   0.95069   0.00000  Uiso   1.00
N1086  N     0.16665   0.83332   0.71597   0.00000  Uiso   1.00
N1087  N     0.30749   0.78874   0.74009   0.00000  Uiso   1.00
N1088  N     0.02584   0.87792   0.92657   0.00000  Uiso   1.00
N1089  N     0.09104   0.94413   0.72031   0.00000  Uiso   1.00
N1090  N     0.24229   0.72253   0.94636   0.00000  Uiso   1.00
N1091  N     0.07239   0.75718   0.92244   0.00000  Uiso   1.00
N1092  N     0.26095   0.90948   0.74422   0.00000  Uiso   1.00
O1093  O     0.16666   0.77322   0.87291   0.00000  Uiso   1.00
O1094  O     0.16667   0.89345   0.79375   0.00000  Uiso   1.00
O1095  O     0.16666   0.77321   0.79372   0.00000  Uiso   1.00
O1096  O     0.16667   0.89346   0.87294   0.00000  Uiso   1.00
O1097  O     0.09161   0.83334   0.86379   0.00000  Uiso   1.00
O1098  O     0.24172   0.83333   0.80288   0.00000  Uiso   1.00
O1099  O     0.09161   0.83333   0.78460   0.00000  Uiso   1.00
O1100  O     0.24172   0.83334   0.88207   0.00000  Uiso   1.00
C1101  C     0.50081   0.75413   0.83368   0.00000  Uiso   1.00
C1102  C     0.52517   0.68709   0.87309   0.00000  Uiso   1.00
C1103  C     0.49887   0.95718   0.83247   0.00000  Uiso   1.00
C1104  C     0.50113   0.70949   0.83419   0.00000  Uiso   1.00
C1105  C     0.46791   0.80773   0.68813   0.00000  Uiso   1.00
C1106  C     0.53209   0.85894   0.97853   0.00000  Uiso   1.00
C1107  C     0.46787   0.80761   0.97194   0.00000  Uiso   1.00
C1108  C     0.53213   0.85906   0.69473   0.00000  Uiso   1.00
C1109  C     0.65821   0.80599   0.77372   0.00000  Uiso   1.00
C1110  C     0.34179   0.86068   0.89295   0.00000  Uiso   1.00
C1111  C     0.44681   0.95988   0.75289   0.00000  Uiso   1.00
C1112  C     0.49919   0.91253   0.83299   0.00000  Uiso   1.00
C1113  C     0.55319   0.70678   0.91378   0.00000  Uiso   1.00
C1114  C     0.43350   0.77972   0.94434   0.00000  Uiso   1.00
C1115  C     0.56650   0.88695   0.72232   0.00000  Uiso   1.00
C1116  C     0.40155   0.83274   0.82156   0.00000  Uiso   1.00
C1117  C     0.59845   0.83393   0.84511   0.00000  Uiso   1.00
C1118  C     0.34697   0.82766   0.81596   0.00000  Uiso   1.00
C1119  C     0.65303   0.83901   0.85071   0.00000  Uiso   1.00
C1120  C     0.47636   0.68891   0.79477   0.00000  Uiso   1.00
C1121  C     0.52364   0.97775   0.87190   0.00000  Uiso   1.00
C1122  C     0.47483   0.97958   0.79358   0.00000  Uiso   1.00
Cu1123 Cu    0.50000   0.83334   0.88022   0.00000  Uiso   1.00
Cu1124 Cu    0.50000   0.83333   0.78645   0.00000  Uiso   1.00
F1125  F     0.43576   0.78208   0.70823   0.00000  Uiso   1.00
F1126  F     0.56424   0.88459   0.95844   0.00000  Uiso   1.00
H1127  H     0.45731   0.70620   0.76513   0.00000  Uiso   1.00
H1128  H     0.54269   0.96047   0.90154   0.00000  Uiso   1.00
N1129  N     0.50001   0.83334   0.95069   0.00000  Uiso   1.00
N1130  N     0.49999   0.83332   0.71597   0.00000  Uiso   1.00
N1131  N     0.64082   0.78874   0.74009   0.00000  Uiso   1.00
N1132  N     0.35918   0.87792   0.92657   0.00000  Uiso   1.00
N1133  N     0.42437   0.94413   0.72031   0.00000  Uiso   1.00
N1134  N     0.57562   0.72253   0.94636   0.00000  Uiso   1.00
N1135  N     0.40572   0.75718   0.92244   0.00000  Uiso   1.00
N1136  N     0.59428   0.90948   0.74422   0.00000  Uiso   1.00
O1137  O     0.50000   0.77322   0.87291   0.00000  Uiso   1.00
O1138  O     0.50000   0.89345   0.79375   0.00000  Uiso   1.00
O1139  O     0.50000   0.77321   0.79372   0.00000  Uiso   1.00
O1140  O     0.50000   0.89346   0.87294   0.00000  Uiso   1.00
O1141  O     0.42495   0.83334   0.86379   0.00000  Uiso   1.00
O1142  O     0.57505   0.83333   0.80288   0.00000  Uiso   1.00
O1143  O     0.42494   0.83333   0.78460   0.00000  Uiso   1.00
O1144  O     0.57506   0.83334   0.88207   0.00000  Uiso   1.00
C1145  C     0.83414   0.75413   0.83368   0.00000  Uiso   1.00
C1146  C     0.85850   0.68709   0.87309   0.00000  Uiso   1.00
C1147  C     0.83220   0.95718   0.83247   0.00000  Uiso   1.00
C1148  C     0.83446   0.70949   0.83419   0.00000  Uiso   1.00
C1149  C     0.80124   0.80773   0.68813   0.00000  Uiso   1.00
C1150  C     0.86543   0.85894   0.97853   0.00000  Uiso   1.00
C1151  C     0.80120   0.80761   0.97194   0.00000  Uiso   1.00
C1152  C     0.86546   0.85906   0.69473   0.00000  Uiso   1.00
C1153  C     0.99154   0.80599   0.77372   0.00000  Uiso   1.00
C1154  C     0.67512   0.86068   0.89295   0.00000  Uiso   1.00
C1155  C     0.78014   0.95988   0.75289   0.00000  Uiso   1.00
C1156  C     0.83252   0.91253   0.83299   0.00000  Uiso   1.00
C1157  C     0.88652   0.70678   0.91378   0.00000  Uiso   1.00
C1158  C     0.76683   0.77972   0.94434   0.00000  Uiso   1.00
C1159  C     0.89984   0.88695   0.72232   0.00000  Uiso   1.00
C1160  C     0.73488   0.83274   0.82156   0.00000  Uiso   1.00
C1161  C     0.93179   0.83393   0.84511   0.00000  Uiso   1.00
C1162  C     0.68030   0.82766   0.81596   0.00000  Uiso   1.00
C1163  C     0.98636   0.83901   0.85071   0.00000  Uiso   1.00
C1164  C     0.80969   0.68891   0.79477   0.00000  Uiso   1.00
C1165  C     0.85698   0.97775   0.87190   0.00000  Uiso   1.00
C1166  C     0.80817   0.97958   0.79358   0.00000  Uiso   1.00
Cu1167 Cu    0.83333   0.83334   0.88022   0.00000  Uiso   1.00
Cu1168 Cu    0.83333   0.83333   0.78645   0.00000  Uiso   1.00
F1169  F     0.76909   0.78208   0.70823   0.00000  Uiso   1.00
F1170  F     0.89757   0.88459   0.95844   0.00000  Uiso   1.00
H1171  H     0.79064   0.70620   0.76513   0.00000  Uiso   1.00
H1172  H     0.87602   0.96047   0.90154   0.00000  Uiso   1.00
N1173  N     0.83335   0.83334   0.95069   0.00000  Uiso   1.00
N1174  N     0.83332   0.83332   0.71597   0.00000  Uiso   1.00
N1175  N     0.97416   0.78874   0.74009   0.00000  Uiso   1.00
N1176  N     0.69251   0.87792   0.92657   0.00000  Uiso   1.00
N1177  N     0.75771   0.94413   0.72031   0.00000  Uiso   1.00
N1178  N     0.90895   0.72253   0.94636   0.00000  Uiso   1.00
N1179  N     0.73905   0.75718   0.92244   0.00000  Uiso   1.00
N1180  N     0.92761   0.90948   0.74422   0.00000  Uiso   1.00
O1181  O     0.83333   0.77322   0.87291   0.00000  Uiso   1.00
O1182  O     0.83334   0.89345   0.79375   0.00000  Uiso   1.00
O1183  O     0.83333   0.77321   0.79372   0.00000  Uiso   1.00
O1184  O     0.83334   0.89346   0.87294   0.00000  Uiso   1.00
O1185  O     0.75828   0.83334   0.86379   0.00000  Uiso   1.00
O1186  O     0.90839   0.83333   0.80288   0.00000  Uiso   1.00
O1187  O     0.75828   0.83333   0.78460   0.00000  Uiso   1.00
O1188  O     0.90839   0.83334   0.88207   0.00000  Uiso   1.00
loop_
_geom_bond_atom_site_label_1
_geom_bond_atom_site_label_2
_geom_bond_distance
_geom_bond_site_symmetry_2
_ccdc_geom_bond_type
C1     O37     1.292   .     A
C1     C4      1.450   .     S
C1     O39     1.294   .     A
C2     C4      1.410   .     A
C2     C13     1.446   .     S
C2     C285    1.386   1_545 S
C3     C21     1.400   .     A
C3     C22     1.410   .     A
C3     C12     1.450   .     S
C4     C20     1.400   .     A
C5     F25     1.357   .     S
C5     N30     1.364   .     A
C5     C799    1.419   1_554 S
C6     F26     1.357   .     S
C6     N29     1.364   .     A
C6     C404    1.419   .     S
C7     N29     1.375   .     A
C7     C14     1.439   .     S
C7     C401    1.419   .     S
C8     N30     1.375   .     A
C8     C15     1.439   .     S
C8     C798    1.419   1_554 S
C9     N31     1.158   .     T
C9     C62     1.456   .     S
C10    N32     1.158   .     T
C10    C107    1.456   1_455 S
C11    C22     1.446   .     S
C11    N33     1.157   .     T
C12    O40     1.294   .     A
C12    O38     1.292   .     A
C13    N34     1.157   .     T
C14    N35     1.158   .     T
C15    N36     1.158   .     T
C16    O43     1.293   .     A
C16    C18     1.437   .     S
C16    O41     1.285   .     A
C17    O44     1.293   .     A
C17    C19     1.437   .     S
C17    O42     1.285   .     A
C18    C97     1.456   1_455 S
C18    C107    1.360   1_455 S
C19    C62     1.360   .     S
C19    C54     1.456   .     S
C20    H27     1.085   .     S
C20    C286    1.386   1_545 S
C21    H28     1.085   .     S
C21    C134    1.386   .     S
C22    C152    1.386   .     S
Cu23   Cu24    2.686   .     S
Cu23   O41     1.978   .     S
Cu23   N29     2.019   .     S
Cu23   O40     1.961   .     S
Cu23   O37     1.966   .     S
Cu23   O44     1.977   .     S
Cu24   O42     1.978   .     S
Cu24   O38     1.966   .     S
Cu24   O39     1.961   .     S
Cu24   O43     1.977   .     S
Cu24   N30     2.019   .     S
C45    O81     1.292   .     A
C45    C48     1.450   .     S
C45    O83     1.294   .     A
C46    C48     1.410   .     A
C46    C57     1.446   .     S
C46    C329    1.386   1_545 S
C47    C65     1.400   .     A
C47    C66     1.410   .     A
C47    C56     1.450   .     S
C48    C64     1.400   .     A
C49    F69     1.357   .     S
C49    N74     1.364   .     A
C49    C843    1.419   1_554 S
C50    F70     1.357   .     S
C50    N73     1.364   .     A
C50    C448    1.419   .     S
C51    N73     1.375   .     A
C51    C58     1.439   .     S
C51    C445    1.419   .     S
C52    N74     1.375   .     A
C52    C59     1.439   .     S
C52    C842    1.419   1_554 S
C53    N75     1.158   .     T
C53    C106    1.456   .     S
C54    N76     1.158   .     T
C55    C66     1.446   .     S
C55    N77     1.157   .     T
C56    O84     1.294   .     A
C56    O82     1.292   .     A
C57    N78     1.157   .     T
C58    N79     1.158   .     T
C59    N80     1.158   .     T
C60    O87     1.293   .     A
C60    C62     1.437   .     S
C60    O85     1.285   .     A
C61    O88     1.293   .     A
C61    C63     1.437   .     S
C61    O86     1.285   .     A
C63    C106    1.360   .     S
C63    C98     1.456   .     S
C64    H71     1.085   .     S
C64    C330    1.386   1_545 S
C65    H72     1.085   .     S
C65    C178    1.386   .     S
C66    C196    1.386   .     S
Cu67   Cu68    2.686   .     S
Cu67   O85     1.978   .     S
Cu67   N73     2.019   .     S
Cu67   O84     1.961   .     S
Cu67   O81     1.966   .     S
Cu67   O88     1.977   .     S
Cu68   O86     1.978   .     S
Cu68   O82     1.966   .     S
Cu68   O83     1.961   .     S
Cu68   O87     1.977   .     S
Cu68   N74     2.019   .     S
C89    O125    1.292   .     A
C89    C92     1.450   .     S
C89    O127    1.294   .     A
C90    C92     1.410   .     A
C90    C101    1.446   .     S
C90    C373    1.386   1_545 S
C91    C109    1.400   .     A
C91    C110    1.410   .     A
C91    C100    1.450   .     S
C92    C108    1.400   .     A
C93    F113    1.357   .     S
C93    N118    1.364   .     A
C93    C887    1.419   1_554 S
C94    F114    1.357   .     S
C94    N117    1.364   .     A
C94    C492    1.419   .     S
C95    N117    1.375   .     A
C95    C102    1.439   .     S
C95    C489    1.419   .     S
C96    N118    1.375   .     A
C96    C103    1.439   .     S
C96    C886    1.419   1_554 S
C97    N119    1.158   .     T
C97    C18     1.456   1_655 S
C98    N120    1.158   .     T
C99    C110    1.446   .     S
C99    N121    1.157   .     T
C100   O128    1.294   .     A
C100   O126    1.292   .     A
C101   N122    1.157   .     T
C102   N123    1.158   .     T
C103   N124    1.158   .     T
C104   O131    1.293   .     A
C104   C106    1.437   .     S
C104   O129    1.285   .     A
C105   O132    1.293   .     A
C105   C107    1.437   .     S
C105   O130    1.285   .     A
C107   C18     1.360   1_655 S
C107   C10     1.456   1_655 S
C108   H115    1.085   .     S
C108   C374    1.386   1_545 S
C109   H116    1.085   .     S
C109   C222    1.386   .     S
C110   C240    1.386   .     S
Cu111  Cu112   2.686   .     S
Cu111  O129    1.978   .     S
Cu111  N117    2.019   .     S
Cu111  O128    1.961   .     S
Cu111  O125    1.966   .     S
Cu111  O132    1.977   .     S
Cu112  O130    1.978   .     S
Cu112  O126    1.966   .     S
Cu112  O127    1.961   .     S
Cu112  O131    1.977   .     S
Cu112  N118    2.019   .     S
C133   O169    1.292   .     A
C133   C136    1.450   .     S
C133   O171    1.294   .     A
C134   C136    1.410   .     A
C134   C145    1.446   .     S
C135   C153    1.400   .     A
C135   C154    1.410   .     A
C135   C144    1.450   .     S
C136   C152    1.400   .     A
C137   F157    1.357   .     S
C137   N162    1.364   .     A
C137   C931    1.419   1_554 S
C138   F158    1.357   .     S
C138   N161    1.364   .     A
C138   C536    1.419   .     S
C139   N161    1.375   .     A
C139   C146    1.439   .     S
C139   C533    1.419   .     S
C140   N162    1.375   .     A
C140   C147    1.439   .     S
C140   C930    1.419   1_554 S
C141   N163    1.158   .     T
C141   C194    1.456   .     S
C142   N164    1.158   .     T
C142   C239    1.456   1_455 S
C143   C154    1.446   .     S
C143   N165    1.157   .     T
C144   O172    1.294   .     A
C144   O170    1.292   .     A
C145   N166    1.157   .     T
C146   N167    1.158   .     T
C147   N168    1.158   .     T
C148   O175    1.293   .     A
C148   C150    1.437   .     S
C148   O173    1.285   .     A
C149   O176    1.293   .     A
C149   C151    1.437   .     S
C149   O174    1.285   .     A
C150   C229    1.456   1_455 S
C150   C239    1.360   1_455 S
C151   C194    1.360   .     S
C151   C186    1.456   .     S
C152   H159    1.085   .     S
C153   H160    1.085   .     S
C153   C266    1.386   .     S
C154   C284    1.386   .     S
Cu155  Cu156   2.686   .     S
Cu155  O173    1.978   .     S
Cu155  N161    2.019   .     S
Cu155  O172    1.961   .     S
Cu155  O169    1.966   .     S
Cu155  O176    1.977   .     S
Cu156  O174    1.978   .     S
Cu156  O170    1.966   .     S
Cu156  O171    1.961   .     S
Cu156  O175    1.977   .     S
Cu156  N162    2.019   .     S
C177   O213    1.292   .     A
C177   C180    1.450   .     S
C177   O215    1.294   .     A
C178   C180    1.410   .     A
C178   C189    1.446   .     S
C179   C197    1.400   .     A
C179   C198    1.410   .     A
C179   C188    1.450   .     S
C180   C196    1.400   .     A
C181   F201    1.357   .     S
C181   N206    1.364   .     A
C181   C975    1.419   1_554 S
C182   F202    1.357   .     S
C182   N205    1.364   .     A
C182   C580    1.419   .     S
C183   N205    1.375   .     A
C183   C190    1.439   .     S
C183   C577    1.419   .     S
C184   N206    1.375   .     A
C184   C191    1.439   .     S
C184   C974    1.419   1_554 S
C185   N207    1.158   .     T
C185   C238    1.456   .     S
C186   N208    1.158   .     T
C187   C198    1.446   .     S
C187   N209    1.157   .     T
C188   O216    1.294   .     A
C188   O214    1.292   .     A
C189   N210    1.157   .     T
C190   N211    1.158   .     T
C191   N212    1.158   .     T
C192   O219    1.293   .     A
C192   C194    1.437   .     S
C192   O217    1.285   .     A
C193   O220    1.293   .     A
C193   C195    1.437   .     S
C193   O218    1.285   .     A
C195   C238    1.360   .     S
C195   C230    1.456   .     S
C196   H203    1.085   .     S
C197   H204    1.085   .     S
C197   C310    1.386   .     S
C198   C328    1.386   .     S
Cu199  Cu200   2.686   .     S
Cu199  O217    1.978   .     S
Cu199  N205    2.019   .     S
Cu199  O216    1.961   .     S
Cu199  O213    1.966   .     S
Cu199  O220    1.977   .     S
Cu200  O218    1.978   .     S
Cu200  O214    1.966   .     S
Cu200  O215    1.961   .     S
Cu200  O219    1.977   .     S
Cu200  N206    2.019   .     S
C221   O257    1.292   .     A
C221   C224    1.450   .     S
C221   O259    1.294   .     A
C222   C224    1.410   .     A
C222   C233    1.446   .     S
C223   C241    1.400   .     A
C223   C242    1.410   .     A
C223   C232    1.450   .     S
C224   C240    1.400   .     A
C225   F245    1.357   .     S
C225   N250    1.364   .     A
C225   C1019   1.419   1_554 S
C226   F246    1.357   .     S
C226   N249    1.364   .     A
C226   C624    1.419   .     S
C227   N249    1.375   .     A
C227   C234    1.439   .     S
C227   C621    1.419   .     S
C228   N250    1.375   .     A
C228   C235    1.439   .     S
C228   C1018   1.419   1_554 S
C229   N251    1.158   .     T
C229   C150    1.456   1_655 S
C230   N252    1.158   .     T
C231   C242    1.446   .     S
C231   N253    1.157   .     T
C232   O260    1.294   .     A
C232   O258    1.292   .     A
C233   N254    1.157   .     T
C234   N255    1.158   .     T
C235   N256    1.158   .     T
C236   O263    1.293   .     A
C236   C238    1.437   .     S
C236   O261    1.285   .     A
C237   O264    1.293   .     A
C237   C239    1.437   .     S
C237   O262    1.285   .     A
C239   C150    1.360   1_655 S
C239   C142    1.456   1_655 S
C240   H247    1.085   .     S
C241   H248    1.085   .     S
C241   C354    1.386   .     S
C242   C372    1.386   .     S
Cu243  Cu244   2.686   .     S
Cu243  O261    1.978   .     S
Cu243  N249    2.019   .     S
Cu243  O260    1.961   .     S
Cu243  O257    1.966   .     S
Cu243  O264    1.977   .     S
Cu244  O262    1.978   .     S
Cu244  O258    1.966   .     S
Cu244  O259    1.961   .     S
Cu244  O263    1.977   .     S
Cu244  N250    2.019   .     S
C265   O301    1.292   .     A
C265   C268    1.450   .     S
C265   O303    1.294   .     A
C266   C268    1.410   .     A
C266   C277    1.446   .     S
C267   C285    1.400   .     A
C267   C286    1.410   .     A
C267   C276    1.450   .     S
C268   C284    1.400   .     A
C269   F289    1.357   .     S
C269   N294    1.364   .     A
C269   C1063   1.419   1_554 S
C270   F290    1.357   .     S
C270   N293    1.364   .     A
C270   C668    1.419   .     S
C271   N293    1.375   .     A
C271   C278    1.439   .     S
C271   C665    1.419   .     S
C272   N294    1.375   .     A
C272   C279    1.439   .     S
C272   C1062   1.419   1_554 S
C273   N295    1.158   .     T
C273   C326    1.456   .     S
C274   N296    1.158   .     T
C274   C371    1.456   1_455 S
C275   C286    1.446   .     S
C275   N297    1.157   .     T
C276   O304    1.294   .     A
C276   O302    1.292   .     A
C277   N298    1.157   .     T
C278   N299    1.158   .     T
C279   N300    1.158   .     T
C280   O307    1.293   .     A
C280   C282    1.437   .     S
C280   O305    1.285   .     A
C281   O308    1.293   .     A
C281   C283    1.437   .     S
C281   O306    1.285   .     A
C282   C361    1.456   1_455 S
C282   C371    1.360   1_455 S
C283   C326    1.360   .     S
C283   C318    1.456   .     S
C284   H291    1.085   .     S
C285   H292    1.085   .     S
C285   C2      1.386   1_565 S
C286   C20     1.386   1_565 S
Cu287  Cu288   2.686   .     S
Cu287  O305    1.978   .     S
Cu287  N293    2.019   .     S
Cu287  O304    1.961   .     S
Cu287  O301    1.966   .     S
Cu287  O308    1.977   .     S
Cu288  O306    1.978   .     S
Cu288  O302    1.966   .     S
Cu288  O303    1.961   .     S
Cu288  O307    1.977   .     S
Cu288  N294    2.019   .     S
C309   O345    1.292   .     A
C309   C312    1.450   .     S
C309   O347    1.294   .     A
C310   C312    1.410   .     A
C310   C321    1.446   .     S
C311   C329    1.400   .     A
C311   C330    1.410   .     A
C311   C320    1.450   .     S
C312   C328    1.400   .     A
C313   F333    1.357   .     S
C313   N338    1.364   .     A
C313   C1107   1.419   1_554 S
C314   F334    1.357   .     S
C314   N337    1.364   .     A
C314   C712    1.419   .     S
C315   N337    1.375   .     A
C315   C322    1.439   .     S
C315   C709    1.419   .     S
C316   N338    1.375   .     A
C316   C323    1.439   .     S
C316   C1106   1.419   1_554 S
C317   N339    1.158   .     T
C317   C370    1.456   .     S
C318   N340    1.158   .     T
C319   C330    1.446   .     S
C319   N341    1.157   .     T
C320   O348    1.294   .     A
C320   O346    1.292   .     A
C321   N342    1.157   .     T
C322   N343    1.158   .     T
C323   N344    1.158   .     T
C324   O351    1.293   .     A
C324   C326    1.437   .     S
C324   O349    1.285   .     A
C325   O352    1.293   .     A
C325   C327    1.437   .     S
C325   O350    1.285   .     A
C327   C370    1.360   .     S
C327   C362    1.456   .     S
C328   H335    1.085   .     S
C329   H336    1.085   .     S
C329   C46     1.386   1_565 S
C330   C64     1.386   1_565 S
Cu331  Cu332   2.686   .     S
Cu331  O349    1.978   .     S
Cu331  N337    2.019   .     S
Cu331  O348    1.961   .     S
Cu331  O345    1.966   .     S
Cu331  O352    1.977   .     S
Cu332  O350    1.978   .     S
Cu332  O346    1.966   .     S
Cu332  O347    1.961   .     S
Cu332  O351    1.977   .     S
Cu332  N338    2.019   .     S
C353   O389    1.292   .     A
C353   C356    1.450   .     S
C353   O391    1.294   .     A
C354   C356    1.410   .     A
C354   C365    1.446   .     S
C355   C373    1.400   .     A
C355   C374    1.410   .     A
C355   C364    1.450   .     S
C356   C372    1.400   .     A
C357   F377    1.357   .     S
C357   N382    1.364   .     A
C357   C1151   1.419   1_554 S
C358   F378    1.357   .     S
C358   N381    1.364   .     A
C358   C756    1.419   .     S
C359   N381    1.375   .     A
C359   C366    1.439   .     S
C359   C753    1.419   .     S
C360   N382    1.375   .     A
C360   C367    1.439   .     S
C360   C1150   1.419   1_554 S
C361   N383    1.158   .     T
C361   C282    1.456   1_655 S
C362   N384    1.158   .     T
C363   C374    1.446   .     S
C363   N385    1.157   .     T
C364   O392    1.294   .     A
C364   O390    1.292   .     A
C365   N386    1.157   .     T
C366   N387    1.158   .     T
C367   N388    1.158   .     T
C368   O395    1.293   .     A
C368   C370    1.437   .     S
C368   O393    1.285   .     A
C369   O396    1.293   .     A
C369   C371    1.437   .     S
C369   O394    1.285   .     A
C371   C282    1.360   1_655 S
C371   C274    1.456   1_655 S
C372   H379    1.085   .     S
C373   H380    1.085   .     S
C373   C90     1.386   1_565 S
C374   C108    1.386   1_565 S
Cu375  Cu376   2.686   .     S
Cu375  O393    1.978   .     S
Cu375  N381    2.019   .     S
Cu375  O392    1.961   .     S
Cu375  O389    1.966   .     S
Cu375  O396    1.977   .     S
Cu376  O394    1.978   .     S
Cu376  O390    1.966   .     S
Cu376  O391    1.961   .     S
Cu376  O395    1.977   .     S
Cu376  N382    2.019   .     S
C397   O433    1.292   .     A
C397   C400    1.450   .     S
C397   O435    1.294   .     A
C398   C400    1.410   .     A
C398   C409    1.446   .     S
C398   C681    1.386   1_545 S
C399   C417    1.400   .     A
C399   C418    1.410   .     A
C399   C408    1.450   .     S
C400   C416    1.400   .     A
C401   F421    1.357   .     S
C401   N426    1.364   .     A
C402   F422    1.357   .     S
C402   N425    1.364   .     A
C402   C800    1.419   .     S
C403   N425    1.375   .     A
C403   C410    1.439   .     S
C403   C797    1.419   .     S
C404   N426    1.375   .     A
C404   C411    1.439   .     S
C405   N427    1.158   .     T
C405   C458    1.456   .     S
C406   N428    1.158   .     T
C406   C503    1.456   1_455 S
C407   C418    1.446   .     S
C407   N429    1.157   .     T
C408   O436    1.294   .     A
C408   O434    1.292   .     A
C409   N430    1.157   .     T
C410   N431    1.158   .     T
C411   N432    1.158   .     T
C412   O439    1.293   .     A
C412   C414    1.437   .     S
C412   O437    1.285   .     A
C413   O440    1.293   .     A
C413   C415    1.437   .     S
C413   O438    1.285   .     A
C414   C493    1.456   1_455 S
C414   C503    1.360   1_455 S
C415   C458    1.360   .     S
C415   C450    1.456   .     S
C416   H423    1.085   .     S
C416   C682    1.386   1_545 S
C417   H424    1.085   .     S
C417   C530    1.386   .     S
C418   C548    1.386   .     S
Cu419  Cu420   2.686   .     S
Cu419  O437    1.978   .     S
Cu419  N425    2.019   .     S
Cu419  O436    1.961   .     S
Cu419  O433    1.966   .     S
Cu419  O440    1.977   .     S
Cu420  O438    1.978   .     S
Cu420  O434    1.966   .     S
Cu420  O435    1.961   .     S
Cu420  O439    1.977   .     S
Cu420  N426    2.019   .     S
C441   O477    1.292   .     A
C441   C444    1.450   .     S
C441   O479    1.294   .     A
C442   C444    1.410   .     A
C442   C453    1.446   .     S
C442   C725    1.386   1_545 S
C443   C461    1.400   .     A
C443   C462    1.410   .     A
C443   C452    1.450   .     S
C444   C460    1.400   .     A
C445   F465    1.357   .     S
C445   N470    1.364   .     A
C446   F466    1.357   .     S
C446   N469    1.364   .     A
C446   C844    1.419   .     S
C447   N469    1.375   .     A
C447   C454    1.439   .     S
C447   C841    1.419   .     S
C448   N470    1.375   .     A
C448   C455    1.439   .     S
C449   N471    1.158   .     T
C449   C502    1.456   .     S
C450   N472    1.158   .     T
C451   C462    1.446   .     S
C451   N473    1.157   .     T
C452   O480    1.294   .     A
C452   O478    1.292   .     A
C453   N474    1.157   .     T
C454   N475    1.158   .     T
C455   N476    1.158   .     T
C456   O483    1.293   .     A
C456   C458    1.437   .     S
C456   O481    1.285   .     A
C457   O484    1.293   .     A
C457   C459    1.437   .     S
C457   O482    1.285   .     A
C459   C502    1.360   .     S
C459   C494    1.456   .     S
C460   H467    1.085   .     S
C460   C726    1.386   1_545 S
C461   H468    1.085   .     S
C461   C574    1.386   .     S
C462   C592    1.386   .     S
Cu463  Cu464   2.686   .     S
Cu463  O481    1.978   .     S
Cu463  N469    2.019   .     S
Cu463  O480    1.961   .     S
Cu463  O477    1.966   .     S
Cu463  O484    1.977   .     S
Cu464  O482    1.978   .     S
Cu464  O478    1.966   .     S
Cu464  O479    1.961   .     S
Cu464  O483    1.977   .     S
Cu464  N470    2.019   .     S
C485   O521    1.292   .     A
C485   C488    1.450   .     S
C485   O523    1.294   .     A
C486   C488    1.410   .     A
C486   C497    1.446   .     S
C486   C769    1.386   1_545 S
C487   C505    1.400   .     A
C487   C506    1.410   .     A
C487   C496    1.450   .     S
C488   C504    1.400   .     A
C489   F509    1.357   .     S
C489   N514    1.364   .     A
C490   F510    1.357   .     S
C490   N513    1.364   .     A
C490   C888    1.419   .     S
C491   N513    1.375   .     A
C491   C498    1.439   .     S
C491   C885    1.419   .     S
C492   N514    1.375   .     A
C492   C499    1.439   .     S
C493   N515    1.158   .     T
C493   C414    1.456   1_655 S
C494   N516    1.158   .     T
C495   C506    1.446   .     S
C495   N517    1.157   .     T
C496   O524    1.294   .     A
C496   O522    1.292   .     A
C497   N518    1.157   .     T
C498   N519    1.158   .     T
C499   N520    1.158   .     T
C500   O527    1.293   .     A
C500   C502    1.437   .     S
C500   O525    1.285   .     A
C501   O528    1.293   .     A
C501   C503    1.437   .     S
C501   O526    1.285   .     A
C503   C414    1.360   1_655 S
C503   C406    1.456   1_655 S
C504   H511    1.085   .     S
C504   C770    1.386   1_545 S
C505   H512    1.085   .     S
C505   C618    1.386   .     S
C506   C636    1.386   .     S
Cu507  Cu508   2.686   .     S
Cu507  O525    1.978   .     S
Cu507  N513    2.019   .     S
Cu507  O524    1.961   .     S
Cu507  O521    1.966   .     S
Cu507  O528    1.977   .     S
Cu508  O526    1.978   .     S
Cu508  O522    1.966   .     S
Cu508  O523    1.961   .     S
Cu508  O527    1.977   .     S
Cu508  N514    2.019   .     S
C529   O565    1.292   .     A
C529   C532    1.450   .     S
C529   O567    1.294   .     A
C530   C532    1.410   .     A
C530   C541    1.446   .     S
C531   C549    1.400   .     A
C531   C550    1.410   .     A
C531   C540    1.450   .     S
C532   C548    1.400   .     A
C533   F553    1.357   .     S
C533   N558    1.364   .     A
C534   F554    1.357   .     S
C534   N557    1.364   .     A
C534   C932    1.419   .     S
C535   N557    1.375   .     A
C535   C542    1.439   .     S
C535   C929    1.419   .     S
C536   N558    1.375   .     A
C536   C543    1.439   .     S
C537   N559    1.158   .     T
C537   C590    1.456   .     S
C538   N560    1.158   .     T
C538   C635    1.456   1_455 S
C539   C550    1.446   .     S
C539   N561    1.157   .     T
C540   O568    1.294   .     A
C540   O566    1.292   .     A
C541   N562    1.157   .     T
C542   N563    1.158   .     T
C543   N564    1.158   .     T
C544   O571    1.293   .     A
C544   C546    1.437   .     S
C544   O569    1.285   .     A
C545   O572    1.293   .     A
C545   C547    1.437   .     S
C545   O570    1.285   .     A
C546   C625    1.456   1_455 S
C546   C635    1.360   1_455 S
C547   C590    1.360   .     S
C547   C582    1.456   .     S
C548   H555    1.085   .     S
C549   H556    1.085   .     S
C549   C662    1.386   .     S
C550   C680    1.386   .     S
Cu551  Cu552   2.686   .     S
Cu551  O569    1.978   .     S
Cu551  N557    2.019   .     S
Cu551  O568    1.961   .     S
Cu551  O565    1.966   .     S
Cu551  O572    1.977   .     S
Cu552  O570    1.978   .     S
Cu552  O566    1.966   .     S
Cu552  O567    1.961   .     S
Cu552  O571    1.977   .     S
Cu552  N558    2.019   .     S
C573   O609    1.292   .     A
C573   C576    1.450   .     S
C573   O611    1.294   .     A
C574   C576    1.410   .     A
C574   C585    1.446   .     S
C575   C593    1.400   .     A
C575   C594    1.410   .     A
C575   C584    1.450   .     S
C576   C592    1.400   .     A
C577   F597    1.357   .     S
C577   N602    1.364   .     A
C578   F598    1.357   .     S
C578   N601    1.364   .     A
C578   C976    1.419   .     S
C579   N601    1.375   .     A
C579   C586    1.439   .     S
C579   C973    1.419   .     S
C580   N602    1.375   .     A
C580   C587    1.439   .     S
C581   N603    1.158   .     T
C581   C634    1.456   .     S
C582   N604    1.158   .     T
C583   C594    1.446   .     S
C583   N605    1.157   .     T
C584   O612    1.294   .     A
C584   O610    1.292   .     A
C585   N606    1.157   .     T
C586   N607    1.158   .     T
C587   N608    1.158   .     T
C588   O615    1.293   .     A
C588   C590    1.437   .     S
C588   O613    1.285   .     A
C589   O616    1.293   .     A
C589   C591    1.437   .     S
C589   O614    1.285   .     A
C591   C634    1.360   .     S
C591   C626    1.456   .     S
C592   H599    1.085   .     S
C593   H600    1.085   .     S
C593   C706    1.386   .     S
C594   C724    1.386   .     S
Cu595  Cu596   2.686   .     S
Cu595  O613    1.978   .     S
Cu595  N601    2.019   .     S
Cu595  O612    1.961   .     S
Cu595  O609    1.966   .     S
Cu595  O616    1.977   .     S
Cu596  O614    1.978   .     S
Cu596  O610    1.966   .     S
Cu596  O611    1.961   .     S
Cu596  O615    1.977   .     S
Cu596  N602    2.019   .     S
C617   O653    1.292   .     A
C617   C620    1.450   .     S
C617   O655    1.294   .     A
C618   C620    1.410   .     A
C618   C629    1.446   .     S
C619   C637    1.400   .     A
C619   C638    1.410   .     A
C619   C628    1.450   .     S
C620   C636    1.400   .     A
C621   F641    1.357   .     S
C621   N646    1.364   .     A
C622   F642    1.357   .     S
C622   N645    1.364   .     A
C622   C1020   1.419   .     S
C623   N645    1.375   .     A
C623   C630    1.439   .     S
C623   C1017   1.419   .     S
C624   N646    1.375   .     A
C624   C631    1.439   .     S
C625   N647    1.158   .     T
C625   C546    1.456   1_655 S
C626   N648    1.158   .     T
C627   C638    1.446   .     S
C627   N649    1.157   .     T
C628   O656    1.294   .     A
C628   O654    1.292   .     A
C629   N650    1.157   .     T
C630   N651    1.158   .     T
C631   N652    1.158   .     T
C632   O659    1.293   .     A
C632   C634    1.437   .     S
C632   O657    1.285   .     A
C633   O660    1.293   .     A
C633   C635    1.437   .     S
C633   O658    1.285   .     A
C635   C546    1.360   1_655 S
C635   C538    1.456   1_655 S
C636   H643    1.085   .     S
C637   H644    1.085   .     S
C637   C750    1.386   .     S
C638   C768    1.386   .     S
Cu639  Cu640   2.686   .     S
Cu639  O657    1.978   .     S
Cu639  N645    2.019   .     S
Cu639  O656    1.961   .     S
Cu639  O653    1.966   .     S
Cu639  O660    1.977   .     S
Cu640  O658    1.978   .     S
Cu640  O654    1.966   .     S
Cu640  O655    1.961   .     S
Cu640  O659    1.977   .     S
Cu640  N646    2.019   .     S
C661   O697    1.292   .     A
C661   C664    1.450   .     S
C661   O699    1.294   .     A
C662   C664    1.410   .     A
C662   C673    1.446   .     S
C663   C681    1.400   .     A
C663   C682    1.410   .     A
C663   C672    1.450   .     S
C664   C680    1.400   .     A
C665   F685    1.357   .     S
C665   N690    1.364   .     A
C666   F686    1.357   .     S
C666   N689    1.364   .     A
C666   C1064   1.419   .     S
C667   N689    1.375   .     A
C667   C674    1.439   .     S
C667   C1061   1.419   .     S
C668   N690    1.375   .     A
C668   C675    1.439   .     S
C669   N691    1.158   .     T
C669   C722    1.456   .     S
C670   N692    1.158   .     T
C670   C767    1.456   1_455 S
C671   C682    1.446   .     S
C671   N693    1.157   .     T
C672   O700    1.294   .     A
C672   O698    1.292   .     A
C673   N694    1.157   .     T
C674   N695    1.158   .     T
C675   N696    1.158   .     T
C676   O703    1.293   .     A
C676   C678    1.437   .     S
C676   O701    1.285   .     A
C677   O704    1.293   .     A
C677   C679    1.437   .     S
C677   O702    1.285   .     A
C678   C757    1.456   1_455 S
C678   C767    1.360   1_455 S
C679   C722    1.360   .     S
C679   C714    1.456   .     S
C680   H687    1.085   .     S
C681   H688    1.085   .     S
C681   C398    1.386   1_565 S
C682   C416    1.386   1_565 S
Cu683  Cu684   2.686   .     S
Cu683  O701    1.978   .     S
Cu683  N689    2.019   .     S
Cu683  O700    1.961   .     S
Cu683  O697    1.966   .     S
Cu683  O704    1.977   .     S
Cu684  O702    1.978   .     S
Cu684  O698    1.966   .     S
Cu684  O699    1.961   .     S
Cu684  O703    1.977   .     S
Cu684  N690    2.019   .     S
C705   O741    1.292   .     A
C705   C708    1.450   .     S
C705   O743    1.294   .     A
C706   C708    1.410   .     A
C706   C717    1.446   .     S
C707   C725    1.400   .     A
C707   C726    1.410   .     A
C707   C716    1.450   .     S
C708   C724    1.400   .     A
C709   F729    1.357   .     S
C709   N734    1.364   .     A
C710   F730    1.357   .     S
C710   N733    1.364   .     A
C710   C1108   1.419   .     S
C711   N733    1.375   .     A
C711   C718    1.439   .     S
C711   C1105   1.419   .     S
C712   N734    1.375   .     A
C712   C719    1.439   .     S
C713   N735    1.158   .     T
C713   C766    1.456   .     S
C714   N736    1.158   .     T
C715   C726    1.446   .     S
C715   N737    1.157   .     T
C716   O744    1.294   .     A
C716   O742    1.292   .     A
C717   N738    1.157   .     T
C718   N739    1.158   .     T
C719   N740    1.158   .     T
C720   O747    1.293   .     A
C720   C722    1.437   .     S
C720   O745    1.285   .     A
C721   O748    1.293   .     A
C721   C723    1.437   .     S
C721   O746    1.285   .     A
C723   C766    1.360   .     S
C723   C758    1.456   .     S
C724   H731    1.085   .     S
C725   H732    1.085   .     S
C725   C442    1.386   1_565 S
C726   C460    1.386   1_565 S
Cu727  Cu728   2.686   .     S
Cu727  O745    1.978   .     S
Cu727  N733    2.019   .     S
Cu727  O744    1.961   .     S
Cu727  O741    1.966   .     S
Cu727  O748    1.977   .     S
Cu728  O746    1.978   .     S
Cu728  O742    1.966   .     S
Cu728  O743    1.961   .     S
Cu728  O747    1.977   .     S
Cu728  N734    2.019   .     S
C749   O785    1.292   .     A
C749   C752    1.450   .     S
C749   O787    1.294   .     A
C750   C752    1.410   .     A
C750   C761    1.446   .     S
C751   C769    1.400   .     A
C751   C770    1.410   .     A
C751   C760    1.450   .     S
C752   C768    1.400   .     A
C753   F773    1.357   .     S
C753   N778    1.364   .     A
C754   F774    1.357   .     S
C754   N777    1.364   .     A
C754   C1152   1.419   .     S
C755   N777    1.375   .     A
C755   C762    1.439   .     S
C755   C1149   1.419   .     S
C756   N778    1.375   .     A
C756   C763    1.439   .     S
C757   N779    1.158   .     T
C757   C678    1.456   1_655 S
C758   N780    1.158   .     T
C759   C770    1.446   .     S
C759   N781    1.157   .     T
C760   O788    1.294   .     A
C760   O786    1.292   .     A
C761   N782    1.157   .     T
C762   N783    1.158   .     T
C763   N784    1.158   .     T
C764   O791    1.293   .     A
C764   C766    1.437   .     S
C764   O789    1.285   .     A
C765   O792    1.293   .     A
C765   C767    1.437   .     S
C765   O790    1.285   .     A
C767   C678    1.360   1_655 S
C767   C670    1.456   1_655 S
C768   H775    1.085   .     S
C769   H776    1.085   .     S
C769   C486    1.386   1_565 S
C770   C504    1.386   1_565 S
Cu771  Cu772   2.686   .     S
Cu771  O789    1.978   .     S
Cu771  N777    2.019   .     S
Cu771  O788    1.961   .     S
Cu771  O785    1.966   .     S
Cu771  O792    1.977   .     S
Cu772  O790    1.978   .     S
Cu772  O786    1.966   .     S
Cu772  O787    1.961   .     S
Cu772  O791    1.977   .     S
Cu772  N778    2.019   .     S
C793   O829    1.292   .     A
C793   C796    1.450   .     S
C793   O831    1.294   .     A
C794   C796    1.410   .     A
C794   C805    1.446   .     S
C794   C1077   1.386   1_545 S
C795   C813    1.400   .     A
C795   C814    1.410   .     A
C795   C804    1.450   .     S
C796   C812    1.400   .     A
C797   F817    1.357   .     S
C797   N822    1.364   .     A
C798   F818    1.357   .     S
C798   N821    1.364   .     A
C798   C8      1.419   1_556 S
C799   N821    1.375   .     A
C799   C806    1.439   .     S
C799   C5      1.419   1_556 S
C800   N822    1.375   .     A
C800   C807    1.439   .     S
C801   N823    1.158   .     T
C801   C854    1.456   .     S
C802   N824    1.158   .     T
C802   C899    1.456   1_455 S
C803   C814    1.446   .     S
C803   N825    1.157   .     T
C804   O832    1.294   .     A
C804   O830    1.292   .     A
C805   N826    1.157   .     T
C806   N827    1.158   .     T
C807   N828    1.158   .     T
C808   O835    1.293   .     A
C808   C810    1.437   .     S
C808   O833    1.285   .     A
C809   O836    1.293   .     A
C809   C811    1.437   .     S
C809   O834    1.285   .     A
C810   C889    1.456   1_455 S
C810   C899    1.360   1_455 S
C811   C854    1.360   .     S
C811   C846    1.456   .     S
C812   H819    1.085   .     S
C812   C1078   1.386   1_545 S
C813   H820    1.085   .     S
C813   C926    1.386   .     S
C814   C944    1.386   .     S
Cu815  Cu816   2.686   .     S
Cu815  O833    1.978   .     S
Cu815  N821    2.019   .     S
Cu815  O832    1.961   .     S
Cu815  O829    1.966   .     S
Cu815  O836    1.977   .     S
Cu816  O834    1.978   .     S
Cu816  O830    1.966   .     S
Cu816  O831    1.961   .     S
Cu816  O835    1.977   .     S
Cu816  N822    2.019   .     S
C837   O873    1.292   .     A
C837   C840    1.450   .     S
C837   O875    1.294   .     A
C838   C840    1.410   .     A
C838   C849    1.446   .     S
C838   C1121   1.386   1_545 S
C839   C857    1.400   .     A
C839   C858    1.410   .     A
C839   C848    1.450   .     S
C840   C856    1.400   .     A
C841   F861    1.357   .     S
C841   N866    1.364   .     A
C842   F862    1.357   .     S
C842   N865    1.364   .     A
C842   C52     1.419   1_556 S
C843   N865    1.375   .     A
C843   C850    1.439   .     S
C843   C49     1.419   1_556 S
C844   N866    1.375   .     A
C844   C851    1.439   .     S
C845   N867    1.158   .     T
C845   C898    1.456   .     S
C846   N868    1.158   .     T
C847   C858    1.446   .     S
C847   N869    1.157   .     T
C848   O876    1.294   .     A
C848   O874    1.292   .     A
C849   N870    1.157   .     T
C850   N871    1.158   .     T
C851   N872    1.158   .     T
C852   O879    1.293   .     A
C852   C854    1.437   .     S
C852   O877    1.285   .     A
C853   O880    1.293   .     A
C853   C855    1.437   .     S
C853   O878    1.285   .     A
C855   C898    1.360   .     S
C855   C890    1.456   .     S
C856   H863    1.085   .     S
C856   C1122   1.386   1_545 S
C857   H864    1.085   .     S
C857   C970    1.386   .     S
C858   C988    1.386   .     S
Cu859  Cu860   2.686   .     S
Cu859  O877    1.978   .     S
Cu859  N865    2.019   .     S
Cu859  O876    1.961   .     S
Cu859  O873    1.966   .     S
Cu859  O880    1.977   .     S
Cu860  O878    1.978   .     S
Cu860  O874    1.966   .     S
Cu860  O875    1.961   .     S
Cu860  O879    1.977   .     S
Cu860  N866    2.019   .     S
C881   O917    1.292   .     A
C881   C884    1.450   .     S
C881   O919    1.294   .     A
C882   C884    1.410   .     A
C882   C893    1.446   .     S
C882   C1165   1.386   1_545 S
C883   C901    1.400   .     A
C883   C902    1.410   .     A
C883   C892    1.450   .     S
C884   C900    1.400   .     A
C885   F905    1.357   .     S
C885   N910    1.364   .     A
C886   F906    1.357   .     S
C886   N909    1.364   .     A
C886   C96     1.419   1_556 S
C887   N909    1.375   .     A
C887   C894    1.439   .     S
C887   C93     1.419   1_556 S
C888   N910    1.375   .     A
C888   C895    1.439   .     S
C889   N911    1.158   .     T
C889   C810    1.456   1_655 S
C890   N912    1.158   .     T
C891   C902    1.446   .     S
C891   N913    1.157   .     T
C892   O920    1.294   .     A
C892   O918    1.292   .     A
C893   N914    1.157   .     T
C894   N915    1.158   .     T
C895   N916    1.158   .     T
C896   O923    1.293   .     A
C896   C898    1.437   .     S
C896   O921    1.285   .     A
C897   O924    1.293   .     A
C897   C899    1.437   .     S
C897   O922    1.285   .     A
C899   C810    1.360   1_655 S
C899   C802    1.456   1_655 S
C900   H907    1.085   .     S
C900   C1166   1.386   1_545 S
C901   H908    1.085   .     S
C901   C1014   1.386   .     S
C902   C1032   1.386   .     S
Cu903  Cu904   2.686   .     S
Cu903  O921    1.978   .     S
Cu903  N909    2.019   .     S
Cu903  O920    1.961   .     S
Cu903  O917    1.966   .     S
Cu903  O924    1.977   .     S
Cu904  O922    1.978   .     S
Cu904  O918    1.966   .     S
Cu904  O919    1.961   .     S
Cu904  O923    1.977   .     S
Cu904  N910    2.019   .     S
C925   O961    1.292   .     A
C925   C928    1.450   .     S
C925   O963    1.294   .     A
C926   C928    1.410   .     A
C926   C937    1.446   .     S
C927   C945    1.400   .     A
C927   C946    1.410   .     A
C927   C936    1.450   .     S
C928   C944    1.400   .     A
C929   F949    1.357   .     S
C929   N954    1.364   .     A
C930   F950    1.357   .     S
C930   N953    1.364   .     A
C930   C140    1.419   1_556 S
C931   N953    1.375   .     A
C931   C938    1.439   .     S
C931   C137    1.419   1_556 S
C932   N954    1.375   .     A
C932   C939    1.439   .     S
C933   N955    1.158   .     T
C933   C986    1.456   .     S
C934   N956    1.158   .     T
C934   C1031   1.456   1_455 S
C935   C946    1.446   .     S
C935   N957    1.157   .     T
C936   O964    1.294   .     A
C936   O962    1.292   .     A
C937   N958    1.157   .     T
C938   N959    1.158   .     T
C939   N960    1.158   .     T
C940   O967    1.293   .     A
C940   C942    1.437   .     S
C940   O965    1.285   .     A
C941   O968    1.293   .     A
C941   C943    1.437   .     S
C941   O966    1.285   .     A
C942   C1021   1.456   1_455 S
C942   C1031   1.360   1_455 S
C943   C986    1.360   .     S
C943   C978    1.456   .     S
C944   H951    1.085   .     S
C945   H952    1.085   .     S
C945   C1058   1.386   .     S
C946   C1076   1.386   .     S
Cu947  Cu948   2.686   .     S
Cu947  O965    1.978   .     S
Cu947  N953    2.019   .     S
Cu947  O964    1.961   .     S
Cu947  O961    1.966   .     S
Cu947  O968    1.977   .     S
Cu948  O966    1.978   .     S
Cu948  O962    1.966   .     S
Cu948  O963    1.961   .     S
Cu948  O967    1.977   .     S
Cu948  N954    2.019   .     S
C969   O1005   1.292   .     A
C969   C972    1.450   .     S
C969   O1007   1.294   .     A
C970   C972    1.410   .     A
C970   C981    1.446   .     S
C971   C989    1.400   .     A
C971   C990    1.410   .     A
C971   C980    1.450   .     S
C972   C988    1.400   .     A
C973   F993    1.357   .     S
C973   N998    1.364   .     A
C974   F994    1.357   .     S
C974   N997    1.364   .     A
C974   C184    1.419   1_556 S
C975   N997    1.375   .     A
C975   C982    1.439   .     S
C975   C181    1.419   1_556 S
C976   N998    1.375   .     A
C976   C983    1.439   .     S
C977   N999    1.158   .     T
C977   C1030   1.456   .     S
C978   N1000   1.158   .     T
C979   C990    1.446   .     S
C979   N1001   1.157   .     T
C980   O1008   1.294   .     A
C980   O1006   1.292   .     A
C981   N1002   1.157   .     T
C982   N1003   1.158   .     T
C983   N1004   1.158   .     T
C984   O1011   1.293   .     A
C984   C986    1.437   .     S
C984   O1009   1.285   .     A
C985   O1012   1.293   .     A
C985   C987    1.437   .     S
C985   O1010   1.285   .     A
C987   C1030   1.360   .     S
C987   C1022   1.456   .     S
C988   H995    1.085   .     S
C989   H996    1.085   .     S
C989   C1102   1.386   .     S
C990   C1120   1.386   .     S
Cu991  Cu992   2.686   .     S
Cu991  O1009   1.978   .     S
Cu991  N997    2.019   .     S
Cu991  O1008   1.961   .     S
Cu991  O1005   1.966   .     S
Cu991  O1012   1.977   .     S
Cu992  O1010   1.978   .     S
Cu992  O1006   1.966   .     S
Cu992  O1007   1.961   .     S
Cu992  O1011   1.977   .     S
Cu992  N998    2.019   .     S
C1013  O1049   1.292   .     A
C1013  C1016   1.450   .     S
C1013  O1051   1.294   .     A
C1014  C1016   1.410   .     A
C1014  C1025   1.446   .     S
C1015  C1033   1.400   .     A
C1015  C1034   1.410   .     A
C1015  C1024   1.450   .     S
C1016  C1032   1.400   .     A
C1017  F1037   1.357   .     S
C1017  N1042   1.364   .     A
C1018  F1038   1.357   .     S
C1018  N1041   1.364   .     A
C1018  C228    1.419   1_556 S
C1019  N1041   1.375   .     A
C1019  C1026   1.439   .     S
C1019  C225    1.419   1_556 S
C1020  N1042   1.375   .     A
C1020  C1027   1.439   .     S
C1021  N1043   1.158   .     T
C1021  C942    1.456   1_655 S
C1022  N1044   1.158   .     T
C1023  C1034   1.446   .     S
C1023  N1045   1.157   .     T
C1024  O1052   1.294   .     A
C1024  O1050   1.292   .     A
C1025  N1046   1.157   .     T
C1026  N1047   1.158   .     T
C1027  N1048   1.158   .     T
C1028  O1055   1.293   .     A
C1028  C1030   1.437   .     S
C1028  O1053   1.285   .     A
C1029  O1056   1.293   .     A
C1029  C1031   1.437   .     S
C1029  O1054   1.285   .     A
C1031  C942    1.360   1_655 S
C1031  C934    1.456   1_655 S
C1032  H1039   1.085   .     S
C1033  H1040   1.085   .     S
C1033  C1146   1.386   .     S
C1034  C1164   1.386   .     S
Cu1035 Cu1036  2.686   .     S
Cu1035 O1053   1.978   .     S
Cu1035 N1041   2.019   .     S
Cu1035 O1052   1.961   .     S
Cu1035 O1049   1.966   .     S
Cu1035 O1056   1.977   .     S
Cu1036 O1054   1.978   .     S
Cu1036 O1050   1.966   .     S
Cu1036 O1051   1.961   .     S
Cu1036 O1055   1.977   .     S
Cu1036 N1042   2.019   .     S
C1057  O1093   1.292   .     A
C1057  C1060   1.450   .     S
C1057  O1095   1.294   .     A
C1058  C1060   1.410   .     A
C1058  C1069   1.446   .     S
C1059  C1077   1.400   .     A
C1059  C1078   1.410   .     A
C1059  C1068   1.450   .     S
C1060  C1076   1.400   .     A
C1061  F1081   1.357   .     S
C1061  N1086   1.364   .     A
C1062  F1082   1.357   .     S
C1062  N1085   1.364   .     A
C1062  C272    1.419   1_556 S
C1063  N1085   1.375   .     A
C1063  C1070   1.439   .     S
C1063  C269    1.419   1_556 S
C1064  N1086   1.375   .     A
C1064  C1071   1.439   .     S
C1065  N1087   1.158   .     T
C1065  C1118   1.456   .     S
C1066  N1088   1.158   .     T
C1066  C1163   1.456   1_455 S
C1067  C1078   1.446   .     S
C1067  N1089   1.157   .     T
C1068  O1096   1.294   .     A
C1068  O1094   1.292   .     A
C1069  N1090   1.157   .     T
C1070  N1091   1.158   .     T
C1071  N1092   1.158   .     T
C1072  O1099   1.293   .     A
C1072  C1074   1.437   .     S
C1072  O1097   1.285   .     A
C1073  O1100   1.293   .     A
C1073  C1075   1.437   .     S
C1073  O1098   1.285   .     A
C1074  C1153   1.456   1_455 S
C1074  C1163   1.360   1_455 S
C1075  C1118   1.360   .     S
C1075  C1110   1.456   .     S
C1076  H1083   1.085   .     S
C1077  H1084   1.085   .     S
C1077  C794    1.386   1_565 S
C1078  C812    1.386   1_565 S
Cu1079 Cu1080  2.686   .     S
Cu1079 O1097   1.978   .     S
Cu1079 N1085   2.019   .     S
Cu1079 O1096   1.961   .     S
Cu1079 O1093   1.966   .     S
Cu1079 O1100   1.977   .     S
Cu1080 O1098   1.978   .     S
Cu1080 O1094   1.966   .     S
Cu1080 O1095   1.961   .     S
Cu1080 O1099   1.977   .     S
Cu1080 N1086   2.019   .     S
C1101  O1137   1.292   .     A
C1101  C1104   1.450   .     S
C1101  O1139   1.294   .     A
C1102  C1104   1.410   .     A
C1102  C1113   1.446   .     S
C1103  C1121   1.400   .     A
C1103  C1122   1.410   .     A
C1103  C1112   1.450   .     S
C1104  C1120   1.400   .     A
C1105  F1125   1.357   .     S
C1105  N1130   1.364   .     A
C1106  F1126   1.357   .     S
C1106  N1129   1.364   .     A
C1106  C316    1.419   1_556 S
C1107  N1129   1.375   .     A
C1107  C1114   1.439   .     S
C1107  C313    1.419   1_556 S
C1108  N1130   1.375   .     A
C1108  C1115   1.439   .     S
C1109  N1131   1.158   .     T
C1109  C1162   1.456   .     S
C1110  N1132   1.158   .     T
C1111  C1122   1.446   .     S
C1111  N1133   1.157   .     T
C1112  O1140   1.294   .     A
C1112  O1138   1.292   .     A
C1113  N1134   1.157   .     T
C1114  N1135   1.158   .     T
C1115  N1136   1.158   .     T
C1116  O1143   1.293   .     A
C1116  C1118   1.437   .     S
C1116  O1141   1.285   .     A
C1117  O1144   1.293   .     A
C1117  C1119   1.437   .     S
C1117  O1142   1.285   .     A
C1119  C1162   1.360   .     S
C1119  C1154   1.456   .     S
C1120  H1127   1.085   .     S
C1121  H1128   1.085   .     S
C1121  C838    1.386   1_565 S
C1122  C856    1.386   1_565 S
Cu1123 Cu1124  2.686   .     S
Cu1123 O1141   1.978   .     S
Cu1123 N1129   2.019   .     S
Cu1123 O1140   1.961   .     S
Cu1123 O1137   1.966   .     S
Cu1123 O1144   1.977   .     S
Cu1124 O1142   1.978   .     S
Cu1124 O1138   1.966   .     S
Cu1124 O1139   1.961   .     S
Cu1124 O1143   1.977   .     S
Cu1124 N1130   2.019   .     S
C1145  O1181   1.292   .     A
C1145  C1148   1.450   .     S
C1145  O1183   1.294   .     A
C1146  C1148   1.410   .     A
C1146  C1157   1.446   .     S
C1147  C1165   1.400   .     A
C1147  C1166   1.410   .     A
C1147  C1156   1.450   .     S
C1148  C1164   1.400   .     A
C1149  F1169   1.357   .     S
C1149  N1174   1.364   .     A
C1150  F1170   1.357   .     S
C1150  N1173   1.364   .     A
C1150  C360    1.419   1_556 S
C1151  N1173   1.375   .     A
C1151  C1158   1.439   .     S
C1151  C357    1.419   1_556 S
C1152  N1174   1.375   .     A
C1152  C1159   1.439   .     S
C1153  N1175   1.158   .     T
C1153  C1074   1.456   1_655 S
C1154  N1176   1.158   .     T
C1155  C1166   1.446   .     S
C1155  N1177   1.157   .     T
C1156  O1184   1.294   .     A
C1156  O1182   1.292   .     A
C1157  N1178   1.157   .     T
C1158  N1179   1.158   .     T
C1159  N1180   1.158   .     T
C1160  O1187   1.293   .     A
C1160  C1162   1.437   .     S
C1160  O1185   1.285   .     A
C1161  O1188   1.293   .     A
C1161  C1163   1.437   .     S
C1161  O1186   1.285   .     A
C1163  C1074   1.360   1_655 S
C1163  C1066   1.456   1_655 S
C1164  H1171   1.085   .     S
C1165  H1172   1.085   .     S
C1165  C882    1.386   1_565 S
C1166  C900    1.386   1_565 S
Cu1167 Cu1168  2.686   .     S
Cu1167 O1185   1.978   .     S
Cu1167 N1173   2.019   .     S
Cu1167 O1184   1.961   .     S
Cu1167 O1181   1.966   .     S
Cu1167 O1188   1.977   .     S
Cu1168 O1186   1.978   .     S
Cu1168 O1182   1.966   .     S
Cu1168 O1183   1.961   .     S
Cu1168 O1187   1.977   .     S
Cu1168 N1174   2.019   .     S
