data_str_m2_o10_o16_pcu_sym.71
_audit_creation_date              2020-01-03
_audit_creation_method            'Materials Studio'
_symmetry_space_group_name_H-M    'P1'
_symmetry_Int_Tables_number       1
_symmetry_cell_setting            triclinic
loop_
_symmetry_equiv_pos_as_xyz
  x,y,z
_cell_length_a                    22.4229
_cell_length_b                    26.0480
_cell_length_c                    26.5623
_cell_angle_alpha                 93.9287
_cell_angle_beta                  78.0181
_cell_angle_gamma                 103.1099
loop_
_atom_site_label
_atom_site_type_symbol
_atom_site_fract_x
_atom_site_fract_y
_atom_site_fract_z
_atom_site_U_iso_or_equiv
_atom_site_adp_type
_atom_site_occupancy
C1     C     0.18175   0.26668   0.25149   0.00000  Uiso   1.00
C2     C     0.11528   0.16803   0.40416   0.00000  Uiso   1.00
C3     C     0.19023   0.32267   0.25213   0.00000  Uiso   1.00
C4     C     0.13385   0.16660   0.34739   0.00000  Uiso   1.00
C5     C     0.14317   0.01064   0.24760   0.00000  Uiso   1.00
C6     C     0.15160   0.06665   0.24843   0.00000  Uiso   1.00
C7     C     0.20025   0.17436   0.15322   0.00000  Uiso   1.00
C8     C     0.29875   0.22394   0.02495   0.00000  Uiso   1.00
C9     C     0.21915   0.18972   0.09880   0.00000  Uiso   1.00
C10    C     0.05594   0.13940   0.42691   0.00000  Uiso   1.00
C11    C     0.04075   0.13072   0.47959   0.00000  Uiso   1.00
C12    C     0.14305   0.18204   0.48962   0.00000  Uiso   1.00
C13    C     0.08396   0.15116   0.01065   0.00000  Uiso   1.00
C14    C     0.04119   0.29843   0.01345   0.00000  Uiso   1.00
C15    C     0.09213   0.23330   0.12436   0.00000  Uiso   1.00
C16    C     0.15876   0.19146   0.43600   0.00000  Uiso   1.00
C17    C     0.18903   0.19988   0.01990   0.00000  Uiso   1.00
C18    C     0.25175   0.21958   0.49600   0.00000  Uiso   1.00
C19    C     0.26530   0.23378   0.44451   0.00000  Uiso   1.00
C20    C     0.21826   0.22304   0.41593   0.00000  Uiso   1.00
C21    C     0.17453   0.20195   0.07380   0.00000  Uiso   1.00
C22    C     0.28202   0.20194   0.07407   0.00000  Uiso   1.00
Cu23   Cu    0.10710   0.16105   0.24436   0.00000  Uiso   1.00
Cu24   Cu    0.22623   0.17228   0.25565   0.00000  Uiso   1.00
H25    H     0.09784   0.32017   0.24332   0.00000  Uiso   1.00
H26    H     0.03069   0.30829   0.05534   0.00000  Uiso   1.00
H27    H     0.01539   0.31878   0.49252   0.00000  Uiso   1.00
H28    H     0.09186   0.31386   0.49921   0.00000  Uiso   1.00
H29    H     0.09512   0.24580   0.16450   0.00000  Uiso   1.00
H30    H     0.06874   0.19088   0.12354   0.00000  Uiso   1.00
H31    H     0.06294   0.25731   0.11235   0.00000  Uiso   1.00
H32    H     0.02227   0.12123   0.40350   0.00000  Uiso   1.00
H33    H     0.00360   0.20622   0.28979   0.00000  Uiso   1.00
H34    H     0.32976   0.12717   0.21016   0.00000  Uiso   1.00
H35    H     0.31211   0.25294   0.42608   0.00000  Uiso   1.00
H36    H     0.07151   0.14102   0.05077   0.00000  Uiso   1.00
H37    H     0.32891   0.10703   0.49636   0.00000  Uiso   1.00
H38    H     0.23020   0.23865   0.37767   0.00000  Uiso   1.00
H39    H     0.23557   0.01314   0.25641   0.00000  Uiso   1.00
H40    H     0.31727   0.19652   0.09361   0.00000  Uiso   1.00
N41    N     0.31574   0.18074   0.26416   0.00000  Uiso   1.00
N42    N     0.01759   0.15259   0.23584   0.00000  Uiso   1.00
O43    O     0.12797   0.23807   0.24633   0.00000  Uiso   1.00
O44    O     0.15205   0.24620   0.09322   0.00000  Uiso   1.00
O45    O     0.22858   0.24755   0.25586   0.00000  Uiso   1.00
O46    O     0.09181   0.15960   0.31840   0.00000  Uiso   1.00
O47    O     0.19242   0.16908   0.32793   0.00000  Uiso   1.00
O48    O     0.10476   0.08578   0.24414   0.00000  Uiso   1.00
O49    O     0.20536   0.09526   0.25367   0.00000  Uiso   1.00
O50    O     0.14092   0.16425   0.17207   0.00000  Uiso   1.00
O51    O     0.24152   0.17373   0.18160   0.00000  Uiso   1.00
O52    O     0.02751   0.24354   0.00383   0.00000  Uiso   1.00
C53    C     0.51509   0.26668   0.25149   0.00000  Uiso   1.00
C54    C     0.44861   0.16803   0.40416   0.00000  Uiso   1.00
C55    C     0.52356   0.32267   0.25213   0.00000  Uiso   1.00
C56    C     0.46718   0.16660   0.34739   0.00000  Uiso   1.00
C57    C     0.47651   0.01064   0.24760   0.00000  Uiso   1.00
C58    C     0.48494   0.06665   0.24843   0.00000  Uiso   1.00
C59    C     0.53358   0.17436   0.15322   0.00000  Uiso   1.00
C60    C     0.63209   0.22394   0.02495   0.00000  Uiso   1.00
C61    C     0.55248   0.18972   0.09880   0.00000  Uiso   1.00
C62    C     0.38928   0.13940   0.42691   0.00000  Uiso   1.00
C63    C     0.37409   0.13072   0.47959   0.00000  Uiso   1.00
C64    C     0.47638   0.18204   0.48962   0.00000  Uiso   1.00
C65    C     0.41730   0.15116   0.01065   0.00000  Uiso   1.00
C66    C     0.37453   0.29843   0.01345   0.00000  Uiso   1.00
C67    C     0.42547   0.23330   0.12436   0.00000  Uiso   1.00
C68    C     0.49209   0.19146   0.43600   0.00000  Uiso   1.00
C69    C     0.52237   0.19988   0.01990   0.00000  Uiso   1.00
C70    C     0.58509   0.21958   0.49600   0.00000  Uiso   1.00
C71    C     0.59863   0.23378   0.44451   0.00000  Uiso   1.00
C72    C     0.55160   0.22304   0.41593   0.00000  Uiso   1.00
C73    C     0.50786   0.20195   0.07380   0.00000  Uiso   1.00
C74    C     0.61536   0.20194   0.07407   0.00000  Uiso   1.00
Cu75   Cu    0.44043   0.16105   0.24436   0.00000  Uiso   1.00
Cu76   Cu    0.55957   0.17228   0.25565   0.00000  Uiso   1.00
H77    H     0.43117   0.32017   0.24332   0.00000  Uiso   1.00
H78    H     0.36402   0.30829   0.05534   0.00000  Uiso   1.00
H79    H     0.34872   0.31878   0.49252   0.00000  Uiso   1.00
H80    H     0.42520   0.31386   0.49921   0.00000  Uiso   1.00
H81    H     0.42845   0.24580   0.16450   0.00000  Uiso   1.00
H82    H     0.40207   0.19088   0.12354   0.00000  Uiso   1.00
H83    H     0.39627   0.25731   0.11235   0.00000  Uiso   1.00
H84    H     0.35560   0.12123   0.40350   0.00000  Uiso   1.00
H85    H     0.33693   0.20622   0.28979   0.00000  Uiso   1.00
H86    H     0.66309   0.12717   0.21016   0.00000  Uiso   1.00
H87    H     0.64544   0.25294   0.42608   0.00000  Uiso   1.00
H88    H     0.40484   0.14102   0.05077   0.00000  Uiso   1.00
H89    H     0.66225   0.10703   0.49636   0.00000  Uiso   1.00
H90    H     0.56353   0.23865   0.37767   0.00000  Uiso   1.00
H91    H     0.56890   0.01314   0.25641   0.00000  Uiso   1.00
H92    H     0.65060   0.19652   0.09361   0.00000  Uiso   1.00
N93    N     0.64908   0.18074   0.26416   0.00000  Uiso   1.00
N94    N     0.35092   0.15259   0.23584   0.00000  Uiso   1.00
O95    O     0.46131   0.23807   0.24633   0.00000  Uiso   1.00
O96    O     0.48539   0.24620   0.09322   0.00000  Uiso   1.00
O97    O     0.56191   0.24755   0.25586   0.00000  Uiso   1.00
O98    O     0.42515   0.15960   0.31840   0.00000  Uiso   1.00
O99    O     0.52575   0.16908   0.32793   0.00000  Uiso   1.00
O100   O     0.43809   0.08578   0.24414   0.00000  Uiso   1.00
O101   O     0.53869   0.09526   0.25367   0.00000  Uiso   1.00
O102   O     0.47425   0.16425   0.17207   0.00000  Uiso   1.00
O103   O     0.57485   0.17373   0.18160   0.00000  Uiso   1.00
O104   O     0.36084   0.24354   0.00383   0.00000  Uiso   1.00
C105   C     0.84842   0.26668   0.25149   0.00000  Uiso   1.00
C106   C     0.78194   0.16803   0.40416   0.00000  Uiso   1.00
C107   C     0.85690   0.32267   0.25213   0.00000  Uiso   1.00
C108   C     0.80051   0.16660   0.34739   0.00000  Uiso   1.00
C109   C     0.80984   0.01064   0.24760   0.00000  Uiso   1.00
C110   C     0.81827   0.06665   0.24843   0.00000  Uiso   1.00
C111   C     0.86692   0.17436   0.15322   0.00000  Uiso   1.00
C112   C     0.96542   0.22394   0.02495   0.00000  Uiso   1.00
C113   C     0.88581   0.18972   0.09880   0.00000  Uiso   1.00
C114   C     0.72261   0.13940   0.42691   0.00000  Uiso   1.00
C115   C     0.70742   0.13072   0.47959   0.00000  Uiso   1.00
C116   C     0.80971   0.18204   0.48962   0.00000  Uiso   1.00
C117   C     0.75063   0.15116   0.01065   0.00000  Uiso   1.00
C118   C     0.70786   0.29843   0.01345   0.00000  Uiso   1.00
C119   C     0.75880   0.23330   0.12436   0.00000  Uiso   1.00
C120   C     0.82543   0.19146   0.43600   0.00000  Uiso   1.00
C121   C     0.85570   0.19988   0.01990   0.00000  Uiso   1.00
C122   C     0.91842   0.21958   0.49600   0.00000  Uiso   1.00
C123   C     0.93197   0.23378   0.44451   0.00000  Uiso   1.00
C124   C     0.88493   0.22304   0.41593   0.00000  Uiso   1.00
C125   C     0.84119   0.20195   0.07380   0.00000  Uiso   1.00
C126   C     0.94869   0.20194   0.07407   0.00000  Uiso   1.00
Cu127  Cu    0.77377   0.16105   0.24436   0.00000  Uiso   1.00
Cu128  Cu    0.89290   0.17228   0.25565   0.00000  Uiso   1.00
H129   H     0.76451   0.32017   0.24332   0.00000  Uiso   1.00
H130   H     0.69736   0.30829   0.05534   0.00000  Uiso   1.00
H131   H     0.68206   0.31878   0.49252   0.00000  Uiso   1.00
H132   H     0.75853   0.31386   0.49921   0.00000  Uiso   1.00
H133   H     0.76178   0.24580   0.16450   0.00000  Uiso   1.00
H134   H     0.73540   0.19088   0.12354   0.00000  Uiso   1.00
H135   H     0.72960   0.25731   0.11235   0.00000  Uiso   1.00
H136   H     0.68893   0.12123   0.40350   0.00000  Uiso   1.00
H137   H     0.67026   0.20622   0.28979   0.00000  Uiso   1.00
H138   H     0.99642   0.12717   0.21016   0.00000  Uiso   1.00
H139   H     0.97878   0.25294   0.42608   0.00000  Uiso   1.00
H140   H     0.73817   0.14102   0.05077   0.00000  Uiso   1.00
H141   H     0.99558   0.10703   0.49636   0.00000  Uiso   1.00
H142   H     0.89686   0.23865   0.37767   0.00000  Uiso   1.00
H143   H     0.90223   0.01314   0.25641   0.00000  Uiso   1.00
H144   H     0.98394   0.19652   0.09361   0.00000  Uiso   1.00
N145   N     0.98241   0.18074   0.26416   0.00000  Uiso   1.00
N146   N     0.68426   0.15259   0.23584   0.00000  Uiso   1.00
O147   O     0.79464   0.23807   0.24633   0.00000  Uiso   1.00
O148   O     0.81872   0.24620   0.09322   0.00000  Uiso   1.00
O149   O     0.89524   0.24755   0.25586   0.00000  Uiso   1.00
O150   O     0.75848   0.15960   0.31840   0.00000  Uiso   1.00
O151   O     0.85908   0.16908   0.32793   0.00000  Uiso   1.00
O152   O     0.77142   0.08578   0.24414   0.00000  Uiso   1.00
O153   O     0.87203   0.09526   0.25367   0.00000  Uiso   1.00
O154   O     0.80758   0.16425   0.17207   0.00000  Uiso   1.00
O155   O     0.90819   0.17373   0.18160   0.00000  Uiso   1.00
O156   O     0.69417   0.24354   0.00383   0.00000  Uiso   1.00
C157   C     0.18175   0.60002   0.25149   0.00000  Uiso   1.00
C158   C     0.11528   0.50136   0.40416   0.00000  Uiso   1.00
C159   C     0.19023   0.65601   0.25213   0.00000  Uiso   1.00
C160   C     0.13385   0.49993   0.34739   0.00000  Uiso   1.00
C161   C     0.14317   0.34398   0.24760   0.00000  Uiso   1.00
C162   C     0.15160   0.39998   0.24843   0.00000  Uiso   1.00
C163   C     0.20025   0.50770   0.15322   0.00000  Uiso   1.00
C164   C     0.29875   0.55728   0.02495   0.00000  Uiso   1.00
C165   C     0.21915   0.52305   0.09880   0.00000  Uiso   1.00
C166   C     0.05594   0.47273   0.42691   0.00000  Uiso   1.00
C167   C     0.04075   0.46406   0.47959   0.00000  Uiso   1.00
C168   C     0.14305   0.51537   0.48962   0.00000  Uiso   1.00
C169   C     0.08396   0.48449   0.01065   0.00000  Uiso   1.00
C170   C     0.04119   0.63177   0.01345   0.00000  Uiso   1.00
C171   C     0.09213   0.56663   0.12436   0.00000  Uiso   1.00
C172   C     0.15876   0.52479   0.43600   0.00000  Uiso   1.00
C173   C     0.18903   0.53321   0.01990   0.00000  Uiso   1.00
C174   C     0.25175   0.55291   0.49600   0.00000  Uiso   1.00
C175   C     0.26530   0.56711   0.44451   0.00000  Uiso   1.00
C176   C     0.21826   0.55638   0.41593   0.00000  Uiso   1.00
C177   C     0.17453   0.53528   0.07380   0.00000  Uiso   1.00
C178   C     0.28202   0.53527   0.07407   0.00000  Uiso   1.00
Cu179  Cu    0.10710   0.49439   0.24436   0.00000  Uiso   1.00
Cu180  Cu    0.22623   0.50561   0.25565   0.00000  Uiso   1.00
H181   H     0.09784   0.65351   0.24332   0.00000  Uiso   1.00
H182   H     0.03069   0.64162   0.05534   0.00000  Uiso   1.00
H183   H     0.01539   0.65212   0.49252   0.00000  Uiso   1.00
H184   H     0.09186   0.64719   0.49921   0.00000  Uiso   1.00
H185   H     0.09512   0.57913   0.16450   0.00000  Uiso   1.00
H186   H     0.06874   0.52421   0.12354   0.00000  Uiso   1.00
H187   H     0.06294   0.59065   0.11235   0.00000  Uiso   1.00
H188   H     0.02227   0.45456   0.40350   0.00000  Uiso   1.00
H189   H     0.00360   0.53956   0.28979   0.00000  Uiso   1.00
H190   H     0.32976   0.46050   0.21016   0.00000  Uiso   1.00
H191   H     0.31211   0.58628   0.42608   0.00000  Uiso   1.00
H192   H     0.07151   0.47435   0.05077   0.00000  Uiso   1.00
H193   H     0.32891   0.44036   0.49636   0.00000  Uiso   1.00
H194   H     0.23020   0.57199   0.37767   0.00000  Uiso   1.00
H195   H     0.23557   0.34648   0.25641   0.00000  Uiso   1.00
H196   H     0.31727   0.52985   0.09361   0.00000  Uiso   1.00
N197   N     0.31574   0.51407   0.26416   0.00000  Uiso   1.00
N198   N     0.01759   0.48593   0.23584   0.00000  Uiso   1.00
O199   O     0.12797   0.57141   0.24633   0.00000  Uiso   1.00
O200   O     0.15205   0.57954   0.09322   0.00000  Uiso   1.00
O201   O     0.22858   0.58089   0.25586   0.00000  Uiso   1.00
O202   O     0.09181   0.49293   0.31840   0.00000  Uiso   1.00
O203   O     0.19242   0.50241   0.32793   0.00000  Uiso   1.00
O204   O     0.10476   0.41911   0.24414   0.00000  Uiso   1.00
O205   O     0.20536   0.42859   0.25367   0.00000  Uiso   1.00
O206   O     0.14092   0.49759   0.17207   0.00000  Uiso   1.00
O207   O     0.24152   0.50707   0.18160   0.00000  Uiso   1.00
O208   O     0.02751   0.57688   0.00383   0.00000  Uiso   1.00
C209   C     0.51509   0.60002   0.25149   0.00000  Uiso   1.00
C210   C     0.44861   0.50136   0.40416   0.00000  Uiso   1.00
C211   C     0.52356   0.65601   0.25213   0.00000  Uiso   1.00
C212   C     0.46718   0.49993   0.34739   0.00000  Uiso   1.00
C213   C     0.47651   0.34398   0.24760   0.00000  Uiso   1.00
C214   C     0.48494   0.39998   0.24843   0.00000  Uiso   1.00
C215   C     0.53358   0.50770   0.15322   0.00000  Uiso   1.00
C216   C     0.63209   0.55728   0.02495   0.00000  Uiso   1.00
C217   C     0.55248   0.52305   0.09880   0.00000  Uiso   1.00
C218   C     0.38928   0.47273   0.42691   0.00000  Uiso   1.00
C219   C     0.37409   0.46406   0.47959   0.00000  Uiso   1.00
C220   C     0.47638   0.51537   0.48962   0.00000  Uiso   1.00
C221   C     0.41730   0.48449   0.01065   0.00000  Uiso   1.00
C222   C     0.37453   0.63177   0.01345   0.00000  Uiso   1.00
C223   C     0.42547   0.56663   0.12436   0.00000  Uiso   1.00
C224   C     0.49209   0.52479   0.43600   0.00000  Uiso   1.00
C225   C     0.52237   0.53321   0.01990   0.00000  Uiso   1.00
C226   C     0.58509   0.55291   0.49600   0.00000  Uiso   1.00
C227   C     0.59863   0.56711   0.44451   0.00000  Uiso   1.00
C228   C     0.55160   0.55638   0.41593   0.00000  Uiso   1.00
C229   C     0.50786   0.53528   0.07380   0.00000  Uiso   1.00
C230   C     0.61536   0.53527   0.07407   0.00000  Uiso   1.00
Cu231  Cu    0.44043   0.49439   0.24436   0.00000  Uiso   1.00
Cu232  Cu    0.55957   0.50561   0.25565   0.00000  Uiso   1.00
H233   H     0.43117   0.65351   0.24332   0.00000  Uiso   1.00
H234   H     0.36402   0.64162   0.05534   0.00000  Uiso   1.00
H235   H     0.34872   0.65212   0.49252   0.00000  Uiso   1.00
H236   H     0.42520   0.64719   0.49921   0.00000  Uiso   1.00
H237   H     0.42845   0.57913   0.16450   0.00000  Uiso   1.00
H238   H     0.40207   0.52421   0.12354   0.00000  Uiso   1.00
H239   H     0.39627   0.59065   0.11235   0.00000  Uiso   1.00
H240   H     0.35560   0.45456   0.40350   0.00000  Uiso   1.00
H241   H     0.33693   0.53956   0.28979   0.00000  Uiso   1.00
H242   H     0.66309   0.46050   0.21016   0.00000  Uiso   1.00
H243   H     0.64544   0.58628   0.42608   0.00000  Uiso   1.00
H244   H     0.40484   0.47435   0.05077   0.00000  Uiso   1.00
H245   H     0.66225   0.44036   0.49636   0.00000  Uiso   1.00
H246   H     0.56353   0.57199   0.37767   0.00000  Uiso   1.00
H247   H     0.56890   0.34648   0.25641   0.00000  Uiso   1.00
H248   H     0.65060   0.52985   0.09361   0.00000  Uiso   1.00
N249   N     0.64908   0.51407   0.26416   0.00000  Uiso   1.00
N250   N     0.35092   0.48593   0.23584   0.00000  Uiso   1.00
O251   O     0.46131   0.57141   0.24633   0.00000  Uiso   1.00
O252   O     0.48539   0.57954   0.09322   0.00000  Uiso   1.00
O253   O     0.56191   0.58089   0.25586   0.00000  Uiso   1.00
O254   O     0.42515   0.49293   0.31840   0.00000  Uiso   1.00
O255   O     0.52575   0.50241   0.32793   0.00000  Uiso   1.00
O256   O     0.43809   0.41911   0.24414   0.00000  Uiso   1.00
O257   O     0.53869   0.42859   0.25367   0.00000  Uiso   1.00
O258   O     0.47425   0.49759   0.17207   0.00000  Uiso   1.00
O259   O     0.57485   0.50707   0.18160   0.00000  Uiso   1.00
O260   O     0.36084   0.57688   0.00383   0.00000  Uiso   1.00
C261   C     0.84842   0.60002   0.25149   0.00000  Uiso   1.00
C262   C     0.78194   0.50136   0.40416   0.00000  Uiso   1.00
C263   C     0.85690   0.65601   0.25213   0.00000  Uiso   1.00
C264   C     0.80051   0.49993   0.34739   0.00000  Uiso   1.00
C265   C     0.80984   0.34398   0.24760   0.00000  Uiso   1.00
C266   C     0.81827   0.39998   0.24843   0.00000  Uiso   1.00
C267   C     0.86692   0.50770   0.15322   0.00000  Uiso   1.00
C268   C     0.96542   0.55728   0.02495   0.00000  Uiso   1.00
C269   C     0.88581   0.52305   0.09880   0.00000  Uiso   1.00
C270   C     0.72261   0.47273   0.42691   0.00000  Uiso   1.00
C271   C     0.70742   0.46406   0.47959   0.00000  Uiso   1.00
C272   C     0.80971   0.51537   0.48962   0.00000  Uiso   1.00
C273   C     0.75063   0.48449   0.01065   0.00000  Uiso   1.00
C274   C     0.70786   0.63177   0.01345   0.00000  Uiso   1.00
C275   C     0.75880   0.56663   0.12436   0.00000  Uiso   1.00
C276   C     0.82543   0.52479   0.43600   0.00000  Uiso   1.00
C277   C     0.85570   0.53321   0.01990   0.00000  Uiso   1.00
C278   C     0.91842   0.55291   0.49600   0.00000  Uiso   1.00
C279   C     0.93197   0.56711   0.44451   0.00000  Uiso   1.00
C280   C     0.88493   0.55638   0.41593   0.00000  Uiso   1.00
C281   C     0.84119   0.53528   0.07380   0.00000  Uiso   1.00
C282   C     0.94869   0.53527   0.07407   0.00000  Uiso   1.00
Cu283  Cu    0.77377   0.49439   0.24436   0.00000  Uiso   1.00
Cu284  Cu    0.89290   0.50561   0.25565   0.00000  Uiso   1.00
H285   H     0.76451   0.65351   0.24332   0.00000  Uiso   1.00
H286   H     0.69736   0.64162   0.05534   0.00000  Uiso   1.00
H287   H     0.68206   0.65212   0.49252   0.00000  Uiso   1.00
H288   H     0.75853   0.64719   0.49921   0.00000  Uiso   1.00
H289   H     0.76178   0.57913   0.16450   0.00000  Uiso   1.00
H290   H     0.73540   0.52421   0.12354   0.00000  Uiso   1.00
H291   H     0.72960   0.59065   0.11235   0.00000  Uiso   1.00
H292   H     0.68893   0.45456   0.40350   0.00000  Uiso   1.00
H293   H     0.67026   0.53956   0.28979   0.00000  Uiso   1.00
H294   H     0.99642   0.46050   0.21016   0.00000  Uiso   1.00
H295   H     0.97878   0.58628   0.42608   0.00000  Uiso   1.00
H296   H     0.73817   0.47435   0.05077   0.00000  Uiso   1.00
H297   H     0.99558   0.44036   0.49636   0.00000  Uiso   1.00
H298   H     0.89686   0.57199   0.37767   0.00000  Uiso   1.00
H299   H     0.90223   0.34648   0.25641   0.00000  Uiso   1.00
H300   H     0.98394   0.52985   0.09361   0.00000  Uiso   1.00
N301   N     0.98241   0.51407   0.26416   0.00000  Uiso   1.00
N302   N     0.68426   0.48593   0.23584   0.00000  Uiso   1.00
O303   O     0.79464   0.57141   0.24633   0.00000  Uiso   1.00
O304   O     0.81872   0.57954   0.09322   0.00000  Uiso   1.00
O305   O     0.89524   0.58089   0.25586   0.00000  Uiso   1.00
O306   O     0.75848   0.49293   0.31840   0.00000  Uiso   1.00
O307   O     0.85908   0.50241   0.32793   0.00000  Uiso   1.00
O308   O     0.77142   0.41911   0.24414   0.00000  Uiso   1.00
O309   O     0.87203   0.42859   0.25367   0.00000  Uiso   1.00
O310   O     0.80758   0.49759   0.17207   0.00000  Uiso   1.00
O311   O     0.90819   0.50707   0.18160   0.00000  Uiso   1.00
O312   O     0.69417   0.57688   0.00383   0.00000  Uiso   1.00
C313   C     0.18175   0.93335   0.25149   0.00000  Uiso   1.00
C314   C     0.11528   0.83470   0.40416   0.00000  Uiso   1.00
C315   C     0.19023   0.98934   0.25213   0.00000  Uiso   1.00
C316   C     0.13385   0.83327   0.34739   0.00000  Uiso   1.00
C317   C     0.14317   0.67731   0.24760   0.00000  Uiso   1.00
C318   C     0.15160   0.73332   0.24843   0.00000  Uiso   1.00
C319   C     0.20025   0.84103   0.15322   0.00000  Uiso   1.00
C320   C     0.29875   0.89061   0.02495   0.00000  Uiso   1.00
C321   C     0.21915   0.85638   0.09880   0.00000  Uiso   1.00
C322   C     0.05594   0.80607   0.42691   0.00000  Uiso   1.00
C323   C     0.04075   0.79739   0.47959   0.00000  Uiso   1.00
C324   C     0.14305   0.84870   0.48962   0.00000  Uiso   1.00
C325   C     0.08396   0.81783   0.01065   0.00000  Uiso   1.00
C326   C     0.04119   0.96510   0.01345   0.00000  Uiso   1.00
C327   C     0.09213   0.89996   0.12436   0.00000  Uiso   1.00
C328   C     0.15876   0.85813   0.43600   0.00000  Uiso   1.00
C329   C     0.18903   0.86655   0.01990   0.00000  Uiso   1.00
C330   C     0.25175   0.88624   0.49600   0.00000  Uiso   1.00
C331   C     0.26530   0.90045   0.44451   0.00000  Uiso   1.00
C332   C     0.21826   0.88971   0.41593   0.00000  Uiso   1.00
C333   C     0.17453   0.86861   0.07380   0.00000  Uiso   1.00
C334   C     0.28202   0.86861   0.07407   0.00000  Uiso   1.00
Cu335  Cu    0.10710   0.82772   0.24436   0.00000  Uiso   1.00
Cu336  Cu    0.22623   0.83895   0.25565   0.00000  Uiso   1.00
H337   H     0.09784   0.98684   0.24332   0.00000  Uiso   1.00
H338   H     0.03069   0.97495   0.05534   0.00000  Uiso   1.00
H339   H     0.01539   0.98545   0.49252   0.00000  Uiso   1.00
H340   H     0.09186   0.98053   0.49921   0.00000  Uiso   1.00
H341   H     0.09512   0.91247   0.16450   0.00000  Uiso   1.00
H342   H     0.06874   0.85755   0.12354   0.00000  Uiso   1.00
H343   H     0.06294   0.92398   0.11235   0.00000  Uiso   1.00
H344   H     0.02227   0.78790   0.40350   0.00000  Uiso   1.00
H345   H     0.00360   0.87289   0.28979   0.00000  Uiso   1.00
H346   H     0.32976   0.79383   0.21016   0.00000  Uiso   1.00
H347   H     0.31211   0.91961   0.42608   0.00000  Uiso   1.00
H348   H     0.07151   0.80768   0.05077   0.00000  Uiso   1.00
H349   H     0.32891   0.77370   0.49636   0.00000  Uiso   1.00
H350   H     0.23020   0.90532   0.37767   0.00000  Uiso   1.00
H351   H     0.23557   0.67981   0.25641   0.00000  Uiso   1.00
H352   H     0.31727   0.86318   0.09361   0.00000  Uiso   1.00
N353   N     0.31574   0.84741   0.26416   0.00000  Uiso   1.00
N354   N     0.01759   0.81926   0.23584   0.00000  Uiso   1.00
O355   O     0.12797   0.90474   0.24633   0.00000  Uiso   1.00
O356   O     0.15205   0.91287   0.09322   0.00000  Uiso   1.00
O357   O     0.22858   0.91422   0.25586   0.00000  Uiso   1.00
O358   O     0.09181   0.82627   0.31840   0.00000  Uiso   1.00
O359   O     0.19242   0.83575   0.32793   0.00000  Uiso   1.00
O360   O     0.10476   0.75245   0.24414   0.00000  Uiso   1.00
O361   O     0.20536   0.76193   0.25367   0.00000  Uiso   1.00
O362   O     0.14092   0.83092   0.17207   0.00000  Uiso   1.00
O363   O     0.24152   0.84040   0.18160   0.00000  Uiso   1.00
O364   O     0.02751   0.91021   0.00383   0.00000  Uiso   1.00
C365   C     0.51509   0.93335   0.25149   0.00000  Uiso   1.00
C366   C     0.44861   0.83470   0.40416   0.00000  Uiso   1.00
C367   C     0.52356   0.98934   0.25213   0.00000  Uiso   1.00
C368   C     0.46718   0.83327   0.34739   0.00000  Uiso   1.00
C369   C     0.47651   0.67731   0.24760   0.00000  Uiso   1.00
C370   C     0.48494   0.73332   0.24843   0.00000  Uiso   1.00
C371   C     0.53358   0.84103   0.15322   0.00000  Uiso   1.00
C372   C     0.63209   0.89061   0.02495   0.00000  Uiso   1.00
C373   C     0.55248   0.85638   0.09880   0.00000  Uiso   1.00
C374   C     0.38928   0.80607   0.42691   0.00000  Uiso   1.00
C375   C     0.37409   0.79739   0.47959   0.00000  Uiso   1.00
C376   C     0.47638   0.84870   0.48962   0.00000  Uiso   1.00
C377   C     0.41730   0.81783   0.01065   0.00000  Uiso   1.00
C378   C     0.37453   0.96510   0.01345   0.00000  Uiso   1.00
C379   C     0.42547   0.89996   0.12436   0.00000  Uiso   1.00
C380   C     0.49209   0.85813   0.43600   0.00000  Uiso   1.00
C381   C     0.52237   0.86655   0.01990   0.00000  Uiso   1.00
C382   C     0.58509   0.88624   0.49600   0.00000  Uiso   1.00
C383   C     0.59863   0.90045   0.44451   0.00000  Uiso   1.00
C384   C     0.55160   0.88971   0.41593   0.00000  Uiso   1.00
C385   C     0.50786   0.86861   0.07380   0.00000  Uiso   1.00
C386   C     0.61536   0.86861   0.07407   0.00000  Uiso   1.00
Cu387  Cu    0.44043   0.82772   0.24436   0.00000  Uiso   1.00
Cu388  Cu    0.55957   0.83895   0.25565   0.00000  Uiso   1.00
H389   H     0.43117   0.98684   0.24332   0.00000  Uiso   1.00
H390   H     0.36402   0.97495   0.05534   0.00000  Uiso   1.00
H391   H     0.34872   0.98545   0.49252   0.00000  Uiso   1.00
H392   H     0.42520   0.98053   0.49921   0.00000  Uiso   1.00
H393   H     0.42845   0.91247   0.16450   0.00000  Uiso   1.00
H394   H     0.40207   0.85755   0.12354   0.00000  Uiso   1.00
H395   H     0.39627   0.92398   0.11235   0.00000  Uiso   1.00
H396   H     0.35560   0.78790   0.40350   0.00000  Uiso   1.00
H397   H     0.33693   0.87289   0.28979   0.00000  Uiso   1.00
H398   H     0.66309   0.79383   0.21016   0.00000  Uiso   1.00
H399   H     0.64544   0.91961   0.42608   0.00000  Uiso   1.00
H400   H     0.40484   0.80768   0.05077   0.00000  Uiso   1.00
H401   H     0.66225   0.77370   0.49636   0.00000  Uiso   1.00
H402   H     0.56353   0.90532   0.37767   0.00000  Uiso   1.00
H403   H     0.56890   0.67981   0.25641   0.00000  Uiso   1.00
H404   H     0.65060   0.86318   0.09361   0.00000  Uiso   1.00
N405   N     0.64908   0.84741   0.26416   0.00000  Uiso   1.00
N406   N     0.35092   0.81926   0.23584   0.00000  Uiso   1.00
O407   O     0.46131   0.90474   0.24633   0.00000  Uiso   1.00
O408   O     0.48539   0.91287   0.09322   0.00000  Uiso   1.00
O409   O     0.56191   0.91422   0.25586   0.00000  Uiso   1.00
O410   O     0.42515   0.82627   0.31840   0.00000  Uiso   1.00
O411   O     0.52575   0.83575   0.32793   0.00000  Uiso   1.00
O412   O     0.43809   0.75245   0.24414   0.00000  Uiso   1.00
O413   O     0.53869   0.76193   0.25367   0.00000  Uiso   1.00
O414   O     0.47425   0.83092   0.17207   0.00000  Uiso   1.00
O415   O     0.57485   0.84040   0.18160   0.00000  Uiso   1.00
O416   O     0.36084   0.91021   0.00383   0.00000  Uiso   1.00
C417   C     0.84842   0.93335   0.25149   0.00000  Uiso   1.00
C418   C     0.78194   0.83470   0.40416   0.00000  Uiso   1.00
C419   C     0.85690   0.98934   0.25213   0.00000  Uiso   1.00
C420   C     0.80051   0.83327   0.34739   0.00000  Uiso   1.00
C421   C     0.80984   0.67731   0.24760   0.00000  Uiso   1.00
C422   C     0.81827   0.73332   0.24843   0.00000  Uiso   1.00
C423   C     0.86692   0.84103   0.15322   0.00000  Uiso   1.00
C424   C     0.96542   0.89061   0.02495   0.00000  Uiso   1.00
C425   C     0.88581   0.85638   0.09880   0.00000  Uiso   1.00
C426   C     0.72261   0.80607   0.42691   0.00000  Uiso   1.00
C427   C     0.70742   0.79739   0.47959   0.00000  Uiso   1.00
C428   C     0.80971   0.84870   0.48962   0.00000  Uiso   1.00
C429   C     0.75063   0.81783   0.01065   0.00000  Uiso   1.00
C430   C     0.70786   0.96510   0.01345   0.00000  Uiso   1.00
C431   C     0.75880   0.89996   0.12436   0.00000  Uiso   1.00
C432   C     0.82543   0.85813   0.43600   0.00000  Uiso   1.00
C433   C     0.85570   0.86655   0.01990   0.00000  Uiso   1.00
C434   C     0.91842   0.88624   0.49600   0.00000  Uiso   1.00
C435   C     0.93197   0.90045   0.44451   0.00000  Uiso   1.00
C436   C     0.88493   0.88971   0.41593   0.00000  Uiso   1.00
C437   C     0.84119   0.86861   0.07380   0.00000  Uiso   1.00
C438   C     0.94869   0.86861   0.07407   0.00000  Uiso   1.00
Cu439  Cu    0.77377   0.82772   0.24436   0.00000  Uiso   1.00
Cu440  Cu    0.89290   0.83895   0.25565   0.00000  Uiso   1.00
H441   H     0.76451   0.98684   0.24332   0.00000  Uiso   1.00
H442   H     0.69736   0.97495   0.05534   0.00000  Uiso   1.00
H443   H     0.68206   0.98545   0.49252   0.00000  Uiso   1.00
H444   H     0.75853   0.98053   0.49921   0.00000  Uiso   1.00
H445   H     0.76178   0.91247   0.16450   0.00000  Uiso   1.00
H446   H     0.73540   0.85755   0.12354   0.00000  Uiso   1.00
H447   H     0.72960   0.92398   0.11235   0.00000  Uiso   1.00
H448   H     0.68893   0.78790   0.40350   0.00000  Uiso   1.00
H449   H     0.67026   0.87289   0.28979   0.00000  Uiso   1.00
H450   H     0.99642   0.79383   0.21016   0.00000  Uiso   1.00
H451   H     0.97878   0.91961   0.42608   0.00000  Uiso   1.00
H452   H     0.73817   0.80768   0.05077   0.00000  Uiso   1.00
H453   H     0.99558   0.77370   0.49636   0.00000  Uiso   1.00
H454   H     0.89686   0.90532   0.37767   0.00000  Uiso   1.00
H455   H     0.90223   0.67981   0.25641   0.00000  Uiso   1.00
H456   H     0.98394   0.86318   0.09361   0.00000  Uiso   1.00
N457   N     0.98241   0.84741   0.26416   0.00000  Uiso   1.00
N458   N     0.68426   0.81926   0.23584   0.00000  Uiso   1.00
O459   O     0.79464   0.90474   0.24633   0.00000  Uiso   1.00
O460   O     0.81872   0.91287   0.09322   0.00000  Uiso   1.00
O461   O     0.89524   0.91422   0.25586   0.00000  Uiso   1.00
O462   O     0.75848   0.82627   0.31840   0.00000  Uiso   1.00
O463   O     0.85908   0.83575   0.32793   0.00000  Uiso   1.00
O464   O     0.77142   0.75245   0.24414   0.00000  Uiso   1.00
O465   O     0.87203   0.76193   0.25367   0.00000  Uiso   1.00
O466   O     0.80758   0.83092   0.17207   0.00000  Uiso   1.00
O467   O     0.90819   0.84040   0.18160   0.00000  Uiso   1.00
O468   O     0.69417   0.91021   0.00383   0.00000  Uiso   1.00
C469   C     0.18175   0.26668   0.75149   0.00000  Uiso   1.00
C470   C     0.11528   0.16803   0.90416   0.00000  Uiso   1.00
C471   C     0.19023   0.32267   0.75213   0.00000  Uiso   1.00
C472   C     0.13385   0.16660   0.84739   0.00000  Uiso   1.00
C473   C     0.14317   0.01064   0.74760   0.00000  Uiso   1.00
C474   C     0.15160   0.06665   0.74843   0.00000  Uiso   1.00
C475   C     0.20025   0.17436   0.65322   0.00000  Uiso   1.00
C476   C     0.29875   0.22394   0.52495   0.00000  Uiso   1.00
C477   C     0.21915   0.18972   0.59880   0.00000  Uiso   1.00
C478   C     0.05594   0.13940   0.92691   0.00000  Uiso   1.00
C479   C     0.04075   0.13072   0.97959   0.00000  Uiso   1.00
C480   C     0.14305   0.18204   0.98962   0.00000  Uiso   1.00
C481   C     0.08396   0.15116   0.51065   0.00000  Uiso   1.00
C482   C     0.04119   0.29843   0.51345   0.00000  Uiso   1.00
C483   C     0.09213   0.23330   0.62436   0.00000  Uiso   1.00
C484   C     0.15876   0.19146   0.93600   0.00000  Uiso   1.00
C485   C     0.18903   0.19988   0.51990   0.00000  Uiso   1.00
C486   C     0.25175   0.21958   0.99600   0.00000  Uiso   1.00
C487   C     0.26530   0.23378   0.94451   0.00000  Uiso   1.00
C488   C     0.21826   0.22304   0.91593   0.00000  Uiso   1.00
C489   C     0.17453   0.20195   0.57380   0.00000  Uiso   1.00
C490   C     0.28202   0.20194   0.57407   0.00000  Uiso   1.00
Cu491  Cu    0.10710   0.16105   0.74436   0.00000  Uiso   1.00
Cu492  Cu    0.22623   0.17228   0.75565   0.00000  Uiso   1.00
H493   H     0.09784   0.32017   0.74332   0.00000  Uiso   1.00
H494   H     0.03069   0.30829   0.55534   0.00000  Uiso   1.00
H495   H     0.01539   0.31878   0.99252   0.00000  Uiso   1.00
H496   H     0.09186   0.31386   0.99921   0.00000  Uiso   1.00
H497   H     0.09512   0.24580   0.66450   0.00000  Uiso   1.00
H498   H     0.06874   0.19088   0.62354   0.00000  Uiso   1.00
H499   H     0.06294   0.25731   0.61235   0.00000  Uiso   1.00
H500   H     0.02227   0.12123   0.90350   0.00000  Uiso   1.00
H501   H     0.00360   0.20622   0.78979   0.00000  Uiso   1.00
H502   H     0.32976   0.12717   0.71016   0.00000  Uiso   1.00
H503   H     0.31211   0.25294   0.92608   0.00000  Uiso   1.00
H504   H     0.07151   0.14102   0.55077   0.00000  Uiso   1.00
H505   H     0.32891   0.10703   0.99636   0.00000  Uiso   1.00
H506   H     0.23020   0.23865   0.87767   0.00000  Uiso   1.00
H507   H     0.23557   0.01314   0.75641   0.00000  Uiso   1.00
H508   H     0.31727   0.19652   0.59361   0.00000  Uiso   1.00
N509   N     0.31574   0.18074   0.76416   0.00000  Uiso   1.00
N510   N     0.01759   0.15259   0.73584   0.00000  Uiso   1.00
O511   O     0.12797   0.23807   0.74633   0.00000  Uiso   1.00
O512   O     0.15205   0.24620   0.59322   0.00000  Uiso   1.00
O513   O     0.22858   0.24755   0.75586   0.00000  Uiso   1.00
O514   O     0.09181   0.15960   0.81840   0.00000  Uiso   1.00
O515   O     0.19242   0.16908   0.82793   0.00000  Uiso   1.00
O516   O     0.10476   0.08578   0.74414   0.00000  Uiso   1.00
O517   O     0.20536   0.09526   0.75367   0.00000  Uiso   1.00
O518   O     0.14092   0.16425   0.67207   0.00000  Uiso   1.00
O519   O     0.24152   0.17373   0.68160   0.00000  Uiso   1.00
O520   O     0.02751   0.24354   0.50383   0.00000  Uiso   1.00
C521   C     0.51509   0.26668   0.75149   0.00000  Uiso   1.00
C522   C     0.44861   0.16803   0.90416   0.00000  Uiso   1.00
C523   C     0.52356   0.32267   0.75213   0.00000  Uiso   1.00
C524   C     0.46718   0.16660   0.84739   0.00000  Uiso   1.00
C525   C     0.47651   0.01064   0.74760   0.00000  Uiso   1.00
C526   C     0.48494   0.06665   0.74843   0.00000  Uiso   1.00
C527   C     0.53358   0.17436   0.65322   0.00000  Uiso   1.00
C528   C     0.63209   0.22394   0.52495   0.00000  Uiso   1.00
C529   C     0.55248   0.18972   0.59880   0.00000  Uiso   1.00
C530   C     0.38928   0.13940   0.92691   0.00000  Uiso   1.00
C531   C     0.37409   0.13072   0.97959   0.00000  Uiso   1.00
C532   C     0.47638   0.18204   0.98962   0.00000  Uiso   1.00
C533   C     0.41730   0.15116   0.51065   0.00000  Uiso   1.00
C534   C     0.37453   0.29843   0.51345   0.00000  Uiso   1.00
C535   C     0.42547   0.23330   0.62436   0.00000  Uiso   1.00
C536   C     0.49209   0.19146   0.93600   0.00000  Uiso   1.00
C537   C     0.52237   0.19988   0.51990   0.00000  Uiso   1.00
C538   C     0.58509   0.21958   0.99600   0.00000  Uiso   1.00
C539   C     0.59863   0.23378   0.94451   0.00000  Uiso   1.00
C540   C     0.55160   0.22304   0.91593   0.00000  Uiso   1.00
C541   C     0.50786   0.20195   0.57380   0.00000  Uiso   1.00
C542   C     0.61536   0.20194   0.57407   0.00000  Uiso   1.00
Cu543  Cu    0.44043   0.16105   0.74436   0.00000  Uiso   1.00
Cu544  Cu    0.55957   0.17228   0.75565   0.00000  Uiso   1.00
H545   H     0.43117   0.32017   0.74332   0.00000  Uiso   1.00
H546   H     0.36402   0.30829   0.55534   0.00000  Uiso   1.00
H547   H     0.34872   0.31878   0.99252   0.00000  Uiso   1.00
H548   H     0.42520   0.31386   0.99921   0.00000  Uiso   1.00
H549   H     0.42845   0.24580   0.66450   0.00000  Uiso   1.00
H550   H     0.40207   0.19088   0.62354   0.00000  Uiso   1.00
H551   H     0.39627   0.25731   0.61235   0.00000  Uiso   1.00
H552   H     0.35560   0.12123   0.90350   0.00000  Uiso   1.00
H553   H     0.33693   0.20622   0.78979   0.00000  Uiso   1.00
H554   H     0.66309   0.12717   0.71016   0.00000  Uiso   1.00
H555   H     0.64544   0.25294   0.92608   0.00000  Uiso   1.00
H556   H     0.40484   0.14102   0.55077   0.00000  Uiso   1.00
H557   H     0.66225   0.10703   0.99636   0.00000  Uiso   1.00
H558   H     0.56353   0.23865   0.87767   0.00000  Uiso   1.00
H559   H     0.56890   0.01314   0.75641   0.00000  Uiso   1.00
H560   H     0.65060   0.19652   0.59361   0.00000  Uiso   1.00
N561   N     0.64908   0.18074   0.76416   0.00000  Uiso   1.00
N562   N     0.35092   0.15259   0.73584   0.00000  Uiso   1.00
O563   O     0.46131   0.23807   0.74633   0.00000  Uiso   1.00
O564   O     0.48539   0.24620   0.59322   0.00000  Uiso   1.00
O565   O     0.56191   0.24755   0.75586   0.00000  Uiso   1.00
O566   O     0.42515   0.15960   0.81840   0.00000  Uiso   1.00
O567   O     0.52575   0.16908   0.82793   0.00000  Uiso   1.00
O568   O     0.43809   0.08578   0.74414   0.00000  Uiso   1.00
O569   O     0.53869   0.09526   0.75367   0.00000  Uiso   1.00
O570   O     0.47425   0.16425   0.67207   0.00000  Uiso   1.00
O571   O     0.57485   0.17373   0.68160   0.00000  Uiso   1.00
O572   O     0.36084   0.24354   0.50383   0.00000  Uiso   1.00
C573   C     0.84842   0.26668   0.75149   0.00000  Uiso   1.00
C574   C     0.78194   0.16803   0.90416   0.00000  Uiso   1.00
C575   C     0.85690   0.32267   0.75213   0.00000  Uiso   1.00
C576   C     0.80051   0.16660   0.84739   0.00000  Uiso   1.00
C577   C     0.80984   0.01064   0.74760   0.00000  Uiso   1.00
C578   C     0.81827   0.06665   0.74843   0.00000  Uiso   1.00
C579   C     0.86692   0.17436   0.65322   0.00000  Uiso   1.00
C580   C     0.96542   0.22394   0.52495   0.00000  Uiso   1.00
C581   C     0.88581   0.18972   0.59880   0.00000  Uiso   1.00
C582   C     0.72261   0.13940   0.92691   0.00000  Uiso   1.00
C583   C     0.70742   0.13072   0.97959   0.00000  Uiso   1.00
C584   C     0.80971   0.18204   0.98962   0.00000  Uiso   1.00
C585   C     0.75063   0.15116   0.51065   0.00000  Uiso   1.00
C586   C     0.70786   0.29843   0.51345   0.00000  Uiso   1.00
C587   C     0.75880   0.23330   0.62436   0.00000  Uiso   1.00
C588   C     0.82543   0.19146   0.93600   0.00000  Uiso   1.00
C589   C     0.85570   0.19988   0.51990   0.00000  Uiso   1.00
C590   C     0.91842   0.21958   0.99600   0.00000  Uiso   1.00
C591   C     0.93197   0.23378   0.94451   0.00000  Uiso   1.00
C592   C     0.88493   0.22304   0.91593   0.00000  Uiso   1.00
C593   C     0.84119   0.20195   0.57380   0.00000  Uiso   1.00
C594   C     0.94869   0.20194   0.57407   0.00000  Uiso   1.00
Cu595  Cu    0.77377   0.16105   0.74436   0.00000  Uiso   1.00
Cu596  Cu    0.89290   0.17228   0.75565   0.00000  Uiso   1.00
H597   H     0.76451   0.32017   0.74332   0.00000  Uiso   1.00
H598   H     0.69736   0.30829   0.55534   0.00000  Uiso   1.00
H599   H     0.68206   0.31878   0.99252   0.00000  Uiso   1.00
H600   H     0.75853   0.31386   0.99921   0.00000  Uiso   1.00
H601   H     0.76178   0.24580   0.66450   0.00000  Uiso   1.00
H602   H     0.73540   0.19088   0.62354   0.00000  Uiso   1.00
H603   H     0.72960   0.25731   0.61235   0.00000  Uiso   1.00
H604   H     0.68893   0.12123   0.90350   0.00000  Uiso   1.00
H605   H     0.67026   0.20622   0.78979   0.00000  Uiso   1.00
H606   H     0.99642   0.12717   0.71016   0.00000  Uiso   1.00
H607   H     0.97878   0.25294   0.92608   0.00000  Uiso   1.00
H608   H     0.73817   0.14102   0.55077   0.00000  Uiso   1.00
H609   H     0.99558   0.10703   0.99636   0.00000  Uiso   1.00
H610   H     0.89686   0.23865   0.87767   0.00000  Uiso   1.00
H611   H     0.90223   0.01314   0.75641   0.00000  Uiso   1.00
H612   H     0.98394   0.19652   0.59361   0.00000  Uiso   1.00
N613   N     0.98241   0.18074   0.76416   0.00000  Uiso   1.00
N614   N     0.68426   0.15259   0.73584   0.00000  Uiso   1.00
O615   O     0.79464   0.23807   0.74633   0.00000  Uiso   1.00
O616   O     0.81872   0.24620   0.59322   0.00000  Uiso   1.00
O617   O     0.89524   0.24755   0.75586   0.00000  Uiso   1.00
O618   O     0.75848   0.15960   0.81840   0.00000  Uiso   1.00
O619   O     0.85908   0.16908   0.82793   0.00000  Uiso   1.00
O620   O     0.77142   0.08578   0.74414   0.00000  Uiso   1.00
O621   O     0.87203   0.09526   0.75367   0.00000  Uiso   1.00
O622   O     0.80758   0.16425   0.67207   0.00000  Uiso   1.00
O623   O     0.90819   0.17373   0.68160   0.00000  Uiso   1.00
O624   O     0.69417   0.24354   0.50383   0.00000  Uiso   1.00
C625   C     0.18175   0.60002   0.75149   0.00000  Uiso   1.00
C626   C     0.11528   0.50136   0.90416   0.00000  Uiso   1.00
C627   C     0.19023   0.65601   0.75213   0.00000  Uiso   1.00
C628   C     0.13385   0.49993   0.84739   0.00000  Uiso   1.00
C629   C     0.14317   0.34398   0.74760   0.00000  Uiso   1.00
C630   C     0.15160   0.39998   0.74843   0.00000  Uiso   1.00
C631   C     0.20025   0.50770   0.65322   0.00000  Uiso   1.00
C632   C     0.29875   0.55728   0.52495   0.00000  Uiso   1.00
C633   C     0.21915   0.52305   0.59880   0.00000  Uiso   1.00
C634   C     0.05594   0.47273   0.92691   0.00000  Uiso   1.00
C635   C     0.04075   0.46406   0.97959   0.00000  Uiso   1.00
C636   C     0.14305   0.51537   0.98962   0.00000  Uiso   1.00
C637   C     0.08396   0.48449   0.51065   0.00000  Uiso   1.00
C638   C     0.04119   0.63177   0.51345   0.00000  Uiso   1.00
C639   C     0.09213   0.56663   0.62436   0.00000  Uiso   1.00
C640   C     0.15876   0.52479   0.93600   0.00000  Uiso   1.00
C641   C     0.18903   0.53321   0.51990   0.00000  Uiso   1.00
C642   C     0.25175   0.55291   0.99600   0.00000  Uiso   1.00
C643   C     0.26530   0.56711   0.94451   0.00000  Uiso   1.00
C644   C     0.21826   0.55638   0.91593   0.00000  Uiso   1.00
C645   C     0.17453   0.53528   0.57380   0.00000  Uiso   1.00
C646   C     0.28202   0.53527   0.57407   0.00000  Uiso   1.00
Cu647  Cu    0.10710   0.49439   0.74436   0.00000  Uiso   1.00
Cu648  Cu    0.22623   0.50561   0.75565   0.00000  Uiso   1.00
H649   H     0.09784   0.65351   0.74332   0.00000  Uiso   1.00
H650   H     0.03069   0.64162   0.55534   0.00000  Uiso   1.00
H651   H     0.01539   0.65212   0.99252   0.00000  Uiso   1.00
H652   H     0.09186   0.64719   0.99921   0.00000  Uiso   1.00
H653   H     0.09512   0.57913   0.66450   0.00000  Uiso   1.00
H654   H     0.06874   0.52421   0.62354   0.00000  Uiso   1.00
H655   H     0.06294   0.59065   0.61235   0.00000  Uiso   1.00
H656   H     0.02227   0.45456   0.90350   0.00000  Uiso   1.00
H657   H     0.00360   0.53956   0.78979   0.00000  Uiso   1.00
H658   H     0.32976   0.46050   0.71016   0.00000  Uiso   1.00
H659   H     0.31211   0.58628   0.92608   0.00000  Uiso   1.00
H660   H     0.07151   0.47435   0.55077   0.00000  Uiso   1.00
H661   H     0.32891   0.44036   0.99636   0.00000  Uiso   1.00
H662   H     0.23020   0.57199   0.87767   0.00000  Uiso   1.00
H663   H     0.23557   0.34648   0.75641   0.00000  Uiso   1.00
H664   H     0.31727   0.52985   0.59361   0.00000  Uiso   1.00
N665   N     0.31574   0.51407   0.76416   0.00000  Uiso   1.00
N666   N     0.01759   0.48593   0.73584   0.00000  Uiso   1.00
O667   O     0.12797   0.57141   0.74633   0.00000  Uiso   1.00
O668   O     0.15205   0.57954   0.59322   0.00000  Uiso   1.00
O669   O     0.22858   0.58089   0.75586   0.00000  Uiso   1.00
O670   O     0.09181   0.49293   0.81840   0.00000  Uiso   1.00
O671   O     0.19242   0.50241   0.82793   0.00000  Uiso   1.00
O672   O     0.10476   0.41911   0.74414   0.00000  Uiso   1.00
O673   O     0.20536   0.42859   0.75367   0.00000  Uiso   1.00
O674   O     0.14092   0.49759   0.67207   0.00000  Uiso   1.00
O675   O     0.24152   0.50707   0.68160   0.00000  Uiso   1.00
O676   O     0.02751   0.57688   0.50383   0.00000  Uiso   1.00
C677   C     0.51509   0.60002   0.75149   0.00000  Uiso   1.00
C678   C     0.44861   0.50136   0.90416   0.00000  Uiso   1.00
C679   C     0.52356   0.65601   0.75213   0.00000  Uiso   1.00
C680   C     0.46718   0.49993   0.84739   0.00000  Uiso   1.00
C681   C     0.47651   0.34398   0.74760   0.00000  Uiso   1.00
C682   C     0.48494   0.39998   0.74843   0.00000  Uiso   1.00
C683   C     0.53358   0.50770   0.65322   0.00000  Uiso   1.00
C684   C     0.63209   0.55728   0.52495   0.00000  Uiso   1.00
C685   C     0.55248   0.52305   0.59880   0.00000  Uiso   1.00
C686   C     0.38928   0.47273   0.92691   0.00000  Uiso   1.00
C687   C     0.37409   0.46406   0.97959   0.00000  Uiso   1.00
C688   C     0.47638   0.51537   0.98962   0.00000  Uiso   1.00
C689   C     0.41730   0.48449   0.51065   0.00000  Uiso   1.00
C690   C     0.37453   0.63177   0.51345   0.00000  Uiso   1.00
C691   C     0.42547   0.56663   0.62436   0.00000  Uiso   1.00
C692   C     0.49209   0.52479   0.93600   0.00000  Uiso   1.00
C693   C     0.52237   0.53321   0.51990   0.00000  Uiso   1.00
C694   C     0.58509   0.55291   0.99600   0.00000  Uiso   1.00
C695   C     0.59863   0.56711   0.94451   0.00000  Uiso   1.00
C696   C     0.55160   0.55638   0.91593   0.00000  Uiso   1.00
C697   C     0.50786   0.53528   0.57380   0.00000  Uiso   1.00
C698   C     0.61536   0.53527   0.57407   0.00000  Uiso   1.00
Cu699  Cu    0.44043   0.49439   0.74436   0.00000  Uiso   1.00
Cu700  Cu    0.55957   0.50561   0.75565   0.00000  Uiso   1.00
H701   H     0.43117   0.65351   0.74332   0.00000  Uiso   1.00
H702   H     0.36402   0.64162   0.55534   0.00000  Uiso   1.00
H703   H     0.34872   0.65212   0.99252   0.00000  Uiso   1.00
H704   H     0.42520   0.64719   0.99921   0.00000  Uiso   1.00
H705   H     0.42845   0.57913   0.66450   0.00000  Uiso   1.00
H706   H     0.40207   0.52421   0.62354   0.00000  Uiso   1.00
H707   H     0.39627   0.59065   0.61235   0.00000  Uiso   1.00
H708   H     0.35560   0.45456   0.90350   0.00000  Uiso   1.00
H709   H     0.33693   0.53956   0.78979   0.00000  Uiso   1.00
H710   H     0.66309   0.46050   0.71016   0.00000  Uiso   1.00
H711   H     0.64544   0.58628   0.92608   0.00000  Uiso   1.00
H712   H     0.40484   0.47435   0.55077   0.00000  Uiso   1.00
H713   H     0.66225   0.44036   0.99636   0.00000  Uiso   1.00
H714   H     0.56353   0.57199   0.87767   0.00000  Uiso   1.00
H715   H     0.56890   0.34648   0.75641   0.00000  Uiso   1.00
H716   H     0.65060   0.52985   0.59361   0.00000  Uiso   1.00
N717   N     0.64908   0.51407   0.76416   0.00000  Uiso   1.00
N718   N     0.35092   0.48593   0.73584   0.00000  Uiso   1.00
O719   O     0.46131   0.57141   0.74633   0.00000  Uiso   1.00
O720   O     0.48539   0.57954   0.59322   0.00000  Uiso   1.00
O721   O     0.56191   0.58089   0.75586   0.00000  Uiso   1.00
O722   O     0.42515   0.49293   0.81840   0.00000  Uiso   1.00
O723   O     0.52575   0.50241   0.82793   0.00000  Uiso   1.00
O724   O     0.43809   0.41911   0.74414   0.00000  Uiso   1.00
O725   O     0.53869   0.42859   0.75367   0.00000  Uiso   1.00
O726   O     0.47425   0.49759   0.67207   0.00000  Uiso   1.00
O727   O     0.57485   0.50707   0.68160   0.00000  Uiso   1.00
O728   O     0.36084   0.57688   0.50383   0.00000  Uiso   1.00
C729   C     0.84842   0.60002   0.75149   0.00000  Uiso   1.00
C730   C     0.78194   0.50136   0.90416   0.00000  Uiso   1.00
C731   C     0.85690   0.65601   0.75213   0.00000  Uiso   1.00
C732   C     0.80051   0.49993   0.84739   0.00000  Uiso   1.00
C733   C     0.80984   0.34398   0.74760   0.00000  Uiso   1.00
C734   C     0.81827   0.39998   0.74843   0.00000  Uiso   1.00
C735   C     0.86692   0.50770   0.65322   0.00000  Uiso   1.00
C736   C     0.96542   0.55728   0.52495   0.00000  Uiso   1.00
C737   C     0.88581   0.52305   0.59880   0.00000  Uiso   1.00
C738   C     0.72261   0.47273   0.92691   0.00000  Uiso   1.00
C739   C     0.70742   0.46406   0.97959   0.00000  Uiso   1.00
C740   C     0.80971   0.51537   0.98962   0.00000  Uiso   1.00
C741   C     0.75063   0.48449   0.51065   0.00000  Uiso   1.00
C742   C     0.70786   0.63177   0.51345   0.00000  Uiso   1.00
C743   C     0.75880   0.56663   0.62436   0.00000  Uiso   1.00
C744   C     0.82543   0.52479   0.93600   0.00000  Uiso   1.00
C745   C     0.85570   0.53321   0.51990   0.00000  Uiso   1.00
C746   C     0.91842   0.55291   0.99600   0.00000  Uiso   1.00
C747   C     0.93197   0.56711   0.94451   0.00000  Uiso   1.00
C748   C     0.88493   0.55638   0.91593   0.00000  Uiso   1.00
C749   C     0.84119   0.53528   0.57380   0.00000  Uiso   1.00
C750   C     0.94869   0.53527   0.57407   0.00000  Uiso   1.00
Cu751  Cu    0.77377   0.49439   0.74436   0.00000  Uiso   1.00
Cu752  Cu    0.89290   0.50561   0.75565   0.00000  Uiso   1.00
H753   H     0.76451   0.65351   0.74332   0.00000  Uiso   1.00
H754   H     0.69736   0.64162   0.55534   0.00000  Uiso   1.00
H755   H     0.68206   0.65212   0.99252   0.00000  Uiso   1.00
H756   H     0.75853   0.64719   0.99921   0.00000  Uiso   1.00
H757   H     0.76178   0.57913   0.66450   0.00000  Uiso   1.00
H758   H     0.73540   0.52421   0.62354   0.00000  Uiso   1.00
H759   H     0.72960   0.59065   0.61235   0.00000  Uiso   1.00
H760   H     0.68893   0.45456   0.90350   0.00000  Uiso   1.00
H761   H     0.67026   0.53956   0.78979   0.00000  Uiso   1.00
H762   H     0.99642   0.46050   0.71016   0.00000  Uiso   1.00
H763   H     0.97878   0.58628   0.92608   0.00000  Uiso   1.00
H764   H     0.73817   0.47435   0.55077   0.00000  Uiso   1.00
H765   H     0.99558   0.44036   0.99636   0.00000  Uiso   1.00
H766   H     0.89686   0.57199   0.87767   0.00000  Uiso   1.00
H767   H     0.90223   0.34648   0.75641   0.00000  Uiso   1.00
H768   H     0.98394   0.52985   0.59361   0.00000  Uiso   1.00
N769   N     0.98241   0.51407   0.76416   0.00000  Uiso   1.00
N770   N     0.68426   0.48593   0.73584   0.00000  Uiso   1.00
O771   O     0.79464   0.57141   0.74633   0.00000  Uiso   1.00
O772   O     0.81872   0.57954   0.59322   0.00000  Uiso   1.00
O773   O     0.89524   0.58089   0.75586   0.00000  Uiso   1.00
O774   O     0.75848   0.49293   0.81840   0.00000  Uiso   1.00
O775   O     0.85908   0.50241   0.82793   0.00000  Uiso   1.00
O776   O     0.77142   0.41911   0.74414   0.00000  Uiso   1.00
O777   O     0.87203   0.42859   0.75367   0.00000  Uiso   1.00
O778   O     0.80758   0.49759   0.67207   0.00000  Uiso   1.00
O779   O     0.90819   0.50707   0.68160   0.00000  Uiso   1.00
O780   O     0.69417   0.57688   0.50383   0.00000  Uiso   1.00
C781   C     0.18175   0.93335   0.75149   0.00000  Uiso   1.00
C782   C     0.11528   0.83470   0.90416   0.00000  Uiso   1.00
C783   C     0.19023   0.98934   0.75213   0.00000  Uiso   1.00
C784   C     0.13385   0.83327   0.84739   0.00000  Uiso   1.00
C785   C     0.14317   0.67731   0.74760   0.00000  Uiso   1.00
C786   C     0.15160   0.73332   0.74843   0.00000  Uiso   1.00
C787   C     0.20025   0.84103   0.65322   0.00000  Uiso   1.00
C788   C     0.29875   0.89061   0.52495   0.00000  Uiso   1.00
C789   C     0.21915   0.85638   0.59880   0.00000  Uiso   1.00
C790   C     0.05594   0.80607   0.92691   0.00000  Uiso   1.00
C791   C     0.04075   0.79739   0.97959   0.00000  Uiso   1.00
C792   C     0.14305   0.84870   0.98962   0.00000  Uiso   1.00
C793   C     0.08396   0.81783   0.51065   0.00000  Uiso   1.00
C794   C     0.04119   0.96510   0.51345   0.00000  Uiso   1.00
C795   C     0.09213   0.89996   0.62436   0.00000  Uiso   1.00
C796   C     0.15876   0.85813   0.93600   0.00000  Uiso   1.00
C797   C     0.18903   0.86655   0.51990   0.00000  Uiso   1.00
C798   C     0.25175   0.88624   0.99600   0.00000  Uiso   1.00
C799   C     0.26530   0.90045   0.94451   0.00000  Uiso   1.00
C800   C     0.21826   0.88971   0.91593   0.00000  Uiso   1.00
C801   C     0.17453   0.86861   0.57380   0.00000  Uiso   1.00
C802   C     0.28202   0.86861   0.57407   0.00000  Uiso   1.00
Cu803  Cu    0.10710   0.82772   0.74436   0.00000  Uiso   1.00
Cu804  Cu    0.22623   0.83895   0.75565   0.00000  Uiso   1.00
H805   H     0.09784   0.98684   0.74332   0.00000  Uiso   1.00
H806   H     0.03069   0.97495   0.55534   0.00000  Uiso   1.00
H807   H     0.01539   0.98545   0.99252   0.00000  Uiso   1.00
H808   H     0.09186   0.98053   0.99921   0.00000  Uiso   1.00
H809   H     0.09512   0.91247   0.66450   0.00000  Uiso   1.00
H810   H     0.06874   0.85755   0.62354   0.00000  Uiso   1.00
H811   H     0.06294   0.92398   0.61235   0.00000  Uiso   1.00
H812   H     0.02227   0.78790   0.90350   0.00000  Uiso   1.00
H813   H     0.00360   0.87289   0.78979   0.00000  Uiso   1.00
H814   H     0.32976   0.79383   0.71016   0.00000  Uiso   1.00
H815   H     0.31211   0.91961   0.92608   0.00000  Uiso   1.00
H816   H     0.07151   0.80768   0.55077   0.00000  Uiso   1.00
H817   H     0.32891   0.77370   0.99636   0.00000  Uiso   1.00
H818   H     0.23020   0.90532   0.87767   0.00000  Uiso   1.00
H819   H     0.23557   0.67981   0.75641   0.00000  Uiso   1.00
H820   H     0.31727   0.86318   0.59361   0.00000  Uiso   1.00
N821   N     0.31574   0.84741   0.76416   0.00000  Uiso   1.00
N822   N     0.01759   0.81926   0.73584   0.00000  Uiso   1.00
O823   O     0.12797   0.90474   0.74633   0.00000  Uiso   1.00
O824   O     0.15205   0.91287   0.59322   0.00000  Uiso   1.00
O825   O     0.22858   0.91422   0.75586   0.00000  Uiso   1.00
O826   O     0.09181   0.82627   0.81840   0.00000  Uiso   1.00
O827   O     0.19242   0.83575   0.82793   0.00000  Uiso   1.00
O828   O     0.10476   0.75245   0.74414   0.00000  Uiso   1.00
O829   O     0.20536   0.76193   0.75367   0.00000  Uiso   1.00
O830   O     0.14092   0.83092   0.67207   0.00000  Uiso   1.00
O831   O     0.24152   0.84040   0.68160   0.00000  Uiso   1.00
O832   O     0.02751   0.91021   0.50383   0.00000  Uiso   1.00
C833   C     0.51509   0.93335   0.75149   0.00000  Uiso   1.00
C834   C     0.44861   0.83470   0.90416   0.00000  Uiso   1.00
C835   C     0.52356   0.98934   0.75213   0.00000  Uiso   1.00
C836   C     0.46718   0.83327   0.84739   0.00000  Uiso   1.00
C837   C     0.47651   0.67731   0.74760   0.00000  Uiso   1.00
C838   C     0.48494   0.73332   0.74843   0.00000  Uiso   1.00
C839   C     0.53358   0.84103   0.65322   0.00000  Uiso   1.00
C840   C     0.63209   0.89061   0.52495   0.00000  Uiso   1.00
C841   C     0.55248   0.85638   0.59880   0.00000  Uiso   1.00
C842   C     0.38928   0.80607   0.92691   0.00000  Uiso   1.00
C843   C     0.37409   0.79739   0.97959   0.00000  Uiso   1.00
C844   C     0.47638   0.84870   0.98962   0.00000  Uiso   1.00
C845   C     0.41730   0.81783   0.51065   0.00000  Uiso   1.00
C846   C     0.37453   0.96510   0.51345   0.00000  Uiso   1.00
C847   C     0.42547   0.89996   0.62436   0.00000  Uiso   1.00
C848   C     0.49209   0.85813   0.93600   0.00000  Uiso   1.00
C849   C     0.52237   0.86655   0.51990   0.00000  Uiso   1.00
C850   C     0.58509   0.88624   0.99600   0.00000  Uiso   1.00
C851   C     0.59863   0.90045   0.94451   0.00000  Uiso   1.00
C852   C     0.55160   0.88971   0.91593   0.00000  Uiso   1.00
C853   C     0.50786   0.86861   0.57380   0.00000  Uiso   1.00
C854   C     0.61536   0.86861   0.57407   0.00000  Uiso   1.00
Cu855  Cu    0.44043   0.82772   0.74436   0.00000  Uiso   1.00
Cu856  Cu    0.55957   0.83895   0.75565   0.00000  Uiso   1.00
H857   H     0.43117   0.98684   0.74332   0.00000  Uiso   1.00
H858   H     0.36402   0.97495   0.55534   0.00000  Uiso   1.00
H859   H     0.34872   0.98545   0.99252   0.00000  Uiso   1.00
H860   H     0.42520   0.98053   0.99921   0.00000  Uiso   1.00
H861   H     0.42845   0.91247   0.66450   0.00000  Uiso   1.00
H862   H     0.40207   0.85755   0.62354   0.00000  Uiso   1.00
H863   H     0.39627   0.92398   0.61235   0.00000  Uiso   1.00
H864   H     0.35560   0.78790   0.90350   0.00000  Uiso   1.00
H865   H     0.33693   0.87289   0.78979   0.00000  Uiso   1.00
H866   H     0.66309   0.79383   0.71016   0.00000  Uiso   1.00
H867   H     0.64544   0.91961   0.92608   0.00000  Uiso   1.00
H868   H     0.40484   0.80768   0.55077   0.00000  Uiso   1.00
H869   H     0.66225   0.77370   0.99636   0.00000  Uiso   1.00
H870   H     0.56353   0.90532   0.87767   0.00000  Uiso   1.00
H871   H     0.56890   0.67981   0.75641   0.00000  Uiso   1.00
H872   H     0.65060   0.86318   0.59361   0.00000  Uiso   1.00
N873   N     0.64908   0.84741   0.76416   0.00000  Uiso   1.00
N874   N     0.35092   0.81926   0.73584   0.00000  Uiso   1.00
O875   O     0.46131   0.90474   0.74633   0.00000  Uiso   1.00
O876   O     0.48539   0.91287   0.59322   0.00000  Uiso   1.00
O877   O     0.56191   0.91422   0.75586   0.00000  Uiso   1.00
O878   O     0.42515   0.82627   0.81840   0.00000  Uiso   1.00
O879   O     0.52575   0.83575   0.82793   0.00000  Uiso   1.00
O880   O     0.43809   0.75245   0.74414   0.00000  Uiso   1.00
O881   O     0.53869   0.76193   0.75367   0.00000  Uiso   1.00
O882   O     0.47425   0.83092   0.67207   0.00000  Uiso   1.00
O883   O     0.57485   0.84040   0.68160   0.00000  Uiso   1.00
O884   O     0.36084   0.91021   0.50383   0.00000  Uiso   1.00
C885   C     0.84842   0.93335   0.75149   0.00000  Uiso   1.00
C886   C     0.78194   0.83470   0.90416   0.00000  Uiso   1.00
C887   C     0.85690   0.98934   0.75213   0.00000  Uiso   1.00
C888   C     0.80051   0.83327   0.84739   0.00000  Uiso   1.00
C889   C     0.80984   0.67731   0.74760   0.00000  Uiso   1.00
C890   C     0.81827   0.73332   0.74843   0.00000  Uiso   1.00
C891   C     0.86692   0.84103   0.65322   0.00000  Uiso   1.00
C892   C     0.96542   0.89061   0.52495   0.00000  Uiso   1.00
C893   C     0.88581   0.85638   0.59880   0.00000  Uiso   1.00
C894   C     0.72261   0.80607   0.92691   0.00000  Uiso   1.00
C895   C     0.70742   0.79739   0.97959   0.00000  Uiso   1.00
C896   C     0.80971   0.84870   0.98962   0.00000  Uiso   1.00
C897   C     0.75063   0.81783   0.51065   0.00000  Uiso   1.00
C898   C     0.70786   0.96510   0.51345   0.00000  Uiso   1.00
C899   C     0.75880   0.89996   0.62436   0.00000  Uiso   1.00
C900   C     0.82543   0.85813   0.93600   0.00000  Uiso   1.00
C901   C     0.85570   0.86655   0.51990   0.00000  Uiso   1.00
C902   C     0.91842   0.88624   0.99600   0.00000  Uiso   1.00
C903   C     0.93197   0.90045   0.94451   0.00000  Uiso   1.00
C904   C     0.88493   0.88971   0.91593   0.00000  Uiso   1.00
C905   C     0.84119   0.86861   0.57380   0.00000  Uiso   1.00
C906   C     0.94869   0.86861   0.57407   0.00000  Uiso   1.00
Cu907  Cu    0.77377   0.82772   0.74436   0.00000  Uiso   1.00
Cu908  Cu    0.89290   0.83895   0.75565   0.00000  Uiso   1.00
H909   H     0.76451   0.98684   0.74332   0.00000  Uiso   1.00
H910   H     0.69736   0.97495   0.55534   0.00000  Uiso   1.00
H911   H     0.68206   0.98545   0.99252   0.00000  Uiso   1.00
H912   H     0.75853   0.98053   0.99921   0.00000  Uiso   1.00
H913   H     0.76178   0.91247   0.66450   0.00000  Uiso   1.00
H914   H     0.73540   0.85755   0.62354   0.00000  Uiso   1.00
H915   H     0.72960   0.92398   0.61235   0.00000  Uiso   1.00
H916   H     0.68893   0.78790   0.90350   0.00000  Uiso   1.00
H917   H     0.67026   0.87289   0.78979   0.00000  Uiso   1.00
H918   H     0.99642   0.79383   0.71016   0.00000  Uiso   1.00
H919   H     0.97878   0.91961   0.92608   0.00000  Uiso   1.00
H920   H     0.73817   0.80768   0.55077   0.00000  Uiso   1.00
H921   H     0.99558   0.77370   0.99636   0.00000  Uiso   1.00
H922   H     0.89686   0.90532   0.87767   0.00000  Uiso   1.00
H923   H     0.90223   0.67981   0.75641   0.00000  Uiso   1.00
H924   H     0.98394   0.86318   0.59361   0.00000  Uiso   1.00
N925   N     0.98241   0.84741   0.76416   0.00000  Uiso   1.00
N926   N     0.68426   0.81926   0.73584   0.00000  Uiso   1.00
O927   O     0.79464   0.90474   0.74633   0.00000  Uiso   1.00
O928   O     0.81872   0.91287   0.59322   0.00000  Uiso   1.00
O929   O     0.89524   0.91422   0.75586   0.00000  Uiso   1.00
O930   O     0.75848   0.82627   0.81840   0.00000  Uiso   1.00
O931   O     0.85908   0.83575   0.82793   0.00000  Uiso   1.00
O932   O     0.77142   0.75245   0.74414   0.00000  Uiso   1.00
O933   O     0.87203   0.76193   0.75367   0.00000  Uiso   1.00
O934   O     0.80758   0.83092   0.67207   0.00000  Uiso   1.00
O935   O     0.90819   0.84040   0.68160   0.00000  Uiso   1.00
O936   O     0.69417   0.91021   0.50383   0.00000  Uiso   1.00
loop_
_geom_bond_atom_site_label_1
_geom_bond_atom_site_label_2
_geom_bond_distance
_geom_bond_site_symmetry_2
_ccdc_geom_bond_type
C1     O45     1.288   .     A
C1     O43     1.294   .     A
C1     C3      1.427   .     S
C2     C4      1.479   .     S
C2     C16     1.428   .     A
C2     C10     1.403   .     A
C3     C161    1.328   .     S
C3     H195    1.088   .     S
C4     O46     1.311   .     A
C4     O47     1.296   .     A
C5     C6      1.427   .     S
C5     C315    1.328   1_545 S
C5     H337    1.088   1_545 S
C6     O48     1.288   .     A
C6     O49     1.294   .     A
C7     O51     1.313   .     A
C7     C9      1.476   .     S
C7     O50     1.293   .     A
C8     C22     1.405   .     A
C8     C486    1.409   1_554 S
C8     O104    1.381   .     S
C9     C22     1.400   .     A
C9     C21     1.412   .     A
C10    C11     1.391   .     A
C10    H32     1.083   .     S
C11    C481    1.393   .     S
C11    H141    1.083   1_455 S
C12    C16     1.419   .     A
C12    C481    1.409   .     S
C12    C485    1.415   .     S
C13    H36     1.079   .     S
C13    C480    1.409   1_554 S
C13    C479    1.393   1_554 S
C14    H26     1.113   .     S
C14    O52     1.410   .     S
C14    H495    1.113   1_554 S
C14    H496    1.109   1_554 S
C15    H31     1.105   .     S
C15    O44     1.405   .     S
C15    H29     1.104   .     S
C15    H30     1.111   .     S
C16    C20     1.417   .     A
C17    C21     1.401   .     A
C17    C480    1.415   1_554 S
C17    C486    1.411   1_554 S
C18    C19     1.395   .     A
C18    C485    1.411   .     S
C18    C476    1.409   .     S
C19    C20     1.392   .     A
C19    H35     1.083   .     S
C20    H38     1.079   .     S
C21    O44     1.387   .     S
C22    H40     1.070   .     S
Cu23   Cu24    2.698   .     S
Cu23   O46     1.926   .     S
Cu23   N42     2.027   .     S
Cu23   O50     1.912   .     S
Cu23   O48     1.949   .     S
Cu23   O43     1.954   .     S
Cu24   O47     1.912   .     S
Cu24   O51     1.926   .     S
Cu24   N41     2.027   .     S
Cu24   O45     1.949   .     S
Cu24   O49     1.954   .     S
H25    C161    1.088   .     S
H27    C482    1.113   .     S
H28    C482    1.109   .     S
H33    N145    1.029   1_455 S
H34    N94     1.029   .     S
H37    C63     1.083   .     S
H39    C315    1.088   1_545 S
N41    H85     1.029   .     S
N41    N94     1.291   .     S
N42    N145    1.291   1_455 S
N42    H138    1.029   1_455 S
O52    C112    1.381   1_455 S
C53    O97     1.288   .     A
C53    O95     1.294   .     A
C53    C55     1.427   .     S
C54    C56     1.479   .     S
C54    C68     1.428   .     A
C54    C62     1.403   .     A
C55    C213    1.328   .     S
C55    H247    1.088   .     S
C56    O98     1.311   .     A
C56    O99     1.296   .     A
C57    C58     1.427   .     S
C57    C367    1.328   1_545 S
C57    H389    1.088   1_545 S
C58    O100    1.288   .     A
C58    O101    1.294   .     A
C59    O103    1.313   .     A
C59    C61     1.476   .     S
C59    O102    1.293   .     A
C60    C74     1.405   .     A
C60    C538    1.409   1_554 S
C60    O156    1.381   .     S
C61    C74     1.400   .     A
C61    C73     1.412   .     A
C62    C63     1.391   .     A
C62    H84     1.083   .     S
C63    C533    1.393   .     S
C64    C68     1.419   .     A
C64    C533    1.409   .     S
C64    C537    1.415   .     S
C65    H88     1.079   .     S
C65    C532    1.409   1_554 S
C65    C531    1.393   1_554 S
C66    H78     1.113   .     S
C66    O104    1.410   .     S
C66    H547    1.113   1_554 S
C66    H548    1.109   1_554 S
C67    H83     1.105   .     S
C67    O96     1.405   .     S
C67    H81     1.104   .     S
C67    H82     1.111   .     S
C68    C72     1.417   .     A
C69    C73     1.401   .     A
C69    C532    1.415   1_554 S
C69    C538    1.411   1_554 S
C70    C71     1.395   .     A
C70    C537    1.411   .     S
C70    C528    1.409   .     S
C71    C72     1.392   .     A
C71    H87     1.083   .     S
C72    H90     1.079   .     S
C73    O96     1.387   .     S
C74    H92     1.070   .     S
Cu75   Cu76    2.698   .     S
Cu75   O98     1.926   .     S
Cu75   N94     2.027   .     S
Cu75   O102    1.912   .     S
Cu75   O100    1.949   .     S
Cu75   O95     1.954   .     S
Cu76   O99     1.912   .     S
Cu76   O103    1.926   .     S
Cu76   N93     2.027   .     S
Cu76   O97     1.949   .     S
Cu76   O101    1.954   .     S
H77    C213    1.088   .     S
H79    C534    1.113   .     S
H80    C534    1.109   .     S
H86    N146    1.029   .     S
H89    C115    1.083   .     S
H91    C367    1.088   1_545 S
N93    H137    1.029   .     S
N93    N146    1.291   .     S
C105   O149    1.288   .     A
C105   O147    1.294   .     A
C105   C107    1.427   .     S
C106   C108    1.479   .     S
C106   C120    1.428   .     A
C106   C114    1.403   .     A
C107   C265    1.328   .     S
C107   H299    1.088   .     S
C108   O150    1.311   .     A
C108   O151    1.296   .     A
C109   C110    1.427   .     S
C109   C419    1.328   1_545 S
C109   H441    1.088   1_545 S
C110   O152    1.288   .     A
C110   O153    1.294   .     A
C111   O155    1.313   .     A
C111   C113    1.476   .     S
C111   O154    1.293   .     A
C112   C126    1.405   .     A
C112   C590    1.409   1_554 S
C112   O52     1.381   1_655 S
C113   C126    1.400   .     A
C113   C125    1.412   .     A
C114   C115    1.391   .     A
C114   H136    1.083   .     S
C115   C585    1.393   .     S
C116   C120    1.419   .     A
C116   C585    1.409   .     S
C116   C589    1.415   .     S
C117   H140    1.079   .     S
C117   C584    1.409   1_554 S
C117   C583    1.393   1_554 S
C118   H130    1.113   .     S
C118   O156    1.410   .     S
C118   H599    1.113   1_554 S
C118   H600    1.109   1_554 S
C119   H135    1.105   .     S
C119   O148    1.405   .     S
C119   H133    1.104   .     S
C119   H134    1.111   .     S
C120   C124    1.417   .     A
C121   C125    1.401   .     A
C121   C584    1.415   1_554 S
C121   C590    1.411   1_554 S
C122   C123    1.395   .     A
C122   C589    1.411   .     S
C122   C580    1.409   .     S
C123   C124    1.392   .     A
C123   H139    1.083   .     S
C124   H142    1.079   .     S
C125   O148    1.387   .     S
C126   H144    1.070   .     S
Cu127  Cu128   2.698   .     S
Cu127  O150    1.926   .     S
Cu127  N146    2.027   .     S
Cu127  O154    1.912   .     S
Cu127  O152    1.949   .     S
Cu127  O147    1.954   .     S
Cu128  O151    1.912   .     S
Cu128  O155    1.926   .     S
Cu128  N145    2.027   .     S
Cu128  O149    1.949   .     S
Cu128  O153    1.954   .     S
H129   C265    1.088   .     S
H131   C586    1.113   .     S
H132   C586    1.109   .     S
H138   N42     1.029   1_655 S
H141   C11     1.083   1_655 S
H143   C419    1.088   1_545 S
N145   H33     1.029   1_655 S
N145   N42     1.291   1_655 S
C157   O201    1.288   .     A
C157   O199    1.294   .     A
C157   C159    1.427   .     S
C158   C160    1.479   .     S
C158   C172    1.428   .     A
C158   C166    1.403   .     A
C159   C317    1.328   .     S
C159   H351    1.088   .     S
C160   O202    1.311   .     A
C160   O203    1.296   .     A
C161   C162    1.427   .     S
C162   O204    1.288   .     A
C162   O205    1.294   .     A
C163   O207    1.313   .     A
C163   C165    1.476   .     S
C163   O206    1.293   .     A
C164   C178    1.405   .     A
C164   C642    1.409   1_554 S
C164   O260    1.381   .     S
C165   C178    1.400   .     A
C165   C177    1.412   .     A
C166   C167    1.391   .     A
C166   H188    1.083   .     S
C167   C637    1.393   .     S
C167   H297    1.083   1_455 S
C168   C172    1.419   .     A
C168   C637    1.409   .     S
C168   C641    1.415   .     S
C169   H192    1.079   .     S
C169   C636    1.409   1_554 S
C169   C635    1.393   1_554 S
C170   H182    1.113   .     S
C170   O208    1.410   .     S
C170   H651    1.113   1_554 S
C170   H652    1.109   1_554 S
C171   H187    1.105   .     S
C171   O200    1.405   .     S
C171   H185    1.104   .     S
C171   H186    1.111   .     S
C172   C176    1.417   .     A
C173   C177    1.401   .     A
C173   C636    1.415   1_554 S
C173   C642    1.411   1_554 S
C174   C175    1.395   .     A
C174   C641    1.411   .     S
C174   C632    1.409   .     S
C175   C176    1.392   .     A
C175   H191    1.083   .     S
C176   H194    1.079   .     S
C177   O200    1.387   .     S
C178   H196    1.070   .     S
Cu179  Cu180   2.698   .     S
Cu179  O202    1.926   .     S
Cu179  N198    2.027   .     S
Cu179  O206    1.912   .     S
Cu179  O204    1.949   .     S
Cu179  O199    1.954   .     S
Cu180  O203    1.912   .     S
Cu180  O207    1.926   .     S
Cu180  N197    2.027   .     S
Cu180  O201    1.949   .     S
Cu180  O205    1.954   .     S
H181   C317    1.088   .     S
H183   C638    1.113   .     S
H184   C638    1.109   .     S
H189   N301    1.029   1_455 S
H190   N250    1.029   .     S
H193   C219    1.083   .     S
N197   H241    1.029   .     S
N197   N250    1.291   .     S
N198   N301    1.291   1_455 S
N198   H294    1.029   1_455 S
O208   C268    1.381   1_455 S
C209   O253    1.288   .     A
C209   O251    1.294   .     A
C209   C211    1.427   .     S
C210   C212    1.479   .     S
C210   C224    1.428   .     A
C210   C218    1.403   .     A
C211   C369    1.328   .     S
C211   H403    1.088   .     S
C212   O254    1.311   .     A
C212   O255    1.296   .     A
C213   C214    1.427   .     S
C214   O256    1.288   .     A
C214   O257    1.294   .     A
C215   O259    1.313   .     A
C215   C217    1.476   .     S
C215   O258    1.293   .     A
C216   C230    1.405   .     A
C216   C694    1.409   1_554 S
C216   O312    1.381   .     S
C217   C230    1.400   .     A
C217   C229    1.412   .     A
C218   C219    1.391   .     A
C218   H240    1.083   .     S
C219   C689    1.393   .     S
C220   C224    1.419   .     A
C220   C689    1.409   .     S
C220   C693    1.415   .     S
C221   H244    1.079   .     S
C221   C688    1.409   1_554 S
C221   C687    1.393   1_554 S
C222   H234    1.113   .     S
C222   O260    1.410   .     S
C222   H703    1.113   1_554 S
C222   H704    1.109   1_554 S
C223   H239    1.105   .     S
C223   O252    1.405   .     S
C223   H237    1.104   .     S
C223   H238    1.111   .     S
C224   C228    1.417   .     A
C225   C229    1.401   .     A
C225   C688    1.415   1_554 S
C225   C694    1.411   1_554 S
C226   C227    1.395   .     A
C226   C693    1.411   .     S
C226   C684    1.409   .     S
C227   C228    1.392   .     A
C227   H243    1.083   .     S
C228   H246    1.079   .     S
C229   O252    1.387   .     S
C230   H248    1.070   .     S
Cu231  Cu232   2.698   .     S
Cu231  O254    1.926   .     S
Cu231  N250    2.027   .     S
Cu231  O258    1.912   .     S
Cu231  O256    1.949   .     S
Cu231  O251    1.954   .     S
Cu232  O255    1.912   .     S
Cu232  O259    1.926   .     S
Cu232  N249    2.027   .     S
Cu232  O253    1.949   .     S
Cu232  O257    1.954   .     S
H233   C369    1.088   .     S
H235   C690    1.113   .     S
H236   C690    1.109   .     S
H242   N302    1.029   .     S
H245   C271    1.083   .     S
N249   H293    1.029   .     S
N249   N302    1.291   .     S
C261   O305    1.288   .     A
C261   O303    1.294   .     A
C261   C263    1.427   .     S
C262   C264    1.479   .     S
C262   C276    1.428   .     A
C262   C270    1.403   .     A
C263   C421    1.328   .     S
C263   H455    1.088   .     S
C264   O306    1.311   .     A
C264   O307    1.296   .     A
C265   C266    1.427   .     S
C266   O308    1.288   .     A
C266   O309    1.294   .     A
C267   O311    1.313   .     A
C267   C269    1.476   .     S
C267   O310    1.293   .     A
C268   C282    1.405   .     A
C268   C746    1.409   1_554 S
C268   O208    1.381   1_655 S
C269   C282    1.400   .     A
C269   C281    1.412   .     A
C270   C271    1.391   .     A
C270   H292    1.083   .     S
C271   C741    1.393   .     S
C272   C276    1.419   .     A
C272   C741    1.409   .     S
C272   C745    1.415   .     S
C273   H296    1.079   .     S
C273   C740    1.409   1_554 S
C273   C739    1.393   1_554 S
C274   H286    1.113   .     S
C274   O312    1.410   .     S
C274   H755    1.113   1_554 S
C274   H756    1.109   1_554 S
C275   H291    1.105   .     S
C275   O304    1.405   .     S
C275   H289    1.104   .     S
C275   H290    1.111   .     S
C276   C280    1.417   .     A
C277   C281    1.401   .     A
C277   C740    1.415   1_554 S
C277   C746    1.411   1_554 S
C278   C279    1.395   .     A
C278   C745    1.411   .     S
C278   C736    1.409   .     S
C279   C280    1.392   .     A
C279   H295    1.083   .     S
C280   H298    1.079   .     S
C281   O304    1.387   .     S
C282   H300    1.070   .     S
Cu283  Cu284   2.698   .     S
Cu283  O306    1.926   .     S
Cu283  N302    2.027   .     S
Cu283  O310    1.912   .     S
Cu283  O308    1.949   .     S
Cu283  O303    1.954   .     S
Cu284  O307    1.912   .     S
Cu284  O311    1.926   .     S
Cu284  N301    2.027   .     S
Cu284  O305    1.949   .     S
Cu284  O309    1.954   .     S
H285   C421    1.088   .     S
H287   C742    1.113   .     S
H288   C742    1.109   .     S
H294   N198    1.029   1_655 S
H297   C167    1.083   1_655 S
N301   H189    1.029   1_655 S
N301   N198    1.291   1_655 S
C313   O357    1.288   .     A
C313   O355    1.294   .     A
C313   C315    1.427   .     S
C314   C316    1.479   .     S
C314   C328    1.428   .     A
C314   C322    1.403   .     A
C315   C5      1.328   1_565 S
C315   H39     1.088   1_565 S
C316   O358    1.311   .     A
C316   O359    1.296   .     A
C317   C318    1.427   .     S
C318   O360    1.288   .     A
C318   O361    1.294   .     A
C319   O363    1.313   .     A
C319   C321    1.476   .     S
C319   O362    1.293   .     A
C320   C334    1.405   .     A
C320   C798    1.409   1_554 S
C320   O416    1.381   .     S
C321   C334    1.400   .     A
C321   C333    1.412   .     A
C322   C323    1.391   .     A
C322   H344    1.083   .     S
C323   C793    1.393   .     S
C323   H453    1.083   1_455 S
C324   C328    1.419   .     A
C324   C793    1.409   .     S
C324   C797    1.415   .     S
C325   H348    1.079   .     S
C325   C792    1.409   1_554 S
C325   C791    1.393   1_554 S
C326   H338    1.113   .     S
C326   O364    1.410   .     S
C326   H807    1.113   1_554 S
C326   H808    1.109   1_554 S
C327   H343    1.105   .     S
C327   O356    1.405   .     S
C327   H341    1.104   .     S
C327   H342    1.111   .     S
C328   C332    1.417   .     A
C329   C333    1.401   .     A
C329   C792    1.415   1_554 S
C329   C798    1.411   1_554 S
C330   C331    1.395   .     A
C330   C797    1.411   .     S
C330   C788    1.409   .     S
C331   C332    1.392   .     A
C331   H347    1.083   .     S
C332   H350    1.079   .     S
C333   O356    1.387   .     S
C334   H352    1.070   .     S
Cu335  Cu336   2.698   .     S
Cu335  O358    1.926   .     S
Cu335  N354    2.027   .     S
Cu335  O362    1.912   .     S
Cu335  O360    1.949   .     S
Cu335  O355    1.954   .     S
Cu336  O359    1.912   .     S
Cu336  O363    1.926   .     S
Cu336  N353    2.027   .     S
Cu336  O357    1.949   .     S
Cu336  O361    1.954   .     S
H337   C5      1.088   1_565 S
H339   C794    1.113   .     S
H340   C794    1.109   .     S
H345   N457    1.029   1_455 S
H346   N406    1.029   .     S
H349   C375    1.083   .     S
N353   H397    1.029   .     S
N353   N406    1.291   .     S
N354   N457    1.291   1_455 S
N354   H450    1.029   1_455 S
O364   C424    1.381   1_455 S
C365   O409    1.288   .     A
C365   O407    1.294   .     A
C365   C367    1.427   .     S
C366   C368    1.479   .     S
C366   C380    1.428   .     A
C366   C374    1.403   .     A
C367   C57     1.328   1_565 S
C367   H91     1.088   1_565 S
C368   O410    1.311   .     A
C368   O411    1.296   .     A
C369   C370    1.427   .     S
C370   O412    1.288   .     A
C370   O413    1.294   .     A
C371   O415    1.313   .     A
C371   C373    1.476   .     S
C371   O414    1.293   .     A
C372   C386    1.405   .     A
C372   C850    1.409   1_554 S
C372   O468    1.381   .     S
C373   C386    1.400   .     A
C373   C385    1.412   .     A
C374   C375    1.391   .     A
C374   H396    1.083   .     S
C375   C845    1.393   .     S
C376   C380    1.419   .     A
C376   C845    1.409   .     S
C376   C849    1.415   .     S
C377   H400    1.079   .     S
C377   C844    1.409   1_554 S
C377   C843    1.393   1_554 S
C378   H390    1.113   .     S
C378   O416    1.410   .     S
C378   H859    1.113   1_554 S
C378   H860    1.109   1_554 S
C379   H395    1.105   .     S
C379   O408    1.405   .     S
C379   H393    1.104   .     S
C379   H394    1.111   .     S
C380   C384    1.417   .     A
C381   C385    1.401   .     A
C381   C844    1.415   1_554 S
C381   C850    1.411   1_554 S
C382   C383    1.395   .     A
C382   C849    1.411   .     S
C382   C840    1.409   .     S
C383   C384    1.392   .     A
C383   H399    1.083   .     S
C384   H402    1.079   .     S
C385   O408    1.387   .     S
C386   H404    1.070   .     S
Cu387  Cu388   2.698   .     S
Cu387  O410    1.926   .     S
Cu387  N406    2.027   .     S
Cu387  O414    1.912   .     S
Cu387  O412    1.949   .     S
Cu387  O407    1.954   .     S
Cu388  O411    1.912   .     S
Cu388  O415    1.926   .     S
Cu388  N405    2.027   .     S
Cu388  O409    1.949   .     S
Cu388  O413    1.954   .     S
H389   C57     1.088   1_565 S
H391   C846    1.113   .     S
H392   C846    1.109   .     S
H398   N458    1.029   .     S
H401   C427    1.083   .     S
N405   H449    1.029   .     S
N405   N458    1.291   .     S
C417   O461    1.288   .     A
C417   O459    1.294   .     A
C417   C419    1.427   .     S
C418   C420    1.479   .     S
C418   C432    1.428   .     A
C418   C426    1.403   .     A
C419   C109    1.328   1_565 S
C419   H143    1.088   1_565 S
C420   O462    1.311   .     A
C420   O463    1.296   .     A
C421   C422    1.427   .     S
C422   O464    1.288   .     A
C422   O465    1.294   .     A
C423   O467    1.313   .     A
C423   C425    1.476   .     S
C423   O466    1.293   .     A
C424   C438    1.405   .     A
C424   C902    1.409   1_554 S
C424   O364    1.381   1_655 S
C425   C438    1.400   .     A
C425   C437    1.412   .     A
C426   C427    1.391   .     A
C426   H448    1.083   .     S
C427   C897    1.393   .     S
C428   C432    1.419   .     A
C428   C897    1.409   .     S
C428   C901    1.415   .     S
C429   H452    1.079   .     S
C429   C896    1.409   1_554 S
C429   C895    1.393   1_554 S
C430   H442    1.113   .     S
C430   O468    1.410   .     S
C430   H911    1.113   1_554 S
C430   H912    1.109   1_554 S
C431   H447    1.105   .     S
C431   O460    1.405   .     S
C431   H445    1.104   .     S
C431   H446    1.111   .     S
C432   C436    1.417   .     A
C433   C437    1.401   .     A
C433   C896    1.415   1_554 S
C433   C902    1.411   1_554 S
C434   C435    1.395   .     A
C434   C901    1.411   .     S
C434   C892    1.409   .     S
C435   C436    1.392   .     A
C435   H451    1.083   .     S
C436   H454    1.079   .     S
C437   O460    1.387   .     S
C438   H456    1.070   .     S
Cu439  Cu440   2.698   .     S
Cu439  O462    1.926   .     S
Cu439  N458    2.027   .     S
Cu439  O466    1.912   .     S
Cu439  O464    1.949   .     S
Cu439  O459    1.954   .     S
Cu440  O463    1.912   .     S
Cu440  O467    1.926   .     S
Cu440  N457    2.027   .     S
Cu440  O461    1.949   .     S
Cu440  O465    1.954   .     S
H441   C109    1.088   1_565 S
H443   C898    1.113   .     S
H444   C898    1.109   .     S
H450   N354    1.029   1_655 S
H453   C323    1.083   1_655 S
N457   H345    1.029   1_655 S
N457   N354    1.291   1_655 S
C469   O513    1.288   .     A
C469   O511    1.294   .     A
C469   C471    1.427   .     S
C470   C472    1.479   .     S
C470   C484    1.428   .     A
C470   C478    1.403   .     A
C471   C629    1.328   .     S
C471   H663    1.088   .     S
C472   O514    1.311   .     A
C472   O515    1.296   .     A
C473   C474    1.427   .     S
C473   C783    1.328   1_545 S
C473   H805    1.088   1_545 S
C474   O516    1.288   .     A
C474   O517    1.294   .     A
C475   O519    1.313   .     A
C475   C477    1.476   .     S
C475   O518    1.293   .     A
C476   C490    1.405   .     A
C476   O572    1.381   .     S
C477   C490    1.400   .     A
C477   C489    1.412   .     A
C478   C479    1.391   .     A
C478   H500    1.083   .     S
C479   C13     1.393   1_556 S
C479   H609    1.083   1_455 S
C480   C484    1.419   .     A
C480   C13     1.409   1_556 S
C480   C17     1.415   1_556 S
C481   H504    1.079   .     S
C482   H494    1.113   .     S
C482   O520    1.410   .     S
C483   H499    1.105   .     S
C483   O512    1.405   .     S
C483   H497    1.104   .     S
C483   H498    1.111   .     S
C484   C488    1.417   .     A
C485   C489    1.401   .     A
C486   C487    1.395   .     A
C486   C17     1.411   1_556 S
C486   C8      1.409   1_556 S
C487   C488    1.392   .     A
C487   H503    1.083   .     S
C488   H506    1.079   .     S
C489   O512    1.387   .     S
C490   H508    1.070   .     S
Cu491  Cu492   2.698   .     S
Cu491  O514    1.926   .     S
Cu491  N510    2.027   .     S
Cu491  O518    1.912   .     S
Cu491  O516    1.949   .     S
Cu491  O511    1.954   .     S
Cu492  O515    1.912   .     S
Cu492  O519    1.926   .     S
Cu492  N509    2.027   .     S
Cu492  O513    1.949   .     S
Cu492  O517    1.954   .     S
H493   C629    1.088   .     S
H495   C14     1.113   1_556 S
H496   C14     1.109   1_556 S
H501   N613    1.029   1_455 S
H502   N562    1.029   .     S
H505   C531    1.083   .     S
H507   C783    1.088   1_545 S
N509   H553    1.029   .     S
N509   N562    1.291   .     S
N510   N613    1.291   1_455 S
N510   H606    1.029   1_455 S
O520   C580    1.381   1_455 S
C521   O565    1.288   .     A
C521   O563    1.294   .     A
C521   C523    1.427   .     S
C522   C524    1.479   .     S
C522   C536    1.428   .     A
C522   C530    1.403   .     A
C523   C681    1.328   .     S
C523   H715    1.088   .     S
C524   O566    1.311   .     A
C524   O567    1.296   .     A
C525   C526    1.427   .     S
C525   C835    1.328   1_545 S
C525   H857    1.088   1_545 S
C526   O568    1.288   .     A
C526   O569    1.294   .     A
C527   O571    1.313   .     A
C527   C529    1.476   .     S
C527   O570    1.293   .     A
C528   C542    1.405   .     A
C528   O624    1.381   .     S
C529   C542    1.400   .     A
C529   C541    1.412   .     A
C530   C531    1.391   .     A
C530   H552    1.083   .     S
C531   C65     1.393   1_556 S
C532   C536    1.419   .     A
C532   C65     1.409   1_556 S
C532   C69     1.415   1_556 S
C533   H556    1.079   .     S
C534   H546    1.113   .     S
C534   O572    1.410   .     S
C535   H551    1.105   .     S
C535   O564    1.405   .     S
C535   H549    1.104   .     S
C535   H550    1.111   .     S
C536   C540    1.417   .     A
C537   C541    1.401   .     A
C538   C539    1.395   .     A
C538   C69     1.411   1_556 S
C538   C60     1.409   1_556 S
C539   C540    1.392   .     A
C539   H555    1.083   .     S
C540   H558    1.079   .     S
C541   O564    1.387   .     S
C542   H560    1.070   .     S
Cu543  Cu544   2.698   .     S
Cu543  O566    1.926   .     S
Cu543  N562    2.027   .     S
Cu543  O570    1.912   .     S
Cu543  O568    1.949   .     S
Cu543  O563    1.954   .     S
Cu544  O567    1.912   .     S
Cu544  O571    1.926   .     S
Cu544  N561    2.027   .     S
Cu544  O565    1.949   .     S
Cu544  O569    1.954   .     S
H545   C681    1.088   .     S
H547   C66     1.113   1_556 S
H548   C66     1.109   1_556 S
H554   N614    1.029   .     S
H557   C583    1.083   .     S
H559   C835    1.088   1_545 S
N561   H605    1.029   .     S
N561   N614    1.291   .     S
C573   O617    1.288   .     A
C573   O615    1.294   .     A
C573   C575    1.427   .     S
C574   C576    1.479   .     S
C574   C588    1.428   .     A
C574   C582    1.403   .     A
C575   C733    1.328   .     S
C575   H767    1.088   .     S
C576   O618    1.311   .     A
C576   O619    1.296   .     A
C577   C578    1.427   .     S
C577   C887    1.328   1_545 S
C577   H909    1.088   1_545 S
C578   O620    1.288   .     A
C578   O621    1.294   .     A
C579   O623    1.313   .     A
C579   C581    1.476   .     S
C579   O622    1.293   .     A
C580   C594    1.405   .     A
C580   O520    1.381   1_655 S
C581   C594    1.400   .     A
C581   C593    1.412   .     A
C582   C583    1.391   .     A
C582   H604    1.083   .     S
C583   C117    1.393   1_556 S
C584   C588    1.419   .     A
C584   C117    1.409   1_556 S
C584   C121    1.415   1_556 S
C585   H608    1.079   .     S
C586   H598    1.113   .     S
C586   O624    1.410   .     S
C587   H603    1.105   .     S
C587   O616    1.405   .     S
C587   H601    1.104   .     S
C587   H602    1.111   .     S
C588   C592    1.417   .     A
C589   C593    1.401   .     A
C590   C591    1.395   .     A
C590   C121    1.411   1_556 S
C590   C112    1.409   1_556 S
C591   C592    1.392   .     A
C591   H607    1.083   .     S
C592   H610    1.079   .     S
C593   O616    1.387   .     S
C594   H612    1.070   .     S
Cu595  Cu596   2.698   .     S
Cu595  O618    1.926   .     S
Cu595  N614    2.027   .     S
Cu595  O622    1.912   .     S
Cu595  O620    1.949   .     S
Cu595  O615    1.954   .     S
Cu596  O619    1.912   .     S
Cu596  O623    1.926   .     S
Cu596  N613    2.027   .     S
Cu596  O617    1.949   .     S
Cu596  O621    1.954   .     S
H597   C733    1.088   .     S
H599   C118    1.113   1_556 S
H600   C118    1.109   1_556 S
H606   N510    1.029   1_655 S
H609   C479    1.083   1_655 S
H611   C887    1.088   1_545 S
N613   H501    1.029   1_655 S
N613   N510    1.291   1_655 S
C625   O669    1.288   .     A
C625   O667    1.294   .     A
C625   C627    1.427   .     S
C626   C628    1.479   .     S
C626   C640    1.428   .     A
C626   C634    1.403   .     A
C627   C785    1.328   .     S
C627   H819    1.088   .     S
C628   O670    1.311   .     A
C628   O671    1.296   .     A
C629   C630    1.427   .     S
C630   O672    1.288   .     A
C630   O673    1.294   .     A
C631   O675    1.313   .     A
C631   C633    1.476   .     S
C631   O674    1.293   .     A
C632   C646    1.405   .     A
C632   O728    1.381   .     S
C633   C646    1.400   .     A
C633   C645    1.412   .     A
C634   C635    1.391   .     A
C634   H656    1.083   .     S
C635   C169    1.393   1_556 S
C635   H765    1.083   1_455 S
C636   C640    1.419   .     A
C636   C169    1.409   1_556 S
C636   C173    1.415   1_556 S
C637   H660    1.079   .     S
C638   H650    1.113   .     S
C638   O676    1.410   .     S
C639   H655    1.105   .     S
C639   O668    1.405   .     S
C639   H653    1.104   .     S
C639   H654    1.111   .     S
C640   C644    1.417   .     A
C641   C645    1.401   .     A
C642   C643    1.395   .     A
C642   C173    1.411   1_556 S
C642   C164    1.409   1_556 S
C643   C644    1.392   .     A
C643   H659    1.083   .     S
C644   H662    1.079   .     S
C645   O668    1.387   .     S
C646   H664    1.070   .     S
Cu647  Cu648   2.698   .     S
Cu647  O670    1.926   .     S
Cu647  N666    2.027   .     S
Cu647  O674    1.912   .     S
Cu647  O672    1.949   .     S
Cu647  O667    1.954   .     S
Cu648  O671    1.912   .     S
Cu648  O675    1.926   .     S
Cu648  N665    2.027   .     S
Cu648  O669    1.949   .     S
Cu648  O673    1.954   .     S
H649   C785    1.088   .     S
H651   C170    1.113   1_556 S
H652   C170    1.109   1_556 S
H657   N769    1.029   1_455 S
H658   N718    1.029   .     S
H661   C687    1.083   .     S
N665   H709    1.029   .     S
N665   N718    1.291   .     S
N666   N769    1.291   1_455 S
N666   H762    1.029   1_455 S
O676   C736    1.381   1_455 S
C677   O721    1.288   .     A
C677   O719    1.294   .     A
C677   C679    1.427   .     S
C678   C680    1.479   .     S
C678   C692    1.428   .     A
C678   C686    1.403   .     A
C679   C837    1.328   .     S
C679   H871    1.088   .     S
C680   O722    1.311   .     A
C680   O723    1.296   .     A
C681   C682    1.427   .     S
C682   O724    1.288   .     A
C682   O725    1.294   .     A
C683   O727    1.313   .     A
C683   C685    1.476   .     S
C683   O726    1.293   .     A
C684   C698    1.405   .     A
C684   O780    1.381   .     S
C685   C698    1.400   .     A
C685   C697    1.412   .     A
C686   C687    1.391   .     A
C686   H708    1.083   .     S
C687   C221    1.393   1_556 S
C688   C692    1.419   .     A
C688   C221    1.409   1_556 S
C688   C225    1.415   1_556 S
C689   H712    1.079   .     S
C690   H702    1.113   .     S
C690   O728    1.410   .     S
C691   H707    1.105   .     S
C691   O720    1.405   .     S
C691   H705    1.104   .     S
C691   H706    1.111   .     S
C692   C696    1.417   .     A
C693   C697    1.401   .     A
C694   C695    1.395   .     A
C694   C225    1.411   1_556 S
C694   C216    1.409   1_556 S
C695   C696    1.392   .     A
C695   H711    1.083   .     S
C696   H714    1.079   .     S
C697   O720    1.387   .     S
C698   H716    1.070   .     S
Cu699  Cu700   2.698   .     S
Cu699  O722    1.926   .     S
Cu699  N718    2.027   .     S
Cu699  O726    1.912   .     S
Cu699  O724    1.949   .     S
Cu699  O719    1.954   .     S
Cu700  O723    1.912   .     S
Cu700  O727    1.926   .     S
Cu700  N717    2.027   .     S
Cu700  O721    1.949   .     S
Cu700  O725    1.954   .     S
H701   C837    1.088   .     S
H703   C222    1.113   1_556 S
H704   C222    1.109   1_556 S
H710   N770    1.029   .     S
H713   C739    1.083   .     S
N717   H761    1.029   .     S
N717   N770    1.291   .     S
C729   O773    1.288   .     A
C729   O771    1.294   .     A
C729   C731    1.427   .     S
C730   C732    1.479   .     S
C730   C744    1.428   .     A
C730   C738    1.403   .     A
C731   C889    1.328   .     S
C731   H923    1.088   .     S
C732   O774    1.311   .     A
C732   O775    1.296   .     A
C733   C734    1.427   .     S
C734   O776    1.288   .     A
C734   O777    1.294   .     A
C735   O779    1.313   .     A
C735   C737    1.476   .     S
C735   O778    1.293   .     A
C736   C750    1.405   .     A
C736   O676    1.381   1_655 S
C737   C750    1.400   .     A
C737   C749    1.412   .     A
C738   C739    1.391   .     A
C738   H760    1.083   .     S
C739   C273    1.393   1_556 S
C740   C744    1.419   .     A
C740   C273    1.409   1_556 S
C740   C277    1.415   1_556 S
C741   H764    1.079   .     S
C742   H754    1.113   .     S
C742   O780    1.410   .     S
C743   H759    1.105   .     S
C743   O772    1.405   .     S
C743   H757    1.104   .     S
C743   H758    1.111   .     S
C744   C748    1.417   .     A
C745   C749    1.401   .     A
C746   C747    1.395   .     A
C746   C277    1.411   1_556 S
C746   C268    1.409   1_556 S
C747   C748    1.392   .     A
C747   H763    1.083   .     S
C748   H766    1.079   .     S
C749   O772    1.387   .     S
C750   H768    1.070   .     S
Cu751  Cu752   2.698   .     S
Cu751  O774    1.926   .     S
Cu751  N770    2.027   .     S
Cu751  O778    1.912   .     S
Cu751  O776    1.949   .     S
Cu751  O771    1.954   .     S
Cu752  O775    1.912   .     S
Cu752  O779    1.926   .     S
Cu752  N769    2.027   .     S
Cu752  O773    1.949   .     S
Cu752  O777    1.954   .     S
H753   C889    1.088   .     S
H755   C274    1.113   1_556 S
H756   C274    1.109   1_556 S
H762   N666    1.029   1_655 S
H765   C635    1.083   1_655 S
N769   H657    1.029   1_655 S
N769   N666    1.291   1_655 S
C781   O825    1.288   .     A
C781   O823    1.294   .     A
C781   C783    1.427   .     S
C782   C784    1.479   .     S
C782   C796    1.428   .     A
C782   C790    1.403   .     A
C783   C473    1.328   1_565 S
C783   H507    1.088   1_565 S
C784   O826    1.311   .     A
C784   O827    1.296   .     A
C785   C786    1.427   .     S
C786   O828    1.288   .     A
C786   O829    1.294   .     A
C787   O831    1.313   .     A
C787   C789    1.476   .     S
C787   O830    1.293   .     A
C788   C802    1.405   .     A
C788   O884    1.381   .     S
C789   C802    1.400   .     A
C789   C801    1.412   .     A
C790   C791    1.391   .     A
C790   H812    1.083   .     S
C791   C325    1.393   1_556 S
C791   H921    1.083   1_455 S
C792   C796    1.419   .     A
C792   C325    1.409   1_556 S
C792   C329    1.415   1_556 S
C793   H816    1.079   .     S
C794   H806    1.113   .     S
C794   O832    1.410   .     S
C795   H811    1.105   .     S
C795   O824    1.405   .     S
C795   H809    1.104   .     S
C795   H810    1.111   .     S
C796   C800    1.417   .     A
C797   C801    1.401   .     A
C798   C799    1.395   .     A
C798   C329    1.411   1_556 S
C798   C320    1.409   1_556 S
C799   C800    1.392   .     A
C799   H815    1.083   .     S
C800   H818    1.079   .     S
C801   O824    1.387   .     S
C802   H820    1.070   .     S
Cu803  Cu804   2.698   .     S
Cu803  O826    1.926   .     S
Cu803  N822    2.027   .     S
Cu803  O830    1.912   .     S
Cu803  O828    1.949   .     S
Cu803  O823    1.954   .     S
Cu804  O827    1.912   .     S
Cu804  O831    1.926   .     S
Cu804  N821    2.027   .     S
Cu804  O825    1.949   .     S
Cu804  O829    1.954   .     S
H805   C473    1.088   1_565 S
H807   C326    1.113   1_556 S
H808   C326    1.109   1_556 S
H813   N925    1.029   1_455 S
H814   N874    1.029   .     S
H817   C843    1.083   .     S
N821   H865    1.029   .     S
N821   N874    1.291   .     S
N822   N925    1.291   1_455 S
N822   H918    1.029   1_455 S
O832   C892    1.381   1_455 S
C833   O877    1.288   .     A
C833   O875    1.294   .     A
C833   C835    1.427   .     S
C834   C836    1.479   .     S
C834   C848    1.428   .     A
C834   C842    1.403   .     A
C835   C525    1.328   1_565 S
C835   H559    1.088   1_565 S
C836   O878    1.311   .     A
C836   O879    1.296   .     A
C837   C838    1.427   .     S
C838   O880    1.288   .     A
C838   O881    1.294   .     A
C839   O883    1.313   .     A
C839   C841    1.476   .     S
C839   O882    1.293   .     A
C840   C854    1.405   .     A
C840   O936    1.381   .     S
C841   C854    1.400   .     A
C841   C853    1.412   .     A
C842   C843    1.391   .     A
C842   H864    1.083   .     S
C843   C377    1.393   1_556 S
C844   C848    1.419   .     A
C844   C377    1.409   1_556 S
C844   C381    1.415   1_556 S
C845   H868    1.079   .     S
C846   H858    1.113   .     S
C846   O884    1.410   .     S
C847   H863    1.105   .     S
C847   O876    1.405   .     S
C847   H861    1.104   .     S
C847   H862    1.111   .     S
C848   C852    1.417   .     A
C849   C853    1.401   .     A
C850   C851    1.395   .     A
C850   C381    1.411   1_556 S
C850   C372    1.409   1_556 S
C851   C852    1.392   .     A
C851   H867    1.083   .     S
C852   H870    1.079   .     S
C853   O876    1.387   .     S
C854   H872    1.070   .     S
Cu855  Cu856   2.698   .     S
Cu855  O878    1.926   .     S
Cu855  N874    2.027   .     S
Cu855  O882    1.912   .     S
Cu855  O880    1.949   .     S
Cu855  O875    1.954   .     S
Cu856  O879    1.912   .     S
Cu856  O883    1.926   .     S
Cu856  N873    2.027   .     S
Cu856  O877    1.949   .     S
Cu856  O881    1.954   .     S
H857   C525    1.088   1_565 S
H859   C378    1.113   1_556 S
H860   C378    1.109   1_556 S
H866   N926    1.029   .     S
H869   C895    1.083   .     S
N873   H917    1.029   .     S
N873   N926    1.291   .     S
C885   O929    1.288   .     A
C885   O927    1.294   .     A
C885   C887    1.427   .     S
C886   C888    1.479   .     S
C886   C900    1.428   .     A
C886   C894    1.403   .     A
C887   C577    1.328   1_565 S
C887   H611    1.088   1_565 S
C888   O930    1.311   .     A
C888   O931    1.296   .     A
C889   C890    1.427   .     S
C890   O932    1.288   .     A
C890   O933    1.294   .     A
C891   O935    1.313   .     A
C891   C893    1.476   .     S
C891   O934    1.293   .     A
C892   C906    1.405   .     A
C892   O832    1.381   1_655 S
C893   C906    1.400   .     A
C893   C905    1.412   .     A
C894   C895    1.391   .     A
C894   H916    1.083   .     S
C895   C429    1.393   1_556 S
C896   C900    1.419   .     A
C896   C429    1.409   1_556 S
C896   C433    1.415   1_556 S
C897   H920    1.079   .     S
C898   H910    1.113   .     S
C898   O936    1.410   .     S
C899   H915    1.105   .     S
C899   O928    1.405   .     S
C899   H913    1.104   .     S
C899   H914    1.111   .     S
C900   C904    1.417   .     A
C901   C905    1.401   .     A
C902   C903    1.395   .     A
C902   C433    1.411   1_556 S
C902   C424    1.409   1_556 S
C903   C904    1.392   .     A
C903   H919    1.083   .     S
C904   H922    1.079   .     S
C905   O928    1.387   .     S
C906   H924    1.070   .     S
Cu907  Cu908   2.698   .     S
Cu907  O930    1.926   .     S
Cu907  N926    2.027   .     S
Cu907  O934    1.912   .     S
Cu907  O932    1.949   .     S
Cu907  O927    1.954   .     S
Cu908  O931    1.912   .     S
Cu908  O935    1.926   .     S
Cu908  N925    2.027   .     S
Cu908  O929    1.949   .     S
Cu908  O933    1.954   .     S
H909   C577    1.088   1_565 S
H911   C430    1.113   1_556 S
H912   C430    1.109   1_556 S
H918   N822    1.029   1_655 S
H921   C791    1.083   1_655 S
N925   H813    1.029   1_655 S
N925   N822    1.291   1_655 S
