data_str_m2_o10_o18_pcu_sym.98
_audit_creation_date              2020-01-03
_audit_creation_method            'Materials Studio'
_symmetry_space_group_name_H-M    'P1'
_symmetry_Int_Tables_number       1
_symmetry_cell_setting            triclinic
loop_
_symmetry_equiv_pos_as_xyz
  x,y,z
_cell_length_a                    22.3266
_cell_length_b                    25.8981
_cell_length_c                    31.6232
_cell_angle_alpha                 94.3009
_cell_angle_beta                  75.1629
_cell_angle_gamma                 103.1742
loop_
_atom_site_label
_atom_site_type_symbol
_atom_site_fract_x
_atom_site_fract_y
_atom_site_fract_z
_atom_site_U_iso_or_equiv
_atom_site_adp_type
_atom_site_occupancy
C1     C     0.17868   0.26638   0.25701   0.00000  Uiso   1.00
C2     C     0.14850   0.06708   0.25531   0.00000  Uiso   1.00
C3     C     0.09628   0.12237   0.03730   0.00000  Uiso   1.00
C4     C     0.24222   0.19263   0.45895   0.00000  Uiso   1.00
C5     C     0.05353   0.10908   0.01118   0.00000  Uiso   1.00
C6     C     0.28544   0.20442   0.48478   0.00000  Uiso   1.00
C7     C     0.18053   0.32168   0.27124   0.00000  Uiso   1.00
C8     C     0.13349   0.01166   0.26826   0.00000  Uiso   1.00
C9     C     0.12806   0.16260   0.33307   0.00000  Uiso   1.00
C10    C     0.20525   0.17032   0.16685   0.00000  Uiso   1.00
C11    C     0.10468   0.15476   0.38034   0.00000  Uiso   1.00
C12    C     0.22861   0.17438   0.11909   0.00000  Uiso   1.00
C13    C     0.02663   0.11125   0.44221   0.00000  Uiso   1.00
C14    C     0.31091   0.20556   0.05463   0.00000  Uiso   1.00
C15    C     0.04361   0.12561   0.39847   0.00000  Uiso   1.00
C16    C     0.29216   0.19628   0.09943   0.00000  Uiso   1.00
C17    C     0.14761   0.17120   0.40656   0.00000  Uiso   1.00
C18    C     0.18489   0.15920   0.09323   0.00000  Uiso   1.00
C19    C     0.13284   0.15521   0.45021   0.00000  Uiso   1.00
C20    C     0.20278   0.16701   0.04781   0.00000  Uiso   1.00
C21    C     0.07079   0.12534   0.46801   0.00000  Uiso   1.00
C22    C     0.26657   0.19219   0.02895   0.00000  Uiso   1.00
C23    C     0.17801   0.16731   0.47631   0.00000  Uiso   1.00
C24    C     0.15867   0.15233   0.02104   0.00000  Uiso   1.00
Cu25   Cu    0.10737   0.16108   0.24516   0.00000  Uiso   1.00
Cu26   Cu    0.22596   0.17225   0.25483   0.00000  Uiso   1.00
H27    H     0.00638   0.08587   0.02499   0.00000  Uiso   1.00
H28    H     0.00085   0.22352   0.47000   0.00000  Uiso   1.00
H29    H     0.13638   0.14327   0.10977   0.00000  Uiso   1.00
H30    H     0.19274   0.19594   0.39159   0.00000  Uiso   1.00
H31    H     0.32672   0.20811   0.11885   0.00000  Uiso   1.00
H32    H     0.00990   0.11237   0.37855   0.00000  Uiso   1.00
H33    H     0.31261   0.08824   0.45570   0.00000  Uiso   1.00
H34    H     0.02663   0.22403   0.04013   0.00000  Uiso   1.00
H35    H     0.07912   0.10696   0.06989   0.00000  Uiso   1.00
H36    H     0.26156   0.20285   0.42507   0.00000  Uiso   1.00
H37    H     0.33250   0.20151   0.28692   0.00000  Uiso   1.00
H38    H     0.33332   0.13027   0.21397   0.00000  Uiso   1.00
N39    N     0.31506   0.18068   0.26212   0.00000  Uiso   1.00
N40    N     0.01827   0.15265   0.23788   0.00000  Uiso   1.00
O41    O     0.12815   0.23809   0.24686   0.00000  Uiso   1.00
O42    O     0.20518   0.09524   0.25314   0.00000  Uiso   1.00
O43    O     0.22829   0.24753   0.25502   0.00000  Uiso   1.00
O44    O     0.10504   0.08580   0.24498   0.00000  Uiso   1.00
O45    O     0.08851   0.15930   0.30855   0.00000  Uiso   1.00
O46    O     0.24482   0.17403   0.19145   0.00000  Uiso   1.00
O47    O     0.18866   0.16874   0.31671   0.00000  Uiso   1.00
O48    O     0.14468   0.16460   0.18329   0.00000  Uiso   1.00
C49    C     0.23056   0.01533   0.29558   0.00000  Uiso   1.00
C50    C     0.22451   0.31918   0.33718   0.00000  Uiso   1.00
H51    H     0.17637   0.31641   0.35918   0.00000  Uiso   1.00
H52    H     0.23313   0.27866   0.32976   0.00000  Uiso   1.00
H53    H     0.25980   0.00804   0.35486   0.00000  Uiso   1.00
H54    H     0.27810   0.01809   0.27311   0.00000  Uiso   1.00
H55    H     0.22591   0.05582   0.30758   0.00000  Uiso   1.00
C56    C     0.06386   0.31807   0.28502   0.00000  Uiso   1.00
C57    C     0.05024   0.29533   0.33075   0.00000  Uiso   1.00
H58    H     0.07736   0.26440   0.33070   0.00000  Uiso   1.00
H59    H     0.06286   0.32751   0.35427   0.00000  Uiso   1.00
H60    H     0.33252   0.27680   0.34222   0.00000  Uiso   1.00
H61    H     0.03404   0.01419   0.28847   0.00000  Uiso   1.00
H62    H     0.04780   0.28763   0.26148   0.00000  Uiso   1.00
C63    C     0.51201   0.26638   0.25701   0.00000  Uiso   1.00
C64    C     0.48183   0.06708   0.25531   0.00000  Uiso   1.00
C65    C     0.42961   0.12237   0.03730   0.00000  Uiso   1.00
C66    C     0.57555   0.19263   0.45895   0.00000  Uiso   1.00
C67    C     0.38686   0.10908   0.01118   0.00000  Uiso   1.00
C68    C     0.61878   0.20442   0.48478   0.00000  Uiso   1.00
C69    C     0.51386   0.32168   0.27124   0.00000  Uiso   1.00
C70    C     0.46683   0.01166   0.26826   0.00000  Uiso   1.00
C71    C     0.46139   0.16260   0.33307   0.00000  Uiso   1.00
C72    C     0.53859   0.17032   0.16685   0.00000  Uiso   1.00
C73    C     0.43802   0.15476   0.38034   0.00000  Uiso   1.00
C74    C     0.56194   0.17438   0.11909   0.00000  Uiso   1.00
C75    C     0.35997   0.11125   0.44221   0.00000  Uiso   1.00
C76    C     0.64425   0.20556   0.05463   0.00000  Uiso   1.00
C77    C     0.37694   0.12561   0.39847   0.00000  Uiso   1.00
C78    C     0.62550   0.19628   0.09943   0.00000  Uiso   1.00
C79    C     0.48094   0.17120   0.40656   0.00000  Uiso   1.00
C80    C     0.51823   0.15920   0.09323   0.00000  Uiso   1.00
C81    C     0.46617   0.15521   0.45021   0.00000  Uiso   1.00
C82    C     0.53611   0.16701   0.04781   0.00000  Uiso   1.00
C83    C     0.40412   0.12534   0.46801   0.00000  Uiso   1.00
C84    C     0.59990   0.19219   0.02895   0.00000  Uiso   1.00
C85    C     0.51134   0.16731   0.47631   0.00000  Uiso   1.00
C86    C     0.49200   0.15233   0.02104   0.00000  Uiso   1.00
Cu87   Cu    0.44071   0.16108   0.24516   0.00000  Uiso   1.00
Cu88   Cu    0.55929   0.17225   0.25483   0.00000  Uiso   1.00
H89    H     0.33971   0.08587   0.02499   0.00000  Uiso   1.00
H90    H     0.33419   0.22352   0.47000   0.00000  Uiso   1.00
H91    H     0.46971   0.14327   0.10977   0.00000  Uiso   1.00
H92    H     0.52607   0.19594   0.39159   0.00000  Uiso   1.00
H93    H     0.66005   0.20811   0.11885   0.00000  Uiso   1.00
H94    H     0.34323   0.11237   0.37855   0.00000  Uiso   1.00
H95    H     0.64594   0.08824   0.45570   0.00000  Uiso   1.00
H96    H     0.35996   0.22403   0.04013   0.00000  Uiso   1.00
H97    H     0.41246   0.10696   0.06989   0.00000  Uiso   1.00
H98    H     0.59489   0.20285   0.42507   0.00000  Uiso   1.00
H99    H     0.66584   0.20151   0.28692   0.00000  Uiso   1.00
H100   H     0.66665   0.13027   0.21397   0.00000  Uiso   1.00
N101   N     0.64839   0.18068   0.26212   0.00000  Uiso   1.00
N102   N     0.35161   0.15265   0.23788   0.00000  Uiso   1.00
O103   O     0.46148   0.23809   0.24686   0.00000  Uiso   1.00
O104   O     0.53852   0.09524   0.25314   0.00000  Uiso   1.00
O105   O     0.56163   0.24753   0.25502   0.00000  Uiso   1.00
O106   O     0.43837   0.08580   0.24498   0.00000  Uiso   1.00
O107   O     0.42185   0.15930   0.30855   0.00000  Uiso   1.00
O108   O     0.57815   0.17403   0.19145   0.00000  Uiso   1.00
O109   O     0.52199   0.16874   0.31671   0.00000  Uiso   1.00
O110   O     0.47801   0.16460   0.18329   0.00000  Uiso   1.00
C111   C     0.56390   0.01533   0.29558   0.00000  Uiso   1.00
C112   C     0.55785   0.31918   0.33718   0.00000  Uiso   1.00
H113   H     0.50970   0.31641   0.35918   0.00000  Uiso   1.00
H114   H     0.56646   0.27866   0.32976   0.00000  Uiso   1.00
H115   H     0.59313   0.00804   0.35486   0.00000  Uiso   1.00
H116   H     0.61143   0.01809   0.27311   0.00000  Uiso   1.00
H117   H     0.55925   0.05582   0.30758   0.00000  Uiso   1.00
C118   C     0.39719   0.31807   0.28502   0.00000  Uiso   1.00
C119   C     0.38358   0.29533   0.33075   0.00000  Uiso   1.00
H120   H     0.41069   0.26440   0.33070   0.00000  Uiso   1.00
H121   H     0.39620   0.32751   0.35427   0.00000  Uiso   1.00
H122   H     0.66586   0.27680   0.34222   0.00000  Uiso   1.00
H123   H     0.36737   0.01419   0.28847   0.00000  Uiso   1.00
H124   H     0.38113   0.28763   0.26148   0.00000  Uiso   1.00
C125   C     0.84535   0.26638   0.25701   0.00000  Uiso   1.00
C126   C     0.81517   0.06708   0.25531   0.00000  Uiso   1.00
C127   C     0.76294   0.12237   0.03730   0.00000  Uiso   1.00
C128   C     0.90888   0.19263   0.45895   0.00000  Uiso   1.00
C129   C     0.72020   0.10908   0.01118   0.00000  Uiso   1.00
C130   C     0.95211   0.20442   0.48478   0.00000  Uiso   1.00
C131   C     0.84720   0.32168   0.27124   0.00000  Uiso   1.00
C132   C     0.80016   0.01166   0.26826   0.00000  Uiso   1.00
C133   C     0.79472   0.16260   0.33307   0.00000  Uiso   1.00
C134   C     0.87192   0.17032   0.16685   0.00000  Uiso   1.00
C135   C     0.77135   0.15476   0.38034   0.00000  Uiso   1.00
C136   C     0.89527   0.17438   0.11909   0.00000  Uiso   1.00
C137   C     0.69330   0.11125   0.44221   0.00000  Uiso   1.00
C138   C     0.97758   0.20556   0.05463   0.00000  Uiso   1.00
C139   C     0.71027   0.12561   0.39847   0.00000  Uiso   1.00
C140   C     0.95883   0.19628   0.09943   0.00000  Uiso   1.00
C141   C     0.81427   0.17120   0.40656   0.00000  Uiso   1.00
C142   C     0.85156   0.15920   0.09323   0.00000  Uiso   1.00
C143   C     0.79951   0.15521   0.45021   0.00000  Uiso   1.00
C144   C     0.86945   0.16701   0.04781   0.00000  Uiso   1.00
C145   C     0.73745   0.12534   0.46801   0.00000  Uiso   1.00
C146   C     0.93324   0.19219   0.02895   0.00000  Uiso   1.00
C147   C     0.84468   0.16731   0.47631   0.00000  Uiso   1.00
C148   C     0.82533   0.15233   0.02104   0.00000  Uiso   1.00
Cu149  Cu    0.77404   0.16108   0.24516   0.00000  Uiso   1.00
Cu150  Cu    0.89263   0.17225   0.25483   0.00000  Uiso   1.00
H151   H     0.67304   0.08587   0.02499   0.00000  Uiso   1.00
H152   H     0.66752   0.22352   0.47000   0.00000  Uiso   1.00
H153   H     0.80305   0.14327   0.10977   0.00000  Uiso   1.00
H154   H     0.85940   0.19594   0.39159   0.00000  Uiso   1.00
H155   H     0.99339   0.20811   0.11885   0.00000  Uiso   1.00
H156   H     0.67656   0.11237   0.37855   0.00000  Uiso   1.00
H157   H     0.97927   0.08824   0.45570   0.00000  Uiso   1.00
H158   H     0.69330   0.22403   0.04013   0.00000  Uiso   1.00
H159   H     0.74579   0.10696   0.06989   0.00000  Uiso   1.00
H160   H     0.92823   0.20285   0.42507   0.00000  Uiso   1.00
H161   H     0.99917   0.20151   0.28692   0.00000  Uiso   1.00
H162   H     0.99998   0.13027   0.21397   0.00000  Uiso   1.00
N163   N     0.98173   0.18068   0.26212   0.00000  Uiso   1.00
N164   N     0.68494   0.15265   0.23788   0.00000  Uiso   1.00
O165   O     0.79482   0.23809   0.24686   0.00000  Uiso   1.00
O166   O     0.87185   0.09524   0.25314   0.00000  Uiso   1.00
O167   O     0.89496   0.24753   0.25502   0.00000  Uiso   1.00
O168   O     0.77171   0.08580   0.24498   0.00000  Uiso   1.00
O169   O     0.75518   0.15930   0.30855   0.00000  Uiso   1.00
O170   O     0.91149   0.17403   0.19145   0.00000  Uiso   1.00
O171   O     0.85532   0.16874   0.31671   0.00000  Uiso   1.00
O172   O     0.81134   0.16460   0.18329   0.00000  Uiso   1.00
C173   C     0.89723   0.01533   0.29558   0.00000  Uiso   1.00
C174   C     0.89118   0.31918   0.33718   0.00000  Uiso   1.00
H175   H     0.84304   0.31641   0.35918   0.00000  Uiso   1.00
H176   H     0.89980   0.27866   0.32976   0.00000  Uiso   1.00
H177   H     0.92646   0.00804   0.35486   0.00000  Uiso   1.00
H178   H     0.94477   0.01809   0.27311   0.00000  Uiso   1.00
H179   H     0.89258   0.05582   0.30758   0.00000  Uiso   1.00
C180   C     0.73053   0.31807   0.28502   0.00000  Uiso   1.00
C181   C     0.71691   0.29533   0.33075   0.00000  Uiso   1.00
H182   H     0.74402   0.26440   0.33070   0.00000  Uiso   1.00
H183   H     0.72953   0.32751   0.35427   0.00000  Uiso   1.00
H184   H     0.99919   0.27680   0.34222   0.00000  Uiso   1.00
H185   H     0.70071   0.01419   0.28847   0.00000  Uiso   1.00
H186   H     0.71446   0.28763   0.26148   0.00000  Uiso   1.00
C187   C     0.17868   0.59971   0.25701   0.00000  Uiso   1.00
C188   C     0.14850   0.40041   0.25531   0.00000  Uiso   1.00
C189   C     0.09628   0.45571   0.03730   0.00000  Uiso   1.00
C190   C     0.24222   0.52596   0.45895   0.00000  Uiso   1.00
C191   C     0.05353   0.44242   0.01118   0.00000  Uiso   1.00
C192   C     0.28544   0.53775   0.48478   0.00000  Uiso   1.00
C193   C     0.18053   0.65502   0.27124   0.00000  Uiso   1.00
C194   C     0.13349   0.34499   0.26826   0.00000  Uiso   1.00
C195   C     0.12806   0.49593   0.33307   0.00000  Uiso   1.00
C196   C     0.20525   0.50365   0.16685   0.00000  Uiso   1.00
C197   C     0.10468   0.48809   0.38034   0.00000  Uiso   1.00
C198   C     0.22861   0.50771   0.11909   0.00000  Uiso   1.00
C199   C     0.02663   0.44459   0.44221   0.00000  Uiso   1.00
C200   C     0.31091   0.53889   0.05463   0.00000  Uiso   1.00
C201   C     0.04361   0.45894   0.39847   0.00000  Uiso   1.00
C202   C     0.29216   0.52961   0.09943   0.00000  Uiso   1.00
C203   C     0.14761   0.50453   0.40656   0.00000  Uiso   1.00
C204   C     0.18489   0.49253   0.09323   0.00000  Uiso   1.00
C205   C     0.13284   0.48854   0.45021   0.00000  Uiso   1.00
C206   C     0.20278   0.50035   0.04781   0.00000  Uiso   1.00
C207   C     0.07079   0.45868   0.46801   0.00000  Uiso   1.00
C208   C     0.26657   0.52552   0.02895   0.00000  Uiso   1.00
C209   C     0.17801   0.50064   0.47631   0.00000  Uiso   1.00
C210   C     0.15867   0.48567   0.02104   0.00000  Uiso   1.00
Cu211  Cu    0.10737   0.49441   0.24516   0.00000  Uiso   1.00
Cu212  Cu    0.22596   0.50559   0.25483   0.00000  Uiso   1.00
H213   H     0.00638   0.41920   0.02499   0.00000  Uiso   1.00
H214   H     0.00085   0.55685   0.47000   0.00000  Uiso   1.00
H215   H     0.13638   0.47661   0.10977   0.00000  Uiso   1.00
H216   H     0.19274   0.52927   0.39159   0.00000  Uiso   1.00
H217   H     0.32672   0.54144   0.11885   0.00000  Uiso   1.00
H218   H     0.00990   0.44570   0.37855   0.00000  Uiso   1.00
H219   H     0.31261   0.42158   0.45570   0.00000  Uiso   1.00
H220   H     0.02663   0.55736   0.04013   0.00000  Uiso   1.00
H221   H     0.07912   0.44029   0.06989   0.00000  Uiso   1.00
H222   H     0.26156   0.53619   0.42507   0.00000  Uiso   1.00
H223   H     0.33250   0.53484   0.28692   0.00000  Uiso   1.00
H224   H     0.33332   0.46361   0.21397   0.00000  Uiso   1.00
N225   N     0.31506   0.51401   0.26212   0.00000  Uiso   1.00
N226   N     0.01827   0.48599   0.23788   0.00000  Uiso   1.00
O227   O     0.12815   0.57142   0.24686   0.00000  Uiso   1.00
O228   O     0.20518   0.42858   0.25314   0.00000  Uiso   1.00
O229   O     0.22829   0.58086   0.25502   0.00000  Uiso   1.00
O230   O     0.10504   0.41914   0.24498   0.00000  Uiso   1.00
O231   O     0.08851   0.49263   0.30855   0.00000  Uiso   1.00
O232   O     0.24482   0.50737   0.19145   0.00000  Uiso   1.00
O233   O     0.18866   0.50207   0.31671   0.00000  Uiso   1.00
O234   O     0.14468   0.49793   0.18329   0.00000  Uiso   1.00
C235   C     0.23056   0.34866   0.29558   0.00000  Uiso   1.00
C236   C     0.22451   0.65252   0.33718   0.00000  Uiso   1.00
H237   H     0.17637   0.64974   0.35918   0.00000  Uiso   1.00
H238   H     0.23313   0.61199   0.32976   0.00000  Uiso   1.00
H239   H     0.25980   0.34138   0.35486   0.00000  Uiso   1.00
H240   H     0.27810   0.35142   0.27311   0.00000  Uiso   1.00
H241   H     0.22591   0.38916   0.30758   0.00000  Uiso   1.00
C242   C     0.06386   0.65140   0.28502   0.00000  Uiso   1.00
C243   C     0.05024   0.62866   0.33075   0.00000  Uiso   1.00
H244   H     0.07736   0.59773   0.33070   0.00000  Uiso   1.00
H245   H     0.06286   0.66084   0.35427   0.00000  Uiso   1.00
H246   H     0.33252   0.61013   0.34222   0.00000  Uiso   1.00
H247   H     0.03404   0.34753   0.28847   0.00000  Uiso   1.00
H248   H     0.04780   0.62097   0.26148   0.00000  Uiso   1.00
C249   C     0.51201   0.59971   0.25701   0.00000  Uiso   1.00
C250   C     0.48183   0.40041   0.25531   0.00000  Uiso   1.00
C251   C     0.42961   0.45571   0.03730   0.00000  Uiso   1.00
C252   C     0.57555   0.52596   0.45895   0.00000  Uiso   1.00
C253   C     0.38686   0.44242   0.01118   0.00000  Uiso   1.00
C254   C     0.61878   0.53775   0.48478   0.00000  Uiso   1.00
C255   C     0.51386   0.65502   0.27124   0.00000  Uiso   1.00
C256   C     0.46683   0.34499   0.26826   0.00000  Uiso   1.00
C257   C     0.46139   0.49593   0.33307   0.00000  Uiso   1.00
C258   C     0.53859   0.50365   0.16685   0.00000  Uiso   1.00
C259   C     0.43802   0.48809   0.38034   0.00000  Uiso   1.00
C260   C     0.56194   0.50771   0.11909   0.00000  Uiso   1.00
C261   C     0.35997   0.44459   0.44221   0.00000  Uiso   1.00
C262   C     0.64425   0.53889   0.05463   0.00000  Uiso   1.00
C263   C     0.37694   0.45894   0.39847   0.00000  Uiso   1.00
C264   C     0.62550   0.52961   0.09943   0.00000  Uiso   1.00
C265   C     0.48094   0.50453   0.40656   0.00000  Uiso   1.00
C266   C     0.51823   0.49253   0.09323   0.00000  Uiso   1.00
C267   C     0.46617   0.48854   0.45021   0.00000  Uiso   1.00
C268   C     0.53611   0.50035   0.04781   0.00000  Uiso   1.00
C269   C     0.40412   0.45868   0.46801   0.00000  Uiso   1.00
C270   C     0.59990   0.52552   0.02895   0.00000  Uiso   1.00
C271   C     0.51134   0.50064   0.47631   0.00000  Uiso   1.00
C272   C     0.49200   0.48567   0.02104   0.00000  Uiso   1.00
Cu273  Cu    0.44071   0.49441   0.24516   0.00000  Uiso   1.00
Cu274  Cu    0.55929   0.50559   0.25483   0.00000  Uiso   1.00
H275   H     0.33971   0.41920   0.02499   0.00000  Uiso   1.00
H276   H     0.33419   0.55685   0.47000   0.00000  Uiso   1.00
H277   H     0.46971   0.47661   0.10977   0.00000  Uiso   1.00
H278   H     0.52607   0.52927   0.39159   0.00000  Uiso   1.00
H279   H     0.66005   0.54144   0.11885   0.00000  Uiso   1.00
H280   H     0.34323   0.44570   0.37855   0.00000  Uiso   1.00
H281   H     0.64594   0.42158   0.45570   0.00000  Uiso   1.00
H282   H     0.35996   0.55736   0.04013   0.00000  Uiso   1.00
H283   H     0.41246   0.44029   0.06989   0.00000  Uiso   1.00
H284   H     0.59489   0.53619   0.42507   0.00000  Uiso   1.00
H285   H     0.66584   0.53484   0.28692   0.00000  Uiso   1.00
H286   H     0.66665   0.46361   0.21397   0.00000  Uiso   1.00
N287   N     0.64839   0.51401   0.26212   0.00000  Uiso   1.00
N288   N     0.35161   0.48599   0.23788   0.00000  Uiso   1.00
O289   O     0.46148   0.57142   0.24686   0.00000  Uiso   1.00
O290   O     0.53852   0.42858   0.25314   0.00000  Uiso   1.00
O291   O     0.56163   0.58086   0.25502   0.00000  Uiso   1.00
O292   O     0.43837   0.41914   0.24498   0.00000  Uiso   1.00
O293   O     0.42185   0.49263   0.30855   0.00000  Uiso   1.00
O294   O     0.57815   0.50737   0.19145   0.00000  Uiso   1.00
O295   O     0.52199   0.50207   0.31671   0.00000  Uiso   1.00
O296   O     0.47801   0.49793   0.18329   0.00000  Uiso   1.00
C297   C     0.56390   0.34866   0.29558   0.00000  Uiso   1.00
C298   C     0.55785   0.65252   0.33718   0.00000  Uiso   1.00
H299   H     0.50970   0.64974   0.35918   0.00000  Uiso   1.00
H300   H     0.56646   0.61199   0.32976   0.00000  Uiso   1.00
H301   H     0.59313   0.34138   0.35486   0.00000  Uiso   1.00
H302   H     0.61143   0.35142   0.27311   0.00000  Uiso   1.00
H303   H     0.55925   0.38916   0.30758   0.00000  Uiso   1.00
C304   C     0.39719   0.65140   0.28502   0.00000  Uiso   1.00
C305   C     0.38358   0.62866   0.33075   0.00000  Uiso   1.00
H306   H     0.41069   0.59773   0.33070   0.00000  Uiso   1.00
H307   H     0.39620   0.66084   0.35427   0.00000  Uiso   1.00
H308   H     0.66586   0.61013   0.34222   0.00000  Uiso   1.00
H309   H     0.36737   0.34753   0.28847   0.00000  Uiso   1.00
H310   H     0.38113   0.62097   0.26148   0.00000  Uiso   1.00
C311   C     0.84535   0.59971   0.25701   0.00000  Uiso   1.00
C312   C     0.81517   0.40041   0.25531   0.00000  Uiso   1.00
C313   C     0.76294   0.45571   0.03730   0.00000  Uiso   1.00
C314   C     0.90888   0.52596   0.45895   0.00000  Uiso   1.00
C315   C     0.72020   0.44242   0.01118   0.00000  Uiso   1.00
C316   C     0.95211   0.53775   0.48478   0.00000  Uiso   1.00
C317   C     0.84720   0.65502   0.27124   0.00000  Uiso   1.00
C318   C     0.80016   0.34499   0.26826   0.00000  Uiso   1.00
C319   C     0.79472   0.49593   0.33307   0.00000  Uiso   1.00
C320   C     0.87192   0.50365   0.16685   0.00000  Uiso   1.00
C321   C     0.77135   0.48809   0.38034   0.00000  Uiso   1.00
C322   C     0.89527   0.50771   0.11909   0.00000  Uiso   1.00
C323   C     0.69330   0.44459   0.44221   0.00000  Uiso   1.00
C324   C     0.97758   0.53889   0.05463   0.00000  Uiso   1.00
C325   C     0.71027   0.45894   0.39847   0.00000  Uiso   1.00
C326   C     0.95883   0.52961   0.09943   0.00000  Uiso   1.00
C327   C     0.81427   0.50453   0.40656   0.00000  Uiso   1.00
C328   C     0.85156   0.49253   0.09323   0.00000  Uiso   1.00
C329   C     0.79951   0.48854   0.45021   0.00000  Uiso   1.00
C330   C     0.86945   0.50035   0.04781   0.00000  Uiso   1.00
C331   C     0.73745   0.45868   0.46801   0.00000  Uiso   1.00
C332   C     0.93324   0.52552   0.02895   0.00000  Uiso   1.00
C333   C     0.84468   0.50064   0.47631   0.00000  Uiso   1.00
C334   C     0.82533   0.48567   0.02104   0.00000  Uiso   1.00
Cu335  Cu    0.77404   0.49441   0.24516   0.00000  Uiso   1.00
Cu336  Cu    0.89263   0.50559   0.25483   0.00000  Uiso   1.00
H337   H     0.67304   0.41920   0.02499   0.00000  Uiso   1.00
H338   H     0.66752   0.55685   0.47000   0.00000  Uiso   1.00
H339   H     0.80305   0.47661   0.10977   0.00000  Uiso   1.00
H340   H     0.85940   0.52927   0.39159   0.00000  Uiso   1.00
H341   H     0.99339   0.54144   0.11885   0.00000  Uiso   1.00
H342   H     0.67656   0.44570   0.37855   0.00000  Uiso   1.00
H343   H     0.97927   0.42158   0.45570   0.00000  Uiso   1.00
H344   H     0.69330   0.55736   0.04013   0.00000  Uiso   1.00
H345   H     0.74579   0.44029   0.06989   0.00000  Uiso   1.00
H346   H     0.92823   0.53619   0.42507   0.00000  Uiso   1.00
H347   H     0.99917   0.53484   0.28692   0.00000  Uiso   1.00
H348   H     0.99998   0.46361   0.21397   0.00000  Uiso   1.00
N349   N     0.98173   0.51401   0.26212   0.00000  Uiso   1.00
N350   N     0.68494   0.48599   0.23788   0.00000  Uiso   1.00
O351   O     0.79482   0.57142   0.24686   0.00000  Uiso   1.00
O352   O     0.87185   0.42858   0.25314   0.00000  Uiso   1.00
O353   O     0.89496   0.58086   0.25502   0.00000  Uiso   1.00
O354   O     0.77171   0.41914   0.24498   0.00000  Uiso   1.00
O355   O     0.75518   0.49263   0.30855   0.00000  Uiso   1.00
O356   O     0.91149   0.50737   0.19145   0.00000  Uiso   1.00
O357   O     0.85532   0.50207   0.31671   0.00000  Uiso   1.00
O358   O     0.81134   0.49793   0.18329   0.00000  Uiso   1.00
C359   C     0.89723   0.34866   0.29558   0.00000  Uiso   1.00
C360   C     0.89118   0.65252   0.33718   0.00000  Uiso   1.00
H361   H     0.84304   0.64974   0.35918   0.00000  Uiso   1.00
H362   H     0.89980   0.61199   0.32976   0.00000  Uiso   1.00
H363   H     0.92646   0.34138   0.35486   0.00000  Uiso   1.00
H364   H     0.94477   0.35142   0.27311   0.00000  Uiso   1.00
H365   H     0.89258   0.38916   0.30758   0.00000  Uiso   1.00
C366   C     0.73053   0.65140   0.28502   0.00000  Uiso   1.00
C367   C     0.71691   0.62866   0.33075   0.00000  Uiso   1.00
H368   H     0.74402   0.59773   0.33070   0.00000  Uiso   1.00
H369   H     0.72953   0.66084   0.35427   0.00000  Uiso   1.00
H370   H     0.99919   0.61013   0.34222   0.00000  Uiso   1.00
H371   H     0.70071   0.34753   0.28847   0.00000  Uiso   1.00
H372   H     0.71446   0.62097   0.26148   0.00000  Uiso   1.00
C373   C     0.17868   0.93304   0.25701   0.00000  Uiso   1.00
C374   C     0.14850   0.73375   0.25531   0.00000  Uiso   1.00
C375   C     0.09628   0.78904   0.03730   0.00000  Uiso   1.00
C376   C     0.24222   0.85930   0.45895   0.00000  Uiso   1.00
C377   C     0.05353   0.77575   0.01118   0.00000  Uiso   1.00
C378   C     0.28544   0.87108   0.48478   0.00000  Uiso   1.00
C379   C     0.18053   0.98835   0.27124   0.00000  Uiso   1.00
C380   C     0.13349   0.67833   0.26826   0.00000  Uiso   1.00
C381   C     0.12806   0.82926   0.33307   0.00000  Uiso   1.00
C382   C     0.20525   0.83699   0.16685   0.00000  Uiso   1.00
C383   C     0.10468   0.82142   0.38034   0.00000  Uiso   1.00
C384   C     0.22861   0.84105   0.11909   0.00000  Uiso   1.00
C385   C     0.02663   0.77792   0.44221   0.00000  Uiso   1.00
C386   C     0.31091   0.87222   0.05463   0.00000  Uiso   1.00
C387   C     0.04361   0.79228   0.39847   0.00000  Uiso   1.00
C388   C     0.29216   0.86294   0.09943   0.00000  Uiso   1.00
C389   C     0.14761   0.83787   0.40656   0.00000  Uiso   1.00
C390   C     0.18489   0.82586   0.09323   0.00000  Uiso   1.00
C391   C     0.13284   0.82187   0.45021   0.00000  Uiso   1.00
C392   C     0.20278   0.83368   0.04781   0.00000  Uiso   1.00
C393   C     0.07079   0.79201   0.46801   0.00000  Uiso   1.00
C394   C     0.26657   0.85886   0.02895   0.00000  Uiso   1.00
C395   C     0.17801   0.83398   0.47631   0.00000  Uiso   1.00
C396   C     0.15867   0.81900   0.02104   0.00000  Uiso   1.00
Cu397  Cu    0.10737   0.82775   0.24516   0.00000  Uiso   1.00
Cu398  Cu    0.22596   0.83892   0.25483   0.00000  Uiso   1.00
H399   H     0.00638   0.75253   0.02499   0.00000  Uiso   1.00
H400   H     0.00085   0.89018   0.47000   0.00000  Uiso   1.00
H401   H     0.13638   0.80994   0.10977   0.00000  Uiso   1.00
H402   H     0.19274   0.86261   0.39159   0.00000  Uiso   1.00
H403   H     0.32672   0.87478   0.11885   0.00000  Uiso   1.00
H404   H     0.00990   0.77903   0.37855   0.00000  Uiso   1.00
H405   H     0.31261   0.75491   0.45570   0.00000  Uiso   1.00
H406   H     0.02663   0.89070   0.04013   0.00000  Uiso   1.00
H407   H     0.07912   0.77363   0.06989   0.00000  Uiso   1.00
H408   H     0.26156   0.86952   0.42507   0.00000  Uiso   1.00
H409   H     0.33250   0.86818   0.28692   0.00000  Uiso   1.00
H410   H     0.33332   0.79694   0.21397   0.00000  Uiso   1.00
N411   N     0.31506   0.84735   0.26212   0.00000  Uiso   1.00
N412   N     0.01827   0.81932   0.23788   0.00000  Uiso   1.00
O413   O     0.12815   0.90476   0.24686   0.00000  Uiso   1.00
O414   O     0.20518   0.76191   0.25314   0.00000  Uiso   1.00
O415   O     0.22829   0.91420   0.25502   0.00000  Uiso   1.00
O416   O     0.10504   0.75247   0.24498   0.00000  Uiso   1.00
O417   O     0.08851   0.82597   0.30855   0.00000  Uiso   1.00
O418   O     0.24482   0.84070   0.19145   0.00000  Uiso   1.00
O419   O     0.18866   0.83540   0.31671   0.00000  Uiso   1.00
O420   O     0.14468   0.83126   0.18329   0.00000  Uiso   1.00
C421   C     0.23056   0.68200   0.29558   0.00000  Uiso   1.00
C422   C     0.22451   0.98585   0.33718   0.00000  Uiso   1.00
H423   H     0.17637   0.98307   0.35918   0.00000  Uiso   1.00
H424   H     0.23313   0.94533   0.32976   0.00000  Uiso   1.00
H425   H     0.25980   0.67471   0.35486   0.00000  Uiso   1.00
H426   H     0.27810   0.68475   0.27311   0.00000  Uiso   1.00
H427   H     0.22591   0.72249   0.30758   0.00000  Uiso   1.00
C428   C     0.06386   0.98473   0.28502   0.00000  Uiso   1.00
C429   C     0.05024   0.96199   0.33075   0.00000  Uiso   1.00
H430   H     0.07736   0.93106   0.33070   0.00000  Uiso   1.00
H431   H     0.06286   0.99418   0.35427   0.00000  Uiso   1.00
H432   H     0.33252   0.94347   0.34222   0.00000  Uiso   1.00
H433   H     0.03404   0.68086   0.28847   0.00000  Uiso   1.00
H434   H     0.04780   0.95430   0.26148   0.00000  Uiso   1.00
C435   C     0.51201   0.93304   0.25701   0.00000  Uiso   1.00
C436   C     0.48183   0.73375   0.25531   0.00000  Uiso   1.00
C437   C     0.42961   0.78904   0.03730   0.00000  Uiso   1.00
C438   C     0.57555   0.85930   0.45895   0.00000  Uiso   1.00
C439   C     0.38686   0.77575   0.01118   0.00000  Uiso   1.00
C440   C     0.61878   0.87108   0.48478   0.00000  Uiso   1.00
C441   C     0.51386   0.98835   0.27124   0.00000  Uiso   1.00
C442   C     0.46683   0.67833   0.26826   0.00000  Uiso   1.00
C443   C     0.46139   0.82926   0.33307   0.00000  Uiso   1.00
C444   C     0.53859   0.83699   0.16685   0.00000  Uiso   1.00
C445   C     0.43802   0.82142   0.38034   0.00000  Uiso   1.00
C446   C     0.56194   0.84105   0.11909   0.00000  Uiso   1.00
C447   C     0.35997   0.77792   0.44221   0.00000  Uiso   1.00
C448   C     0.64425   0.87222   0.05463   0.00000  Uiso   1.00
C449   C     0.37694   0.79228   0.39847   0.00000  Uiso   1.00
C450   C     0.62550   0.86294   0.09943   0.00000  Uiso   1.00
C451   C     0.48094   0.83787   0.40656   0.00000  Uiso   1.00
C452   C     0.51823   0.82586   0.09323   0.00000  Uiso   1.00
C453   C     0.46617   0.82187   0.45021   0.00000  Uiso   1.00
C454   C     0.53611   0.83368   0.04781   0.00000  Uiso   1.00
C455   C     0.40412   0.79201   0.46801   0.00000  Uiso   1.00
C456   C     0.59990   0.85886   0.02895   0.00000  Uiso   1.00
C457   C     0.51134   0.83398   0.47631   0.00000  Uiso   1.00
C458   C     0.49200   0.81900   0.02104   0.00000  Uiso   1.00
Cu459  Cu    0.44071   0.82775   0.24516   0.00000  Uiso   1.00
Cu460  Cu    0.55929   0.83892   0.25483   0.00000  Uiso   1.00
H461   H     0.33971   0.75253   0.02499   0.00000  Uiso   1.00
H462   H     0.33419   0.89018   0.47000   0.00000  Uiso   1.00
H463   H     0.46971   0.80994   0.10977   0.00000  Uiso   1.00
H464   H     0.52607   0.86261   0.39159   0.00000  Uiso   1.00
H465   H     0.66005   0.87478   0.11885   0.00000  Uiso   1.00
H466   H     0.34323   0.77903   0.37855   0.00000  Uiso   1.00
H467   H     0.64594   0.75491   0.45570   0.00000  Uiso   1.00
H468   H     0.35996   0.89070   0.04013   0.00000  Uiso   1.00
H469   H     0.41246   0.77363   0.06989   0.00000  Uiso   1.00
H470   H     0.59489   0.86952   0.42507   0.00000  Uiso   1.00
H471   H     0.66584   0.86818   0.28692   0.00000  Uiso   1.00
H472   H     0.66665   0.79694   0.21397   0.00000  Uiso   1.00
N473   N     0.64839   0.84735   0.26212   0.00000  Uiso   1.00
N474   N     0.35161   0.81932   0.23788   0.00000  Uiso   1.00
O475   O     0.46148   0.90476   0.24686   0.00000  Uiso   1.00
O476   O     0.53852   0.76191   0.25314   0.00000  Uiso   1.00
O477   O     0.56163   0.91420   0.25502   0.00000  Uiso   1.00
O478   O     0.43837   0.75247   0.24498   0.00000  Uiso   1.00
O479   O     0.42185   0.82597   0.30855   0.00000  Uiso   1.00
O480   O     0.57815   0.84070   0.19145   0.00000  Uiso   1.00
O481   O     0.52199   0.83540   0.31671   0.00000  Uiso   1.00
O482   O     0.47801   0.83126   0.18329   0.00000  Uiso   1.00
C483   C     0.56390   0.68200   0.29558   0.00000  Uiso   1.00
C484   C     0.55785   0.98585   0.33718   0.00000  Uiso   1.00
H485   H     0.50970   0.98307   0.35918   0.00000  Uiso   1.00
H486   H     0.56646   0.94533   0.32976   0.00000  Uiso   1.00
H487   H     0.59313   0.67471   0.35486   0.00000  Uiso   1.00
H488   H     0.61143   0.68475   0.27311   0.00000  Uiso   1.00
H489   H     0.55925   0.72249   0.30758   0.00000  Uiso   1.00
C490   C     0.39719   0.98473   0.28502   0.00000  Uiso   1.00
C491   C     0.38358   0.96199   0.33075   0.00000  Uiso   1.00
H492   H     0.41069   0.93106   0.33070   0.00000  Uiso   1.00
H493   H     0.39620   0.99418   0.35427   0.00000  Uiso   1.00
H494   H     0.66586   0.94347   0.34222   0.00000  Uiso   1.00
H495   H     0.36737   0.68086   0.28847   0.00000  Uiso   1.00
H496   H     0.38113   0.95430   0.26148   0.00000  Uiso   1.00
C497   C     0.84535   0.93304   0.25701   0.00000  Uiso   1.00
C498   C     0.81517   0.73375   0.25531   0.00000  Uiso   1.00
C499   C     0.76294   0.78904   0.03730   0.00000  Uiso   1.00
C500   C     0.90888   0.85930   0.45895   0.00000  Uiso   1.00
C501   C     0.72020   0.77575   0.01118   0.00000  Uiso   1.00
C502   C     0.95211   0.87108   0.48478   0.00000  Uiso   1.00
C503   C     0.84720   0.98835   0.27124   0.00000  Uiso   1.00
C504   C     0.80016   0.67833   0.26826   0.00000  Uiso   1.00
C505   C     0.79472   0.82926   0.33307   0.00000  Uiso   1.00
C506   C     0.87192   0.83699   0.16685   0.00000  Uiso   1.00
C507   C     0.77135   0.82142   0.38034   0.00000  Uiso   1.00
C508   C     0.89527   0.84105   0.11909   0.00000  Uiso   1.00
C509   C     0.69330   0.77792   0.44221   0.00000  Uiso   1.00
C510   C     0.97758   0.87222   0.05463   0.00000  Uiso   1.00
C511   C     0.71027   0.79228   0.39847   0.00000  Uiso   1.00
C512   C     0.95883   0.86294   0.09943   0.00000  Uiso   1.00
C513   C     0.81427   0.83787   0.40656   0.00000  Uiso   1.00
C514   C     0.85156   0.82586   0.09323   0.00000  Uiso   1.00
C515   C     0.79951   0.82187   0.45021   0.00000  Uiso   1.00
C516   C     0.86945   0.83368   0.04781   0.00000  Uiso   1.00
C517   C     0.73745   0.79201   0.46801   0.00000  Uiso   1.00
C518   C     0.93324   0.85886   0.02895   0.00000  Uiso   1.00
C519   C     0.84468   0.83398   0.47631   0.00000  Uiso   1.00
C520   C     0.82533   0.81900   0.02104   0.00000  Uiso   1.00
Cu521  Cu    0.77404   0.82775   0.24516   0.00000  Uiso   1.00
Cu522  Cu    0.89263   0.83892   0.25483   0.00000  Uiso   1.00
H523   H     0.67304   0.75253   0.02499   0.00000  Uiso   1.00
H524   H     0.66752   0.89018   0.47000   0.00000  Uiso   1.00
H525   H     0.80305   0.80994   0.10977   0.00000  Uiso   1.00
H526   H     0.85940   0.86261   0.39159   0.00000  Uiso   1.00
H527   H     0.99339   0.87478   0.11885   0.00000  Uiso   1.00
H528   H     0.67656   0.77903   0.37855   0.00000  Uiso   1.00
H529   H     0.97927   0.75491   0.45570   0.00000  Uiso   1.00
H530   H     0.69330   0.89070   0.04013   0.00000  Uiso   1.00
H531   H     0.74579   0.77363   0.06989   0.00000  Uiso   1.00
H532   H     0.92823   0.86952   0.42507   0.00000  Uiso   1.00
H533   H     0.99917   0.86818   0.28692   0.00000  Uiso   1.00
H534   H     0.99998   0.79694   0.21397   0.00000  Uiso   1.00
N535   N     0.98173   0.84735   0.26212   0.00000  Uiso   1.00
N536   N     0.68494   0.81932   0.23788   0.00000  Uiso   1.00
O537   O     0.79482   0.90476   0.24686   0.00000  Uiso   1.00
O538   O     0.87185   0.76191   0.25314   0.00000  Uiso   1.00
O539   O     0.89496   0.91420   0.25502   0.00000  Uiso   1.00
O540   O     0.77171   0.75247   0.24498   0.00000  Uiso   1.00
O541   O     0.75518   0.82597   0.30855   0.00000  Uiso   1.00
O542   O     0.91149   0.84070   0.19145   0.00000  Uiso   1.00
O543   O     0.85532   0.83540   0.31671   0.00000  Uiso   1.00
O544   O     0.81134   0.83126   0.18329   0.00000  Uiso   1.00
C545   C     0.89723   0.68200   0.29558   0.00000  Uiso   1.00
C546   C     0.89118   0.98585   0.33718   0.00000  Uiso   1.00
H547   H     0.84304   0.98307   0.35918   0.00000  Uiso   1.00
H548   H     0.89980   0.94533   0.32976   0.00000  Uiso   1.00
H549   H     0.92646   0.67471   0.35486   0.00000  Uiso   1.00
H550   H     0.94477   0.68475   0.27311   0.00000  Uiso   1.00
H551   H     0.89258   0.72249   0.30758   0.00000  Uiso   1.00
C552   C     0.73053   0.98473   0.28502   0.00000  Uiso   1.00
C553   C     0.71691   0.96199   0.33075   0.00000  Uiso   1.00
H554   H     0.74402   0.93106   0.33070   0.00000  Uiso   1.00
H555   H     0.72953   0.99418   0.35427   0.00000  Uiso   1.00
H556   H     0.99919   0.94347   0.34222   0.00000  Uiso   1.00
H557   H     0.70071   0.68086   0.28847   0.00000  Uiso   1.00
H558   H     0.71446   0.95430   0.26148   0.00000  Uiso   1.00
C559   C     0.17868   0.26638   0.75701   0.00000  Uiso   1.00
C560   C     0.14850   0.06708   0.75531   0.00000  Uiso   1.00
C561   C     0.09628   0.12237   0.53730   0.00000  Uiso   1.00
C562   C     0.24222   0.19263   0.95895   0.00000  Uiso   1.00
C563   C     0.05353   0.10908   0.51118   0.00000  Uiso   1.00
C564   C     0.28544   0.20442   0.98478   0.00000  Uiso   1.00
C565   C     0.18053   0.32168   0.77124   0.00000  Uiso   1.00
C566   C     0.13349   0.01166   0.76826   0.00000  Uiso   1.00
C567   C     0.12806   0.16260   0.83307   0.00000  Uiso   1.00
C568   C     0.20525   0.17032   0.66685   0.00000  Uiso   1.00
C569   C     0.10468   0.15476   0.88034   0.00000  Uiso   1.00
C570   C     0.22861   0.17438   0.61909   0.00000  Uiso   1.00
C571   C     0.02663   0.11125   0.94221   0.00000  Uiso   1.00
C572   C     0.31091   0.20556   0.55463   0.00000  Uiso   1.00
C573   C     0.04361   0.12561   0.89847   0.00000  Uiso   1.00
C574   C     0.29216   0.19628   0.59943   0.00000  Uiso   1.00
C575   C     0.14761   0.17120   0.90656   0.00000  Uiso   1.00
C576   C     0.18489   0.15920   0.59323   0.00000  Uiso   1.00
C577   C     0.13284   0.15521   0.95021   0.00000  Uiso   1.00
C578   C     0.20278   0.16701   0.54781   0.00000  Uiso   1.00
C579   C     0.07079   0.12534   0.96801   0.00000  Uiso   1.00
C580   C     0.26657   0.19219   0.52895   0.00000  Uiso   1.00
C581   C     0.17801   0.16731   0.97631   0.00000  Uiso   1.00
C582   C     0.15867   0.15233   0.52104   0.00000  Uiso   1.00
Cu583  Cu    0.10737   0.16108   0.74516   0.00000  Uiso   1.00
Cu584  Cu    0.22596   0.17225   0.75483   0.00000  Uiso   1.00
H585   H     0.00638   0.08587   0.52499   0.00000  Uiso   1.00
H586   H     0.00085   0.22352   0.97000   0.00000  Uiso   1.00
H587   H     0.13638   0.14327   0.60977   0.00000  Uiso   1.00
H588   H     0.19274   0.19594   0.89159   0.00000  Uiso   1.00
H589   H     0.32672   0.20811   0.61885   0.00000  Uiso   1.00
H590   H     0.00990   0.11237   0.87855   0.00000  Uiso   1.00
H591   H     0.31261   0.08824   0.95570   0.00000  Uiso   1.00
H592   H     0.02663   0.22403   0.54013   0.00000  Uiso   1.00
H593   H     0.07912   0.10696   0.56989   0.00000  Uiso   1.00
H594   H     0.26156   0.20285   0.92507   0.00000  Uiso   1.00
H595   H     0.33250   0.20151   0.78692   0.00000  Uiso   1.00
H596   H     0.33332   0.13027   0.71397   0.00000  Uiso   1.00
N597   N     0.31506   0.18068   0.76212   0.00000  Uiso   1.00
N598   N     0.01827   0.15265   0.73788   0.00000  Uiso   1.00
O599   O     0.12815   0.23809   0.74686   0.00000  Uiso   1.00
O600   O     0.20518   0.09524   0.75314   0.00000  Uiso   1.00
O601   O     0.22829   0.24753   0.75502   0.00000  Uiso   1.00
O602   O     0.10504   0.08580   0.74498   0.00000  Uiso   1.00
O603   O     0.08851   0.15930   0.80855   0.00000  Uiso   1.00
O604   O     0.24482   0.17403   0.69145   0.00000  Uiso   1.00
O605   O     0.18866   0.16874   0.81671   0.00000  Uiso   1.00
O606   O     0.14468   0.16460   0.68329   0.00000  Uiso   1.00
C607   C     0.23056   0.01533   0.79558   0.00000  Uiso   1.00
C608   C     0.22451   0.31918   0.83718   0.00000  Uiso   1.00
H609   H     0.17637   0.31641   0.85918   0.00000  Uiso   1.00
H610   H     0.23313   0.27866   0.82976   0.00000  Uiso   1.00
H611   H     0.25980   0.00804   0.85486   0.00000  Uiso   1.00
H612   H     0.27810   0.01809   0.77311   0.00000  Uiso   1.00
H613   H     0.22591   0.05582   0.80758   0.00000  Uiso   1.00
C614   C     0.06386   0.31807   0.78502   0.00000  Uiso   1.00
C615   C     0.05024   0.29533   0.83075   0.00000  Uiso   1.00
H616   H     0.07736   0.26440   0.83070   0.00000  Uiso   1.00
H617   H     0.06286   0.32751   0.85427   0.00000  Uiso   1.00
H618   H     0.33252   0.27680   0.84222   0.00000  Uiso   1.00
H619   H     0.03404   0.01419   0.78847   0.00000  Uiso   1.00
H620   H     0.04780   0.28763   0.76148   0.00000  Uiso   1.00
C621   C     0.51201   0.26638   0.75701   0.00000  Uiso   1.00
C622   C     0.48183   0.06708   0.75531   0.00000  Uiso   1.00
C623   C     0.42961   0.12237   0.53730   0.00000  Uiso   1.00
C624   C     0.57555   0.19263   0.95895   0.00000  Uiso   1.00
C625   C     0.38686   0.10908   0.51118   0.00000  Uiso   1.00
C626   C     0.61878   0.20442   0.98478   0.00000  Uiso   1.00
C627   C     0.51386   0.32168   0.77124   0.00000  Uiso   1.00
C628   C     0.46683   0.01166   0.76826   0.00000  Uiso   1.00
C629   C     0.46139   0.16260   0.83307   0.00000  Uiso   1.00
C630   C     0.53859   0.17032   0.66685   0.00000  Uiso   1.00
C631   C     0.43802   0.15476   0.88034   0.00000  Uiso   1.00
C632   C     0.56194   0.17438   0.61909   0.00000  Uiso   1.00
C633   C     0.35997   0.11125   0.94221   0.00000  Uiso   1.00
C634   C     0.64425   0.20556   0.55463   0.00000  Uiso   1.00
C635   C     0.37694   0.12561   0.89847   0.00000  Uiso   1.00
C636   C     0.62550   0.19628   0.59943   0.00000  Uiso   1.00
C637   C     0.48094   0.17120   0.90656   0.00000  Uiso   1.00
C638   C     0.51823   0.15920   0.59323   0.00000  Uiso   1.00
C639   C     0.46617   0.15521   0.95021   0.00000  Uiso   1.00
C640   C     0.53611   0.16701   0.54781   0.00000  Uiso   1.00
C641   C     0.40412   0.12534   0.96801   0.00000  Uiso   1.00
C642   C     0.59990   0.19219   0.52895   0.00000  Uiso   1.00
C643   C     0.51134   0.16731   0.97631   0.00000  Uiso   1.00
C644   C     0.49200   0.15233   0.52104   0.00000  Uiso   1.00
Cu645  Cu    0.44071   0.16108   0.74516   0.00000  Uiso   1.00
Cu646  Cu    0.55929   0.17225   0.75483   0.00000  Uiso   1.00
H647   H     0.33971   0.08587   0.52499   0.00000  Uiso   1.00
H648   H     0.33419   0.22352   0.97000   0.00000  Uiso   1.00
H649   H     0.46971   0.14327   0.60977   0.00000  Uiso   1.00
H650   H     0.52607   0.19594   0.89159   0.00000  Uiso   1.00
H651   H     0.66005   0.20811   0.61885   0.00000  Uiso   1.00
H652   H     0.34323   0.11237   0.87855   0.00000  Uiso   1.00
H653   H     0.64594   0.08824   0.95570   0.00000  Uiso   1.00
H654   H     0.35996   0.22403   0.54013   0.00000  Uiso   1.00
H655   H     0.41246   0.10696   0.56989   0.00000  Uiso   1.00
H656   H     0.59489   0.20285   0.92507   0.00000  Uiso   1.00
H657   H     0.66584   0.20151   0.78692   0.00000  Uiso   1.00
H658   H     0.66665   0.13027   0.71397   0.00000  Uiso   1.00
N659   N     0.64839   0.18068   0.76212   0.00000  Uiso   1.00
N660   N     0.35161   0.15265   0.73788   0.00000  Uiso   1.00
O661   O     0.46148   0.23809   0.74686   0.00000  Uiso   1.00
O662   O     0.53852   0.09524   0.75314   0.00000  Uiso   1.00
O663   O     0.56163   0.24753   0.75502   0.00000  Uiso   1.00
O664   O     0.43837   0.08580   0.74498   0.00000  Uiso   1.00
O665   O     0.42185   0.15930   0.80855   0.00000  Uiso   1.00
O666   O     0.57815   0.17403   0.69145   0.00000  Uiso   1.00
O667   O     0.52199   0.16874   0.81671   0.00000  Uiso   1.00
O668   O     0.47801   0.16460   0.68329   0.00000  Uiso   1.00
C669   C     0.56390   0.01533   0.79558   0.00000  Uiso   1.00
C670   C     0.55785   0.31918   0.83718   0.00000  Uiso   1.00
H671   H     0.50970   0.31641   0.85918   0.00000  Uiso   1.00
H672   H     0.56646   0.27866   0.82976   0.00000  Uiso   1.00
H673   H     0.59313   0.00804   0.85486   0.00000  Uiso   1.00
H674   H     0.61143   0.01809   0.77311   0.00000  Uiso   1.00
H675   H     0.55925   0.05582   0.80758   0.00000  Uiso   1.00
C676   C     0.39719   0.31807   0.78502   0.00000  Uiso   1.00
C677   C     0.38358   0.29533   0.83075   0.00000  Uiso   1.00
H678   H     0.41069   0.26440   0.83070   0.00000  Uiso   1.00
H679   H     0.39620   0.32751   0.85427   0.00000  Uiso   1.00
H680   H     0.66586   0.27680   0.84222   0.00000  Uiso   1.00
H681   H     0.36737   0.01419   0.78847   0.00000  Uiso   1.00
H682   H     0.38113   0.28763   0.76148   0.00000  Uiso   1.00
C683   C     0.84535   0.26638   0.75701   0.00000  Uiso   1.00
C684   C     0.81517   0.06708   0.75531   0.00000  Uiso   1.00
C685   C     0.76294   0.12237   0.53730   0.00000  Uiso   1.00
C686   C     0.90888   0.19263   0.95895   0.00000  Uiso   1.00
C687   C     0.72020   0.10908   0.51118   0.00000  Uiso   1.00
C688   C     0.95211   0.20442   0.98478   0.00000  Uiso   1.00
C689   C     0.84720   0.32168   0.77124   0.00000  Uiso   1.00
C690   C     0.80016   0.01166   0.76826   0.00000  Uiso   1.00
C691   C     0.79472   0.16260   0.83307   0.00000  Uiso   1.00
C692   C     0.87192   0.17032   0.66685   0.00000  Uiso   1.00
C693   C     0.77135   0.15476   0.88034   0.00000  Uiso   1.00
C694   C     0.89527   0.17438   0.61909   0.00000  Uiso   1.00
C695   C     0.69330   0.11125   0.94221   0.00000  Uiso   1.00
C696   C     0.97758   0.20556   0.55463   0.00000  Uiso   1.00
C697   C     0.71027   0.12561   0.89847   0.00000  Uiso   1.00
C698   C     0.95883   0.19628   0.59943   0.00000  Uiso   1.00
C699   C     0.81427   0.17120   0.90656   0.00000  Uiso   1.00
C700   C     0.85156   0.15920   0.59323   0.00000  Uiso   1.00
C701   C     0.79951   0.15521   0.95021   0.00000  Uiso   1.00
C702   C     0.86945   0.16701   0.54781   0.00000  Uiso   1.00
C703   C     0.73745   0.12534   0.96801   0.00000  Uiso   1.00
C704   C     0.93324   0.19219   0.52895   0.00000  Uiso   1.00
C705   C     0.84468   0.16731   0.97631   0.00000  Uiso   1.00
C706   C     0.82533   0.15233   0.52104   0.00000  Uiso   1.00
Cu707  Cu    0.77404   0.16108   0.74516   0.00000  Uiso   1.00
Cu708  Cu    0.89263   0.17225   0.75483   0.00000  Uiso   1.00
H709   H     0.67304   0.08587   0.52499   0.00000  Uiso   1.00
H710   H     0.66752   0.22352   0.97000   0.00000  Uiso   1.00
H711   H     0.80305   0.14327   0.60977   0.00000  Uiso   1.00
H712   H     0.85940   0.19594   0.89159   0.00000  Uiso   1.00
H713   H     0.99339   0.20811   0.61885   0.00000  Uiso   1.00
H714   H     0.67656   0.11237   0.87855   0.00000  Uiso   1.00
H715   H     0.97927   0.08824   0.95570   0.00000  Uiso   1.00
H716   H     0.69330   0.22403   0.54013   0.00000  Uiso   1.00
H717   H     0.74579   0.10696   0.56989   0.00000  Uiso   1.00
H718   H     0.92823   0.20285   0.92507   0.00000  Uiso   1.00
H719   H     0.99917   0.20151   0.78692   0.00000  Uiso   1.00
H720   H     0.99998   0.13027   0.71397   0.00000  Uiso   1.00
N721   N     0.98173   0.18068   0.76212   0.00000  Uiso   1.00
N722   N     0.68494   0.15265   0.73788   0.00000  Uiso   1.00
O723   O     0.79482   0.23809   0.74686   0.00000  Uiso   1.00
O724   O     0.87185   0.09524   0.75314   0.00000  Uiso   1.00
O725   O     0.89496   0.24753   0.75502   0.00000  Uiso   1.00
O726   O     0.77171   0.08580   0.74498   0.00000  Uiso   1.00
O727   O     0.75518   0.15930   0.80855   0.00000  Uiso   1.00
O728   O     0.91149   0.17403   0.69145   0.00000  Uiso   1.00
O729   O     0.85532   0.16874   0.81671   0.00000  Uiso   1.00
O730   O     0.81134   0.16460   0.68329   0.00000  Uiso   1.00
C731   C     0.89723   0.01533   0.79558   0.00000  Uiso   1.00
C732   C     0.89118   0.31918   0.83718   0.00000  Uiso   1.00
H733   H     0.84304   0.31641   0.85918   0.00000  Uiso   1.00
H734   H     0.89980   0.27866   0.82976   0.00000  Uiso   1.00
H735   H     0.92646   0.00804   0.85486   0.00000  Uiso   1.00
H736   H     0.94477   0.01809   0.77311   0.00000  Uiso   1.00
H737   H     0.89258   0.05582   0.80758   0.00000  Uiso   1.00
C738   C     0.73053   0.31807   0.78502   0.00000  Uiso   1.00
C739   C     0.71691   0.29533   0.83075   0.00000  Uiso   1.00
H740   H     0.74402   0.26440   0.83070   0.00000  Uiso   1.00
H741   H     0.72953   0.32751   0.85427   0.00000  Uiso   1.00
H742   H     0.99919   0.27680   0.84222   0.00000  Uiso   1.00
H743   H     0.70071   0.01419   0.78847   0.00000  Uiso   1.00
H744   H     0.71446   0.28763   0.76148   0.00000  Uiso   1.00
C745   C     0.17868   0.59971   0.75701   0.00000  Uiso   1.00
C746   C     0.14850   0.40041   0.75531   0.00000  Uiso   1.00
C747   C     0.09628   0.45571   0.53730   0.00000  Uiso   1.00
C748   C     0.24222   0.52596   0.95895   0.00000  Uiso   1.00
C749   C     0.05353   0.44242   0.51118   0.00000  Uiso   1.00
C750   C     0.28544   0.53775   0.98478   0.00000  Uiso   1.00
C751   C     0.18053   0.65502   0.77124   0.00000  Uiso   1.00
C752   C     0.13349   0.34499   0.76826   0.00000  Uiso   1.00
C753   C     0.12806   0.49593   0.83307   0.00000  Uiso   1.00
C754   C     0.20525   0.50365   0.66685   0.00000  Uiso   1.00
C755   C     0.10468   0.48809   0.88034   0.00000  Uiso   1.00
C756   C     0.22861   0.50771   0.61909   0.00000  Uiso   1.00
C757   C     0.02663   0.44459   0.94221   0.00000  Uiso   1.00
C758   C     0.31091   0.53889   0.55463   0.00000  Uiso   1.00
C759   C     0.04361   0.45894   0.89847   0.00000  Uiso   1.00
C760   C     0.29216   0.52961   0.59943   0.00000  Uiso   1.00
C761   C     0.14761   0.50453   0.90656   0.00000  Uiso   1.00
C762   C     0.18489   0.49253   0.59323   0.00000  Uiso   1.00
C763   C     0.13284   0.48854   0.95021   0.00000  Uiso   1.00
C764   C     0.20278   0.50035   0.54781   0.00000  Uiso   1.00
C765   C     0.07079   0.45868   0.96801   0.00000  Uiso   1.00
C766   C     0.26657   0.52552   0.52895   0.00000  Uiso   1.00
C767   C     0.17801   0.50064   0.97631   0.00000  Uiso   1.00
C768   C     0.15867   0.48567   0.52104   0.00000  Uiso   1.00
Cu769  Cu    0.10737   0.49441   0.74516   0.00000  Uiso   1.00
Cu770  Cu    0.22596   0.50559   0.75483   0.00000  Uiso   1.00
H771   H     0.00638   0.41920   0.52499   0.00000  Uiso   1.00
H772   H     0.00085   0.55685   0.97000   0.00000  Uiso   1.00
H773   H     0.13638   0.47661   0.60977   0.00000  Uiso   1.00
H774   H     0.19274   0.52927   0.89159   0.00000  Uiso   1.00
H775   H     0.32672   0.54144   0.61885   0.00000  Uiso   1.00
H776   H     0.00990   0.44570   0.87855   0.00000  Uiso   1.00
H777   H     0.31261   0.42158   0.95570   0.00000  Uiso   1.00
H778   H     0.02663   0.55736   0.54013   0.00000  Uiso   1.00
H779   H     0.07912   0.44029   0.56989   0.00000  Uiso   1.00
H780   H     0.26156   0.53619   0.92507   0.00000  Uiso   1.00
H781   H     0.33250   0.53484   0.78692   0.00000  Uiso   1.00
H782   H     0.33332   0.46361   0.71397   0.00000  Uiso   1.00
N783   N     0.31506   0.51401   0.76212   0.00000  Uiso   1.00
N784   N     0.01827   0.48599   0.73788   0.00000  Uiso   1.00
O785   O     0.12815   0.57142   0.74686   0.00000  Uiso   1.00
O786   O     0.20518   0.42858   0.75314   0.00000  Uiso   1.00
O787   O     0.22829   0.58086   0.75502   0.00000  Uiso   1.00
O788   O     0.10504   0.41914   0.74498   0.00000  Uiso   1.00
O789   O     0.08851   0.49263   0.80855   0.00000  Uiso   1.00
O790   O     0.24482   0.50737   0.69145   0.00000  Uiso   1.00
O791   O     0.18866   0.50207   0.81671   0.00000  Uiso   1.00
O792   O     0.14468   0.49793   0.68329   0.00000  Uiso   1.00
C793   C     0.23056   0.34866   0.79558   0.00000  Uiso   1.00
C794   C     0.22451   0.65252   0.83718   0.00000  Uiso   1.00
H795   H     0.17637   0.64974   0.85918   0.00000  Uiso   1.00
H796   H     0.23313   0.61199   0.82976   0.00000  Uiso   1.00
H797   H     0.25980   0.34138   0.85486   0.00000  Uiso   1.00
H798   H     0.27810   0.35142   0.77311   0.00000  Uiso   1.00
H799   H     0.22591   0.38916   0.80758   0.00000  Uiso   1.00
C800   C     0.06386   0.65140   0.78502   0.00000  Uiso   1.00
C801   C     0.05024   0.62866   0.83075   0.00000  Uiso   1.00
H802   H     0.07736   0.59773   0.83070   0.00000  Uiso   1.00
H803   H     0.06286   0.66084   0.85427   0.00000  Uiso   1.00
H804   H     0.33252   0.61013   0.84222   0.00000  Uiso   1.00
H805   H     0.03404   0.34753   0.78847   0.00000  Uiso   1.00
H806   H     0.04780   0.62097   0.76148   0.00000  Uiso   1.00
C807   C     0.51201   0.59971   0.75701   0.00000  Uiso   1.00
C808   C     0.48183   0.40041   0.75531   0.00000  Uiso   1.00
C809   C     0.42961   0.45571   0.53730   0.00000  Uiso   1.00
C810   C     0.57555   0.52596   0.95895   0.00000  Uiso   1.00
C811   C     0.38686   0.44242   0.51118   0.00000  Uiso   1.00
C812   C     0.61878   0.53775   0.98478   0.00000  Uiso   1.00
C813   C     0.51386   0.65502   0.77124   0.00000  Uiso   1.00
C814   C     0.46683   0.34499   0.76826   0.00000  Uiso   1.00
C815   C     0.46139   0.49593   0.83307   0.00000  Uiso   1.00
C816   C     0.53859   0.50365   0.66685   0.00000  Uiso   1.00
C817   C     0.43802   0.48809   0.88034   0.00000  Uiso   1.00
C818   C     0.56194   0.50771   0.61909   0.00000  Uiso   1.00
C819   C     0.35997   0.44459   0.94221   0.00000  Uiso   1.00
C820   C     0.64425   0.53889   0.55463   0.00000  Uiso   1.00
C821   C     0.37694   0.45894   0.89847   0.00000  Uiso   1.00
C822   C     0.62550   0.52961   0.59943   0.00000  Uiso   1.00
C823   C     0.48094   0.50453   0.90656   0.00000  Uiso   1.00
C824   C     0.51823   0.49253   0.59323   0.00000  Uiso   1.00
C825   C     0.46617   0.48854   0.95021   0.00000  Uiso   1.00
C826   C     0.53611   0.50035   0.54781   0.00000  Uiso   1.00
C827   C     0.40412   0.45868   0.96801   0.00000  Uiso   1.00
C828   C     0.59990   0.52552   0.52895   0.00000  Uiso   1.00
C829   C     0.51134   0.50064   0.97631   0.00000  Uiso   1.00
C830   C     0.49200   0.48567   0.52104   0.00000  Uiso   1.00
Cu831  Cu    0.44071   0.49441   0.74516   0.00000  Uiso   1.00
Cu832  Cu    0.55929   0.50559   0.75483   0.00000  Uiso   1.00
H833   H     0.33971   0.41920   0.52499   0.00000  Uiso   1.00
H834   H     0.33419   0.55685   0.97000   0.00000  Uiso   1.00
H835   H     0.46971   0.47661   0.60977   0.00000  Uiso   1.00
H836   H     0.52607   0.52927   0.89159   0.00000  Uiso   1.00
H837   H     0.66005   0.54144   0.61885   0.00000  Uiso   1.00
H838   H     0.34323   0.44570   0.87855   0.00000  Uiso   1.00
H839   H     0.64594   0.42158   0.95570   0.00000  Uiso   1.00
H840   H     0.35996   0.55736   0.54013   0.00000  Uiso   1.00
H841   H     0.41246   0.44029   0.56989   0.00000  Uiso   1.00
H842   H     0.59489   0.53619   0.92507   0.00000  Uiso   1.00
H843   H     0.66584   0.53484   0.78692   0.00000  Uiso   1.00
H844   H     0.66665   0.46361   0.71397   0.00000  Uiso   1.00
N845   N     0.64839   0.51401   0.76212   0.00000  Uiso   1.00
N846   N     0.35161   0.48599   0.73788   0.00000  Uiso   1.00
O847   O     0.46148   0.57142   0.74686   0.00000  Uiso   1.00
O848   O     0.53852   0.42858   0.75314   0.00000  Uiso   1.00
O849   O     0.56163   0.58086   0.75502   0.00000  Uiso   1.00
O850   O     0.43837   0.41914   0.74498   0.00000  Uiso   1.00
O851   O     0.42185   0.49263   0.80855   0.00000  Uiso   1.00
O852   O     0.57815   0.50737   0.69145   0.00000  Uiso   1.00
O853   O     0.52199   0.50207   0.81671   0.00000  Uiso   1.00
O854   O     0.47801   0.49793   0.68329   0.00000  Uiso   1.00
C855   C     0.56390   0.34866   0.79558   0.00000  Uiso   1.00
C856   C     0.55785   0.65252   0.83718   0.00000  Uiso   1.00
H857   H     0.50970   0.64974   0.85918   0.00000  Uiso   1.00
H858   H     0.56646   0.61199   0.82976   0.00000  Uiso   1.00
H859   H     0.59313   0.34138   0.85486   0.00000  Uiso   1.00
H860   H     0.61143   0.35142   0.77311   0.00000  Uiso   1.00
H861   H     0.55925   0.38916   0.80758   0.00000  Uiso   1.00
C862   C     0.39719   0.65140   0.78502   0.00000  Uiso   1.00
C863   C     0.38358   0.62866   0.83075   0.00000  Uiso   1.00
H864   H     0.41069   0.59773   0.83070   0.00000  Uiso   1.00
H865   H     0.39620   0.66084   0.85427   0.00000  Uiso   1.00
H866   H     0.66586   0.61013   0.84222   0.00000  Uiso   1.00
H867   H     0.36737   0.34753   0.78847   0.00000  Uiso   1.00
H868   H     0.38113   0.62097   0.76148   0.00000  Uiso   1.00
C869   C     0.84535   0.59971   0.75701   0.00000  Uiso   1.00
C870   C     0.81517   0.40041   0.75531   0.00000  Uiso   1.00
C871   C     0.76294   0.45571   0.53730   0.00000  Uiso   1.00
C872   C     0.90888   0.52596   0.95895   0.00000  Uiso   1.00
C873   C     0.72020   0.44242   0.51118   0.00000  Uiso   1.00
C874   C     0.95211   0.53775   0.98478   0.00000  Uiso   1.00
C875   C     0.84720   0.65502   0.77124   0.00000  Uiso   1.00
C876   C     0.80016   0.34499   0.76826   0.00000  Uiso   1.00
C877   C     0.79472   0.49593   0.83307   0.00000  Uiso   1.00
C878   C     0.87192   0.50365   0.66685   0.00000  Uiso   1.00
C879   C     0.77135   0.48809   0.88034   0.00000  Uiso   1.00
C880   C     0.89527   0.50771   0.61909   0.00000  Uiso   1.00
C881   C     0.69330   0.44459   0.94221   0.00000  Uiso   1.00
C882   C     0.97758   0.53889   0.55463   0.00000  Uiso   1.00
C883   C     0.71027   0.45894   0.89847   0.00000  Uiso   1.00
C884   C     0.95883   0.52961   0.59943   0.00000  Uiso   1.00
C885   C     0.81427   0.50453   0.90656   0.00000  Uiso   1.00
C886   C     0.85156   0.49253   0.59323   0.00000  Uiso   1.00
C887   C     0.79951   0.48854   0.95021   0.00000  Uiso   1.00
C888   C     0.86945   0.50035   0.54781   0.00000  Uiso   1.00
C889   C     0.73745   0.45868   0.96801   0.00000  Uiso   1.00
C890   C     0.93324   0.52552   0.52895   0.00000  Uiso   1.00
C891   C     0.84468   0.50064   0.97631   0.00000  Uiso   1.00
C892   C     0.82533   0.48567   0.52104   0.00000  Uiso   1.00
Cu893  Cu    0.77404   0.49441   0.74516   0.00000  Uiso   1.00
Cu894  Cu    0.89263   0.50559   0.75483   0.00000  Uiso   1.00
H895   H     0.67304   0.41920   0.52499   0.00000  Uiso   1.00
H896   H     0.66752   0.55685   0.97000   0.00000  Uiso   1.00
H897   H     0.80305   0.47661   0.60977   0.00000  Uiso   1.00
H898   H     0.85940   0.52927   0.89159   0.00000  Uiso   1.00
H899   H     0.99339   0.54144   0.61885   0.00000  Uiso   1.00
H900   H     0.67656   0.44570   0.87855   0.00000  Uiso   1.00
H901   H     0.97927   0.42158   0.95570   0.00000  Uiso   1.00
H902   H     0.69330   0.55736   0.54013   0.00000  Uiso   1.00
H903   H     0.74579   0.44029   0.56989   0.00000  Uiso   1.00
H904   H     0.92823   0.53619   0.92507   0.00000  Uiso   1.00
H905   H     0.99917   0.53484   0.78692   0.00000  Uiso   1.00
H906   H     0.99998   0.46361   0.71397   0.00000  Uiso   1.00
N907   N     0.98173   0.51401   0.76212   0.00000  Uiso   1.00
N908   N     0.68494   0.48599   0.73788   0.00000  Uiso   1.00
O909   O     0.79482   0.57142   0.74686   0.00000  Uiso   1.00
O910   O     0.87185   0.42858   0.75314   0.00000  Uiso   1.00
O911   O     0.89496   0.58086   0.75502   0.00000  Uiso   1.00
O912   O     0.77171   0.41914   0.74498   0.00000  Uiso   1.00
O913   O     0.75518   0.49263   0.80855   0.00000  Uiso   1.00
O914   O     0.91149   0.50737   0.69145   0.00000  Uiso   1.00
O915   O     0.85532   0.50207   0.81671   0.00000  Uiso   1.00
O916   O     0.81134   0.49793   0.68329   0.00000  Uiso   1.00
C917   C     0.89723   0.34866   0.79558   0.00000  Uiso   1.00
C918   C     0.89118   0.65252   0.83718   0.00000  Uiso   1.00
H919   H     0.84304   0.64974   0.85918   0.00000  Uiso   1.00
H920   H     0.89980   0.61199   0.82976   0.00000  Uiso   1.00
H921   H     0.92646   0.34138   0.85486   0.00000  Uiso   1.00
H922   H     0.94477   0.35142   0.77311   0.00000  Uiso   1.00
H923   H     0.89258   0.38916   0.80758   0.00000  Uiso   1.00
C924   C     0.73053   0.65140   0.78502   0.00000  Uiso   1.00
C925   C     0.71691   0.62866   0.83075   0.00000  Uiso   1.00
H926   H     0.74402   0.59773   0.83070   0.00000  Uiso   1.00
H927   H     0.72953   0.66084   0.85427   0.00000  Uiso   1.00
H928   H     0.99919   0.61013   0.84222   0.00000  Uiso   1.00
H929   H     0.70071   0.34753   0.78847   0.00000  Uiso   1.00
H930   H     0.71446   0.62097   0.76148   0.00000  Uiso   1.00
C931   C     0.17868   0.93304   0.75701   0.00000  Uiso   1.00
C932   C     0.14850   0.73375   0.75531   0.00000  Uiso   1.00
C933   C     0.09628   0.78904   0.53730   0.00000  Uiso   1.00
C934   C     0.24222   0.85930   0.95895   0.00000  Uiso   1.00
C935   C     0.05353   0.77575   0.51118   0.00000  Uiso   1.00
C936   C     0.28544   0.87108   0.98478   0.00000  Uiso   1.00
C937   C     0.18053   0.98835   0.77124   0.00000  Uiso   1.00
C938   C     0.13349   0.67833   0.76826   0.00000  Uiso   1.00
C939   C     0.12806   0.82926   0.83307   0.00000  Uiso   1.00
C940   C     0.20525   0.83699   0.66685   0.00000  Uiso   1.00
C941   C     0.10468   0.82142   0.88034   0.00000  Uiso   1.00
C942   C     0.22861   0.84105   0.61909   0.00000  Uiso   1.00
C943   C     0.02663   0.77792   0.94221   0.00000  Uiso   1.00
C944   C     0.31091   0.87222   0.55463   0.00000  Uiso   1.00
C945   C     0.04361   0.79228   0.89847   0.00000  Uiso   1.00
C946   C     0.29216   0.86294   0.59943   0.00000  Uiso   1.00
C947   C     0.14761   0.83787   0.90656   0.00000  Uiso   1.00
C948   C     0.18489   0.82586   0.59323   0.00000  Uiso   1.00
C949   C     0.13284   0.82187   0.95021   0.00000  Uiso   1.00
C950   C     0.20278   0.83368   0.54781   0.00000  Uiso   1.00
C951   C     0.07079   0.79201   0.96801   0.00000  Uiso   1.00
C952   C     0.26657   0.85886   0.52895   0.00000  Uiso   1.00
C953   C     0.17801   0.83398   0.97631   0.00000  Uiso   1.00
C954   C     0.15867   0.81900   0.52104   0.00000  Uiso   1.00
Cu955  Cu    0.10737   0.82775   0.74516   0.00000  Uiso   1.00
Cu956  Cu    0.22596   0.83892   0.75483   0.00000  Uiso   1.00
H957   H     0.00638   0.75253   0.52499   0.00000  Uiso   1.00
H958   H     0.00085   0.89018   0.97000   0.00000  Uiso   1.00
H959   H     0.13638   0.80994   0.60977   0.00000  Uiso   1.00
H960   H     0.19274   0.86261   0.89159   0.00000  Uiso   1.00
H961   H     0.32672   0.87478   0.61885   0.00000  Uiso   1.00
H962   H     0.00990   0.77903   0.87855   0.00000  Uiso   1.00
H963   H     0.31261   0.75491   0.95570   0.00000  Uiso   1.00
H964   H     0.02663   0.89070   0.54013   0.00000  Uiso   1.00
H965   H     0.07912   0.77363   0.56989   0.00000  Uiso   1.00
H966   H     0.26156   0.86952   0.92507   0.00000  Uiso   1.00
H967   H     0.33250   0.86818   0.78692   0.00000  Uiso   1.00
H968   H     0.33332   0.79694   0.71397   0.00000  Uiso   1.00
N969   N     0.31506   0.84735   0.76212   0.00000  Uiso   1.00
N970   N     0.01827   0.81932   0.73788   0.00000  Uiso   1.00
O971   O     0.12815   0.90476   0.74686   0.00000  Uiso   1.00
O972   O     0.20518   0.76191   0.75314   0.00000  Uiso   1.00
O973   O     0.22829   0.91420   0.75502   0.00000  Uiso   1.00
O974   O     0.10504   0.75247   0.74498   0.00000  Uiso   1.00
O975   O     0.08851   0.82597   0.80855   0.00000  Uiso   1.00
O976   O     0.24482   0.84070   0.69145   0.00000  Uiso   1.00
O977   O     0.18866   0.83540   0.81671   0.00000  Uiso   1.00
O978   O     0.14468   0.83126   0.68329   0.00000  Uiso   1.00
C979   C     0.23056   0.68200   0.79558   0.00000  Uiso   1.00
C980   C     0.22451   0.98585   0.83718   0.00000  Uiso   1.00
H981   H     0.17637   0.98307   0.85918   0.00000  Uiso   1.00
H982   H     0.23313   0.94533   0.82976   0.00000  Uiso   1.00
H983   H     0.25980   0.67471   0.85486   0.00000  Uiso   1.00
H984   H     0.27810   0.68475   0.77311   0.00000  Uiso   1.00
H985   H     0.22591   0.72249   0.80758   0.00000  Uiso   1.00
C986   C     0.06386   0.98473   0.78502   0.00000  Uiso   1.00
C987   C     0.05024   0.96199   0.83075   0.00000  Uiso   1.00
H988   H     0.07736   0.93106   0.83070   0.00000  Uiso   1.00
H989   H     0.06286   0.99418   0.85427   0.00000  Uiso   1.00
H990   H     0.33252   0.94347   0.84222   0.00000  Uiso   1.00
H991   H     0.03404   0.68086   0.78847   0.00000  Uiso   1.00
H992   H     0.04780   0.95430   0.76148   0.00000  Uiso   1.00
C993   C     0.51201   0.93304   0.75701   0.00000  Uiso   1.00
C994   C     0.48183   0.73375   0.75531   0.00000  Uiso   1.00
C995   C     0.42961   0.78904   0.53730   0.00000  Uiso   1.00
C996   C     0.57555   0.85930   0.95895   0.00000  Uiso   1.00
C997   C     0.38686   0.77575   0.51118   0.00000  Uiso   1.00
C998   C     0.61878   0.87108   0.98478   0.00000  Uiso   1.00
C999   C     0.51386   0.98835   0.77124   0.00000  Uiso   1.00
C1000  C     0.46683   0.67833   0.76826   0.00000  Uiso   1.00
C1001  C     0.46139   0.82926   0.83307   0.00000  Uiso   1.00
C1002  C     0.53859   0.83699   0.66685   0.00000  Uiso   1.00
C1003  C     0.43802   0.82142   0.88034   0.00000  Uiso   1.00
C1004  C     0.56194   0.84105   0.61909   0.00000  Uiso   1.00
C1005  C     0.35997   0.77792   0.94221   0.00000  Uiso   1.00
C1006  C     0.64425   0.87222   0.55463   0.00000  Uiso   1.00
C1007  C     0.37694   0.79228   0.89847   0.00000  Uiso   1.00
C1008  C     0.62550   0.86294   0.59943   0.00000  Uiso   1.00
C1009  C     0.48094   0.83787   0.90656   0.00000  Uiso   1.00
C1010  C     0.51823   0.82586   0.59323   0.00000  Uiso   1.00
C1011  C     0.46617   0.82187   0.95021   0.00000  Uiso   1.00
C1012  C     0.53611   0.83368   0.54781   0.00000  Uiso   1.00
C1013  C     0.40412   0.79201   0.96801   0.00000  Uiso   1.00
C1014  C     0.59990   0.85886   0.52895   0.00000  Uiso   1.00
C1015  C     0.51134   0.83398   0.97631   0.00000  Uiso   1.00
C1016  C     0.49200   0.81900   0.52104   0.00000  Uiso   1.00
Cu1017 Cu    0.44071   0.82775   0.74516   0.00000  Uiso   1.00
Cu1018 Cu    0.55929   0.83892   0.75483   0.00000  Uiso   1.00
H1019  H     0.33971   0.75253   0.52499   0.00000  Uiso   1.00
H1020  H     0.33419   0.89018   0.97000   0.00000  Uiso   1.00
H1021  H     0.46971   0.80994   0.60977   0.00000  Uiso   1.00
H1022  H     0.52607   0.86261   0.89159   0.00000  Uiso   1.00
H1023  H     0.66005   0.87478   0.61885   0.00000  Uiso   1.00
H1024  H     0.34323   0.77903   0.87855   0.00000  Uiso   1.00
H1025  H     0.64594   0.75491   0.95570   0.00000  Uiso   1.00
H1026  H     0.35996   0.89070   0.54013   0.00000  Uiso   1.00
H1027  H     0.41246   0.77363   0.56989   0.00000  Uiso   1.00
H1028  H     0.59489   0.86952   0.92507   0.00000  Uiso   1.00
H1029  H     0.66584   0.86818   0.78692   0.00000  Uiso   1.00
H1030  H     0.66665   0.79694   0.71397   0.00000  Uiso   1.00
N1031  N     0.64839   0.84735   0.76212   0.00000  Uiso   1.00
N1032  N     0.35161   0.81932   0.73788   0.00000  Uiso   1.00
O1033  O     0.46148   0.90476   0.74686   0.00000  Uiso   1.00
O1034  O     0.53852   0.76191   0.75314   0.00000  Uiso   1.00
O1035  O     0.56163   0.91420   0.75502   0.00000  Uiso   1.00
O1036  O     0.43837   0.75247   0.74498   0.00000  Uiso   1.00
O1037  O     0.42185   0.82597   0.80855   0.00000  Uiso   1.00
O1038  O     0.57815   0.84070   0.69145   0.00000  Uiso   1.00
O1039  O     0.52199   0.83540   0.81671   0.00000  Uiso   1.00
O1040  O     0.47801   0.83126   0.68329   0.00000  Uiso   1.00
C1041  C     0.56390   0.68200   0.79558   0.00000  Uiso   1.00
C1042  C     0.55785   0.98585   0.83718   0.00000  Uiso   1.00
H1043  H     0.50970   0.98307   0.85918   0.00000  Uiso   1.00
H1044  H     0.56646   0.94533   0.82976   0.00000  Uiso   1.00
H1045  H     0.59313   0.67471   0.85486   0.00000  Uiso   1.00
H1046  H     0.61143   0.68475   0.77311   0.00000  Uiso   1.00
H1047  H     0.55925   0.72249   0.80758   0.00000  Uiso   1.00
C1048  C     0.39719   0.98473   0.78502   0.00000  Uiso   1.00
C1049  C     0.38358   0.96199   0.83075   0.00000  Uiso   1.00
H1050  H     0.41069   0.93106   0.83070   0.00000  Uiso   1.00
H1051  H     0.39620   0.99418   0.85427   0.00000  Uiso   1.00
H1052  H     0.66586   0.94347   0.84222   0.00000  Uiso   1.00
H1053  H     0.36737   0.68086   0.78847   0.00000  Uiso   1.00
H1054  H     0.38113   0.95430   0.76148   0.00000  Uiso   1.00
C1055  C     0.84535   0.93304   0.75701   0.00000  Uiso   1.00
C1056  C     0.81517   0.73375   0.75531   0.00000  Uiso   1.00
C1057  C     0.76294   0.78904   0.53730   0.00000  Uiso   1.00
C1058  C     0.90888   0.85930   0.95895   0.00000  Uiso   1.00
C1059  C     0.72020   0.77575   0.51118   0.00000  Uiso   1.00
C1060  C     0.95211   0.87108   0.98478   0.00000  Uiso   1.00
C1061  C     0.84720   0.98835   0.77124   0.00000  Uiso   1.00
C1062  C     0.80016   0.67833   0.76826   0.00000  Uiso   1.00
C1063  C     0.79472   0.82926   0.83307   0.00000  Uiso   1.00
C1064  C     0.87192   0.83699   0.66685   0.00000  Uiso   1.00
C1065  C     0.77135   0.82142   0.88034   0.00000  Uiso   1.00
C1066  C     0.89527   0.84105   0.61909   0.00000  Uiso   1.00
C1067  C     0.69330   0.77792   0.94221   0.00000  Uiso   1.00
C1068  C     0.97758   0.87222   0.55463   0.00000  Uiso   1.00
C1069  C     0.71027   0.79228   0.89847   0.00000  Uiso   1.00
C1070  C     0.95883   0.86294   0.59943   0.00000  Uiso   1.00
C1071  C     0.81427   0.83787   0.90656   0.00000  Uiso   1.00
C1072  C     0.85156   0.82586   0.59323   0.00000  Uiso   1.00
C1073  C     0.79951   0.82187   0.95021   0.00000  Uiso   1.00
C1074  C     0.86945   0.83368   0.54781   0.00000  Uiso   1.00
C1075  C     0.73745   0.79201   0.96801   0.00000  Uiso   1.00
C1076  C     0.93324   0.85886   0.52895   0.00000  Uiso   1.00
C1077  C     0.84468   0.83398   0.97631   0.00000  Uiso   1.00
C1078  C     0.82533   0.81900   0.52104   0.00000  Uiso   1.00
Cu1079 Cu    0.77404   0.82775   0.74516   0.00000  Uiso   1.00
Cu1080 Cu    0.89263   0.83892   0.75483   0.00000  Uiso   1.00
H1081  H     0.67304   0.75253   0.52499   0.00000  Uiso   1.00
H1082  H     0.66752   0.89018   0.97000   0.00000  Uiso   1.00
H1083  H     0.80305   0.80994   0.60977   0.00000  Uiso   1.00
H1084  H     0.85940   0.86261   0.89159   0.00000  Uiso   1.00
H1085  H     0.99339   0.87478   0.61885   0.00000  Uiso   1.00
H1086  H     0.67656   0.77903   0.87855   0.00000  Uiso   1.00
H1087  H     0.97927   0.75491   0.95570   0.00000  Uiso   1.00
H1088  H     0.69330   0.89070   0.54013   0.00000  Uiso   1.00
H1089  H     0.74579   0.77363   0.56989   0.00000  Uiso   1.00
H1090  H     0.92823   0.86952   0.92507   0.00000  Uiso   1.00
H1091  H     0.99917   0.86818   0.78692   0.00000  Uiso   1.00
H1092  H     0.99998   0.79694   0.71397   0.00000  Uiso   1.00
N1093  N     0.98173   0.84735   0.76212   0.00000  Uiso   1.00
N1094  N     0.68494   0.81932   0.73788   0.00000  Uiso   1.00
O1095  O     0.79482   0.90476   0.74686   0.00000  Uiso   1.00
O1096  O     0.87185   0.76191   0.75314   0.00000  Uiso   1.00
O1097  O     0.89496   0.91420   0.75502   0.00000  Uiso   1.00
O1098  O     0.77171   0.75247   0.74498   0.00000  Uiso   1.00
O1099  O     0.75518   0.82597   0.80855   0.00000  Uiso   1.00
O1100  O     0.91149   0.84070   0.69145   0.00000  Uiso   1.00
O1101  O     0.85532   0.83540   0.81671   0.00000  Uiso   1.00
O1102  O     0.81134   0.83126   0.68329   0.00000  Uiso   1.00
C1103  C     0.89723   0.68200   0.79558   0.00000  Uiso   1.00
C1104  C     0.89118   0.98585   0.83718   0.00000  Uiso   1.00
H1105  H     0.84304   0.98307   0.85918   0.00000  Uiso   1.00
H1106  H     0.89980   0.94533   0.82976   0.00000  Uiso   1.00
H1107  H     0.92646   0.67471   0.85486   0.00000  Uiso   1.00
H1108  H     0.94477   0.68475   0.77311   0.00000  Uiso   1.00
H1109  H     0.89258   0.72249   0.80758   0.00000  Uiso   1.00
C1110  C     0.73053   0.98473   0.78502   0.00000  Uiso   1.00
C1111  C     0.71691   0.96199   0.83075   0.00000  Uiso   1.00
H1112  H     0.74402   0.93106   0.83070   0.00000  Uiso   1.00
H1113  H     0.72953   0.99418   0.85427   0.00000  Uiso   1.00
H1114  H     0.99919   0.94347   0.84222   0.00000  Uiso   1.00
H1115  H     0.70071   0.68086   0.78847   0.00000  Uiso   1.00
H1116  H     0.71446   0.95430   0.76148   0.00000  Uiso   1.00
loop_
_geom_bond_atom_site_label_1
_geom_bond_atom_site_label_2
_geom_bond_distance
_geom_bond_site_symmetry_2
_ccdc_geom_bond_type
C1     O41     1.298   .     A
C1     C7      1.463   .     S
C1     O43     1.294   .     A
C2     O42     1.296   .     A
C2     C8      1.462   .     S
C2     O44     1.298   .     A
C3     H35     1.076   .     S
C3     C24     1.417   .     A
C3     C5      1.387   .     A
C4     H36     1.076   .     S
C4     C6      1.387   .     A
C4     C23     1.417   .     A
C5     H27     1.084   .     S
C5     C579    1.390   1_554 S
C6     C580    1.390   .     S
C6     H90     1.085   .     S
C7     C194    1.351   .     S
C7     C235    1.527   .     S
C8     C379    1.351   1_545 S
C8     C428    1.524   1_545 S
C9     C11     1.465   .     S
C9     O45     1.302   .     A
C9     O47     1.296   .     A
C10    C12     1.470   .     S
C10    O48     1.297   .     A
C10    O46     1.303   .     A
C11    C17     1.399   .     A
C11    C15     1.398   .     A
C12    C18     1.401   .     A
C12    C16     1.399   .     A
C13    C21     1.405   .     A
C13    C15     1.393   .     A
C13    H157    1.084   1_455 S
C14    C22     1.405   .     A
C14    C16     1.393   .     A
C14    H96     1.084   .     S
C15    H32     1.083   .     S
C16    H31     1.083   .     S
C17    H30     1.076   .     S
C17    C19     1.405   .     A
C18    H29     1.075   .     S
C18    C20     1.406   .     A
C19    C23     1.428   .     A
C19    C21     1.418   .     A
C20    C22     1.418   .     A
C20    C24     1.428   .     A
C21    C563    1.390   .     S
C22    C564    1.390   1_554 S
C23    C582    1.425   .     S
C24    C581    1.425   1_554 S
Cu25   O48     1.920   .     S
Cu25   O44     1.938   .     S
Cu25   N40     2.022   .     S
Cu25   O41     1.942   .     S
Cu25   O45     1.941   .     S
Cu25   Cu26    2.691   .     S
Cu26   O47     1.920   .     S
Cu26   O43     1.938   .     S
Cu26   N39     2.022   .     S
Cu26   O46     1.941   .     S
Cu26   O42     1.942   .     S
H28    C130    1.085   1_455 S
H33    C75     1.084   .     S
H34    C138    1.084   1_455 S
H37    N39     1.027   .     S
H38    N102    1.029   .     S
N39    N102    1.283   .     S
N40    H162    1.029   1_455 S
N40    N163    1.283   1_455 S
C49    H55     1.106   .     S
C49    H54     1.106   .     S
C49    C379    1.527   1_545 S
C49    C422    1.531   1_545 S
C50    H52     1.107   .     S
C50    H51     1.111   .     S
C50    C235    1.531   .     S
C50    H239    1.111   .     S
H53    C422    1.111   1_545 S
C56    H62     1.106   .     S
C56    C57     1.534   .     S
C56    C194    1.524   .     S
C56    H247    1.104   .     S
C57    H58     1.108   .     S
C57    H59     1.111   .     S
C57    H184    1.107   1_455 S
H60    C119    1.107   .     S
H61    C428    1.104   1_545 S
C63    O103    1.298   .     A
C63    C69     1.463   .     S
C63    O105    1.294   .     A
C64    O104    1.296   .     A
C64    C70     1.462   .     S
C64    O106    1.298   .     A
C65    H97     1.076   .     S
C65    C86     1.417   .     A
C65    C67     1.387   .     A
C66    H98     1.076   .     S
C66    C68     1.387   .     A
C66    C85     1.417   .     A
C67    H89     1.084   .     S
C67    C641    1.390   1_554 S
C68    C642    1.390   .     S
C68    H152    1.085   .     S
C69    C256    1.351   .     S
C69    C297    1.527   .     S
C70    C441    1.351   1_545 S
C70    C490    1.524   1_545 S
C71    C73     1.465   .     S
C71    O107    1.302   .     A
C71    O109    1.296   .     A
C72    C74     1.470   .     S
C72    O110    1.297   .     A
C72    O108    1.303   .     A
C73    C79     1.399   .     A
C73    C77     1.398   .     A
C74    C80     1.401   .     A
C74    C78     1.399   .     A
C75    C83     1.405   .     A
C75    C77     1.393   .     A
C76    C84     1.405   .     A
C76    C78     1.393   .     A
C76    H158    1.084   .     S
C77    H94     1.083   .     S
C78    H93     1.083   .     S
C79    H92     1.076   .     S
C79    C81     1.405   .     A
C80    H91     1.075   .     S
C80    C82     1.406   .     A
C81    C85     1.428   .     A
C81    C83     1.418   .     A
C82    C84     1.418   .     A
C82    C86     1.428   .     A
C83    C625    1.390   .     S
C84    C626    1.390   1_554 S
C85    C644    1.425   .     S
C86    C643    1.425   1_554 S
Cu87   O110    1.920   .     S
Cu87   O106    1.938   .     S
Cu87   N102    2.022   .     S
Cu87   O103    1.942   .     S
Cu87   O107    1.941   .     S
Cu87   Cu88    2.691   .     S
Cu88   O109    1.920   .     S
Cu88   O105    1.938   .     S
Cu88   N101    2.022   .     S
Cu88   O108    1.941   .     S
Cu88   O104    1.942   .     S
H95    C137    1.084   .     S
H99    N101    1.027   .     S
H100   N164    1.029   .     S
N101   N164    1.283   .     S
C111   H117    1.106   .     S
C111   H116    1.106   .     S
C111   C441    1.527   1_545 S
C111   C484    1.531   1_545 S
C112   H114    1.107   .     S
C112   H113    1.111   .     S
C112   C297    1.531   .     S
C112   H301    1.111   .     S
H115   C484    1.111   1_545 S
C118   H124    1.106   .     S
C118   C119    1.534   .     S
C118   C256    1.524   .     S
C118   H309    1.104   .     S
C119   H120    1.108   .     S
C119   H121    1.111   .     S
H122   C181    1.107   .     S
H123   C490    1.104   1_545 S
C125   O165    1.298   .     A
C125   C131    1.463   .     S
C125   O167    1.294   .     A
C126   O166    1.296   .     A
C126   C132    1.462   .     S
C126   O168    1.298   .     A
C127   H159    1.076   .     S
C127   C148    1.417   .     A
C127   C129    1.387   .     A
C128   H160    1.076   .     S
C128   C130    1.387   .     A
C128   C147    1.417   .     A
C129   H151    1.084   .     S
C129   C703    1.390   1_554 S
C130   C704    1.390   .     S
C130   H28     1.085   1_655 S
C131   C318    1.351   .     S
C131   C359    1.527   .     S
C132   C503    1.351   1_545 S
C132   C552    1.524   1_545 S
C133   C135    1.465   .     S
C133   O169    1.302   .     A
C133   O171    1.296   .     A
C134   C136    1.470   .     S
C134   O172    1.297   .     A
C134   O170    1.303   .     A
C135   C141    1.399   .     A
C135   C139    1.398   .     A
C136   C142    1.401   .     A
C136   C140    1.399   .     A
C137   C145    1.405   .     A
C137   C139    1.393   .     A
C138   C146    1.405   .     A
C138   C140    1.393   .     A
C138   H34     1.084   1_655 S
C139   H156    1.083   .     S
C140   H155    1.083   .     S
C141   H154    1.076   .     S
C141   C143    1.405   .     A
C142   H153    1.075   .     S
C142   C144    1.406   .     A
C143   C147    1.428   .     A
C143   C145    1.418   .     A
C144   C146    1.418   .     A
C144   C148    1.428   .     A
C145   C687    1.390   .     S
C146   C688    1.390   1_554 S
C147   C706    1.425   .     S
C148   C705    1.425   1_554 S
Cu149  O172    1.920   .     S
Cu149  O168    1.938   .     S
Cu149  N164    2.022   .     S
Cu149  O165    1.942   .     S
Cu149  O169    1.941   .     S
Cu149  Cu150   2.691   .     S
Cu150  O171    1.920   .     S
Cu150  O167    1.938   .     S
Cu150  N163    2.022   .     S
Cu150  O170    1.941   .     S
Cu150  O166    1.942   .     S
H157   C13     1.084   1_655 S
H161   N163    1.027   .     S
H162   N40     1.029   1_655 S
N163   N40     1.283   1_655 S
C173   H179    1.106   .     S
C173   H178    1.106   .     S
C173   C503    1.527   1_545 S
C173   C546    1.531   1_545 S
C174   H176    1.107   .     S
C174   H175    1.111   .     S
C174   C359    1.531   .     S
C174   H363    1.111   .     S
H177   C546    1.111   1_545 S
C180   H186    1.106   .     S
C180   C181    1.534   .     S
C180   C318    1.524   .     S
C180   H371    1.104   .     S
C181   H182    1.108   .     S
C181   H183    1.111   .     S
H184   C57     1.107   1_655 S
H185   C552    1.104   1_545 S
C187   O227    1.298   .     A
C187   C193    1.463   .     S
C187   O229    1.294   .     A
C188   O228    1.296   .     A
C188   C194    1.462   .     S
C188   O230    1.298   .     A
C189   H221    1.076   .     S
C189   C210    1.417   .     A
C189   C191    1.387   .     A
C190   H222    1.076   .     S
C190   C192    1.387   .     A
C190   C209    1.417   .     A
C191   H213    1.084   .     S
C191   C765    1.390   1_554 S
C192   C766    1.390   .     S
C192   H276    1.085   .     S
C193   C380    1.351   .     S
C193   C421    1.527   .     S
C195   C197    1.465   .     S
C195   O231    1.302   .     A
C195   O233    1.296   .     A
C196   C198    1.470   .     S
C196   O234    1.297   .     A
C196   O232    1.303   .     A
C197   C203    1.399   .     A
C197   C201    1.398   .     A
C198   C204    1.401   .     A
C198   C202    1.399   .     A
C199   C207    1.405   .     A
C199   C201    1.393   .     A
C199   H343    1.084   1_455 S
C200   C208    1.405   .     A
C200   C202    1.393   .     A
C200   H282    1.084   .     S
C201   H218    1.083   .     S
C202   H217    1.083   .     S
C203   H216    1.076   .     S
C203   C205    1.405   .     A
C204   H215    1.075   .     S
C204   C206    1.406   .     A
C205   C209    1.428   .     A
C205   C207    1.418   .     A
C206   C208    1.418   .     A
C206   C210    1.428   .     A
C207   C749    1.390   .     S
C208   C750    1.390   1_554 S
C209   C768    1.425   .     S
C210   C767    1.425   1_554 S
Cu211  O234    1.920   .     S
Cu211  O230    1.938   .     S
Cu211  N226    2.022   .     S
Cu211  O227    1.942   .     S
Cu211  O231    1.941   .     S
Cu211  Cu212   2.691   .     S
Cu212  O233    1.920   .     S
Cu212  O229    1.938   .     S
Cu212  N225    2.022   .     S
Cu212  O232    1.941   .     S
Cu212  O228    1.942   .     S
H214   C316    1.085   1_455 S
H219   C261    1.084   .     S
H220   C324    1.084   1_455 S
H223   N225    1.027   .     S
H224   N288    1.029   .     S
N225   N288    1.283   .     S
N226   H348    1.029   1_455 S
N226   N349    1.283   1_455 S
C235   H241    1.106   .     S
C235   H240    1.106   .     S
C236   H238    1.107   .     S
C236   H237    1.111   .     S
C236   C421    1.531   .     S
C236   H425    1.111   .     S
C242   H248    1.106   .     S
C242   C243    1.534   .     S
C242   C380    1.524   .     S
C242   H433    1.104   .     S
C243   H244    1.108   .     S
C243   H245    1.111   .     S
C243   H370    1.107   1_455 S
H246   C305    1.107   .     S
C249   O289    1.298   .     A
C249   C255    1.463   .     S
C249   O291    1.294   .     A
C250   O290    1.296   .     A
C250   C256    1.462   .     S
C250   O292    1.298   .     A
C251   H283    1.076   .     S
C251   C272    1.417   .     A
C251   C253    1.387   .     A
C252   H284    1.076   .     S
C252   C254    1.387   .     A
C252   C271    1.417   .     A
C253   H275    1.084   .     S
C253   C827    1.390   1_554 S
C254   C828    1.390   .     S
C254   H338    1.085   .     S
C255   C442    1.351   .     S
C255   C483    1.527   .     S
C257   C259    1.465   .     S
C257   O293    1.302   .     A
C257   O295    1.296   .     A
C258   C260    1.470   .     S
C258   O296    1.297   .     A
C258   O294    1.303   .     A
C259   C265    1.399   .     A
C259   C263    1.398   .     A
C260   C266    1.401   .     A
C260   C264    1.399   .     A
C261   C269    1.405   .     A
C261   C263    1.393   .     A
C262   C270    1.405   .     A
C262   C264    1.393   .     A
C262   H344    1.084   .     S
C263   H280    1.083   .     S
C264   H279    1.083   .     S
C265   H278    1.076   .     S
C265   C267    1.405   .     A
C266   H277    1.075   .     S
C266   C268    1.406   .     A
C267   C271    1.428   .     A
C267   C269    1.418   .     A
C268   C270    1.418   .     A
C268   C272    1.428   .     A
C269   C811    1.390   .     S
C270   C812    1.390   1_554 S
C271   C830    1.425   .     S
C272   C829    1.425   1_554 S
Cu273  O296    1.920   .     S
Cu273  O292    1.938   .     S
Cu273  N288    2.022   .     S
Cu273  O289    1.942   .     S
Cu273  O293    1.941   .     S
Cu273  Cu274   2.691   .     S
Cu274  O295    1.920   .     S
Cu274  O291    1.938   .     S
Cu274  N287    2.022   .     S
Cu274  O294    1.941   .     S
Cu274  O290    1.942   .     S
H281   C323    1.084   .     S
H285   N287    1.027   .     S
H286   N350    1.029   .     S
N287   N350    1.283   .     S
C297   H303    1.106   .     S
C297   H302    1.106   .     S
C298   H300    1.107   .     S
C298   H299    1.111   .     S
C298   C483    1.531   .     S
C298   H487    1.111   .     S
C304   H310    1.106   .     S
C304   C305    1.534   .     S
C304   C442    1.524   .     S
C304   H495    1.104   .     S
C305   H306    1.108   .     S
C305   H307    1.111   .     S
H308   C367    1.107   .     S
C311   O351    1.298   .     A
C311   C317    1.463   .     S
C311   O353    1.294   .     A
C312   O352    1.296   .     A
C312   C318    1.462   .     S
C312   O354    1.298   .     A
C313   H345    1.076   .     S
C313   C334    1.417   .     A
C313   C315    1.387   .     A
C314   H346    1.076   .     S
C314   C316    1.387   .     A
C314   C333    1.417   .     A
C315   H337    1.084   .     S
C315   C889    1.390   1_554 S
C316   C890    1.390   .     S
C316   H214    1.085   1_655 S
C317   C504    1.351   .     S
C317   C545    1.527   .     S
C319   C321    1.465   .     S
C319   O355    1.302   .     A
C319   O357    1.296   .     A
C320   C322    1.470   .     S
C320   O358    1.297   .     A
C320   O356    1.303   .     A
C321   C327    1.399   .     A
C321   C325    1.398   .     A
C322   C328    1.401   .     A
C322   C326    1.399   .     A
C323   C331    1.405   .     A
C323   C325    1.393   .     A
C324   C332    1.405   .     A
C324   C326    1.393   .     A
C324   H220    1.084   1_655 S
C325   H342    1.083   .     S
C326   H341    1.083   .     S
C327   H340    1.076   .     S
C327   C329    1.405   .     A
C328   H339    1.075   .     S
C328   C330    1.406   .     A
C329   C333    1.428   .     A
C329   C331    1.418   .     A
C330   C332    1.418   .     A
C330   C334    1.428   .     A
C331   C873    1.390   .     S
C332   C874    1.390   1_554 S
C333   C892    1.425   .     S
C334   C891    1.425   1_554 S
Cu335  O358    1.920   .     S
Cu335  O354    1.938   .     S
Cu335  N350    2.022   .     S
Cu335  O351    1.942   .     S
Cu335  O355    1.941   .     S
Cu335  Cu336   2.691   .     S
Cu336  O357    1.920   .     S
Cu336  O353    1.938   .     S
Cu336  N349    2.022   .     S
Cu336  O356    1.941   .     S
Cu336  O352    1.942   .     S
H343   C199    1.084   1_655 S
H347   N349    1.027   .     S
H348   N226    1.029   1_655 S
N349   N226    1.283   1_655 S
C359   H365    1.106   .     S
C359   H364    1.106   .     S
C360   H362    1.107   .     S
C360   H361    1.111   .     S
C360   C545    1.531   .     S
C360   H549    1.111   .     S
C366   H372    1.106   .     S
C366   C367    1.534   .     S
C366   C504    1.524   .     S
C366   H557    1.104   .     S
C367   H368    1.108   .     S
C367   H369    1.111   .     S
H370   C243    1.107   1_655 S
C373   O413    1.298   .     A
C373   C379    1.463   .     S
C373   O415    1.294   .     A
C374   O414    1.296   .     A
C374   C380    1.462   .     S
C374   O416    1.298   .     A
C375   H407    1.076   .     S
C375   C396    1.417   .     A
C375   C377    1.387   .     A
C376   H408    1.076   .     S
C376   C378    1.387   .     A
C376   C395    1.417   .     A
C377   H399    1.084   .     S
C377   C951    1.390   1_554 S
C378   C952    1.390   .     S
C378   H462    1.085   .     S
C379   C8      1.351   1_565 S
C379   C49     1.527   1_565 S
C381   C383    1.465   .     S
C381   O417    1.302   .     A
C381   O419    1.296   .     A
C382   C384    1.470   .     S
C382   O420    1.297   .     A
C382   O418    1.303   .     A
C383   C389    1.399   .     A
C383   C387    1.398   .     A
C384   C390    1.401   .     A
C384   C388    1.399   .     A
C385   C393    1.405   .     A
C385   C387    1.393   .     A
C385   H529    1.084   1_455 S
C386   C394    1.405   .     A
C386   C388    1.393   .     A
C386   H468    1.084   .     S
C387   H404    1.083   .     S
C388   H403    1.083   .     S
C389   H402    1.076   .     S
C389   C391    1.405   .     A
C390   H401    1.075   .     S
C390   C392    1.406   .     A
C391   C395    1.428   .     A
C391   C393    1.418   .     A
C392   C394    1.418   .     A
C392   C396    1.428   .     A
C393   C935    1.390   .     S
C394   C936    1.390   1_554 S
C395   C954    1.425   .     S
C396   C953    1.425   1_554 S
Cu397  O420    1.920   .     S
Cu397  O416    1.938   .     S
Cu397  N412    2.022   .     S
Cu397  O413    1.942   .     S
Cu397  O417    1.941   .     S
Cu397  Cu398   2.691   .     S
Cu398  O419    1.920   .     S
Cu398  O415    1.938   .     S
Cu398  N411    2.022   .     S
Cu398  O418    1.941   .     S
Cu398  O414    1.942   .     S
H400   C502    1.085   1_455 S
H405   C447    1.084   .     S
H406   C510    1.084   1_455 S
H409   N411    1.027   .     S
H410   N474    1.029   .     S
N411   N474    1.283   .     S
N412   H534    1.029   1_455 S
N412   N535    1.283   1_455 S
C421   H427    1.106   .     S
C421   H426    1.106   .     S
C422   H424    1.107   .     S
C422   H423    1.111   .     S
C422   C49     1.531   1_565 S
C422   H53     1.111   1_565 S
C428   H434    1.106   .     S
C428   C429    1.534   .     S
C428   C8      1.524   1_565 S
C428   H61     1.104   1_565 S
C429   H430    1.108   .     S
C429   H431    1.111   .     S
C429   H556    1.107   1_455 S
H432   C491    1.107   .     S
C435   O475    1.298   .     A
C435   C441    1.463   .     S
C435   O477    1.294   .     A
C436   O476    1.296   .     A
C436   C442    1.462   .     S
C436   O478    1.298   .     A
C437   H469    1.076   .     S
C437   C458    1.417   .     A
C437   C439    1.387   .     A
C438   H470    1.076   .     S
C438   C440    1.387   .     A
C438   C457    1.417   .     A
C439   H461    1.084   .     S
C439   C1013   1.390   1_554 S
C440   C1014   1.390   .     S
C440   H524    1.085   .     S
C441   C70     1.351   1_565 S
C441   C111    1.527   1_565 S
C443   C445    1.465   .     S
C443   O479    1.302   .     A
C443   O481    1.296   .     A
C444   C446    1.470   .     S
C444   O482    1.297   .     A
C444   O480    1.303   .     A
C445   C451    1.399   .     A
C445   C449    1.398   .     A
C446   C452    1.401   .     A
C446   C450    1.399   .     A
C447   C455    1.405   .     A
C447   C449    1.393   .     A
C448   C456    1.405   .     A
C448   C450    1.393   .     A
C448   H530    1.084   .     S
C449   H466    1.083   .     S
C450   H465    1.083   .     S
C451   H464    1.076   .     S
C451   C453    1.405   .     A
C452   H463    1.075   .     S
C452   C454    1.406   .     A
C453   C457    1.428   .     A
C453   C455    1.418   .     A
C454   C456    1.418   .     A
C454   C458    1.428   .     A
C455   C997    1.390   .     S
C456   C998    1.390   1_554 S
C457   C1016   1.425   .     S
C458   C1015   1.425   1_554 S
Cu459  O482    1.920   .     S
Cu459  O478    1.938   .     S
Cu459  N474    2.022   .     S
Cu459  O475    1.942   .     S
Cu459  O479    1.941   .     S
Cu459  Cu460   2.691   .     S
Cu460  O481    1.920   .     S
Cu460  O477    1.938   .     S
Cu460  N473    2.022   .     S
Cu460  O480    1.941   .     S
Cu460  O476    1.942   .     S
H467   C509    1.084   .     S
H471   N473    1.027   .     S
H472   N536    1.029   .     S
N473   N536    1.283   .     S
C483   H489    1.106   .     S
C483   H488    1.106   .     S
C484   H486    1.107   .     S
C484   H485    1.111   .     S
C484   C111    1.531   1_565 S
C484   H115    1.111   1_565 S
C490   H496    1.106   .     S
C490   C491    1.534   .     S
C490   C70     1.524   1_565 S
C490   H123    1.104   1_565 S
C491   H492    1.108   .     S
C491   H493    1.111   .     S
H494   C553    1.107   .     S
C497   O537    1.298   .     A
C497   C503    1.463   .     S
C497   O539    1.294   .     A
C498   O538    1.296   .     A
C498   C504    1.462   .     S
C498   O540    1.298   .     A
C499   H531    1.076   .     S
C499   C520    1.417   .     A
C499   C501    1.387   .     A
C500   H532    1.076   .     S
C500   C502    1.387   .     A
C500   C519    1.417   .     A
C501   H523    1.084   .     S
C501   C1075   1.390   1_554 S
C502   C1076   1.390   .     S
C502   H400    1.085   1_655 S
C503   C132    1.351   1_565 S
C503   C173    1.527   1_565 S
C505   C507    1.465   .     S
C505   O541    1.302   .     A
C505   O543    1.296   .     A
C506   C508    1.470   .     S
C506   O544    1.297   .     A
C506   O542    1.303   .     A
C507   C513    1.399   .     A
C507   C511    1.398   .     A
C508   C514    1.401   .     A
C508   C512    1.399   .     A
C509   C517    1.405   .     A
C509   C511    1.393   .     A
C510   C518    1.405   .     A
C510   C512    1.393   .     A
C510   H406    1.084   1_655 S
C511   H528    1.083   .     S
C512   H527    1.083   .     S
C513   H526    1.076   .     S
C513   C515    1.405   .     A
C514   H525    1.075   .     S
C514   C516    1.406   .     A
C515   C519    1.428   .     A
C515   C517    1.418   .     A
C516   C518    1.418   .     A
C516   C520    1.428   .     A
C517   C1059   1.390   .     S
C518   C1060   1.390   1_554 S
C519   C1078   1.425   .     S
C520   C1077   1.425   1_554 S
Cu521  O544    1.920   .     S
Cu521  O540    1.938   .     S
Cu521  N536    2.022   .     S
Cu521  O537    1.942   .     S
Cu521  O541    1.941   .     S
Cu521  Cu522   2.691   .     S
Cu522  O543    1.920   .     S
Cu522  O539    1.938   .     S
Cu522  N535    2.022   .     S
Cu522  O542    1.941   .     S
Cu522  O538    1.942   .     S
H529   C385    1.084   1_655 S
H533   N535    1.027   .     S
H534   N412    1.029   1_655 S
N535   N412    1.283   1_655 S
C545   H551    1.106   .     S
C545   H550    1.106   .     S
C546   H548    1.107   .     S
C546   H547    1.111   .     S
C546   C173    1.531   1_565 S
C546   H177    1.111   1_565 S
C552   H558    1.106   .     S
C552   C553    1.534   .     S
C552   C132    1.524   1_565 S
C552   H185    1.104   1_565 S
C553   H554    1.108   .     S
C553   H555    1.111   .     S
H556   C429    1.107   1_655 S
C559   O599    1.298   .     A
C559   C565    1.463   .     S
C559   O601    1.294   .     A
C560   O600    1.296   .     A
C560   C566    1.462   .     S
C560   O602    1.298   .     A
C561   H593    1.076   .     S
C561   C582    1.417   .     A
C561   C563    1.387   .     A
C562   H594    1.076   .     S
C562   C564    1.387   .     A
C562   C581    1.417   .     A
C563   H585    1.084   .     S
C564   C22     1.390   1_556 S
C564   H648    1.085   .     S
C565   C752    1.351   .     S
C565   C793    1.527   .     S
C566   C937    1.351   1_545 S
C566   C986    1.524   1_545 S
C567   C569    1.465   .     S
C567   O603    1.302   .     A
C567   O605    1.296   .     A
C568   C570    1.470   .     S
C568   O606    1.297   .     A
C568   O604    1.303   .     A
C569   C575    1.399   .     A
C569   C573    1.398   .     A
C570   C576    1.401   .     A
C570   C574    1.399   .     A
C571   C579    1.405   .     A
C571   C573    1.393   .     A
C571   H715    1.084   1_455 S
C572   C580    1.405   .     A
C572   C574    1.393   .     A
C572   H654    1.084   .     S
C573   H590    1.083   .     S
C574   H589    1.083   .     S
C575   H588    1.076   .     S
C575   C577    1.405   .     A
C576   H587    1.075   .     S
C576   C578    1.406   .     A
C577   C581    1.428   .     A
C577   C579    1.418   .     A
C578   C580    1.418   .     A
C578   C582    1.428   .     A
C579   C5      1.390   1_556 S
C581   C24     1.425   1_556 S
Cu583  O606    1.920   .     S
Cu583  O602    1.938   .     S
Cu583  N598    2.022   .     S
Cu583  O599    1.942   .     S
Cu583  O603    1.941   .     S
Cu583  Cu584   2.691   .     S
Cu584  O605    1.920   .     S
Cu584  O601    1.938   .     S
Cu584  N597    2.022   .     S
Cu584  O604    1.941   .     S
Cu584  O600    1.942   .     S
H586   C688    1.085   1_455 S
H591   C633    1.084   .     S
H592   C696    1.084   1_455 S
H595   N597    1.027   .     S
H596   N660    1.029   .     S
N597   N660    1.283   .     S
N598   H720    1.029   1_455 S
N598   N721    1.283   1_455 S
C607   H613    1.106   .     S
C607   H612    1.106   .     S
C607   C937    1.527   1_545 S
C607   C980    1.531   1_545 S
C608   H610    1.107   .     S
C608   H609    1.111   .     S
C608   C793    1.531   .     S
C608   H797    1.111   .     S
H611   C980    1.111   1_545 S
C614   H620    1.106   .     S
C614   C615    1.534   .     S
C614   C752    1.524   .     S
C614   H805    1.104   .     S
C615   H616    1.108   .     S
C615   H617    1.111   .     S
C615   H742    1.107   1_455 S
H618   C677    1.107   .     S
H619   C986    1.104   1_545 S
C621   O661    1.298   .     A
C621   C627    1.463   .     S
C621   O663    1.294   .     A
C622   O662    1.296   .     A
C622   C628    1.462   .     S
C622   O664    1.298   .     A
C623   H655    1.076   .     S
C623   C644    1.417   .     A
C623   C625    1.387   .     A
C624   H656    1.076   .     S
C624   C626    1.387   .     A
C624   C643    1.417   .     A
C625   H647    1.084   .     S
C626   C84     1.390   1_556 S
C626   H710    1.085   .     S
C627   C814    1.351   .     S
C627   C855    1.527   .     S
C628   C999    1.351   1_545 S
C628   C1048   1.524   1_545 S
C629   C631    1.465   .     S
C629   O665    1.302   .     A
C629   O667    1.296   .     A
C630   C632    1.470   .     S
C630   O668    1.297   .     A
C630   O666    1.303   .     A
C631   C637    1.399   .     A
C631   C635    1.398   .     A
C632   C638    1.401   .     A
C632   C636    1.399   .     A
C633   C641    1.405   .     A
C633   C635    1.393   .     A
C634   C642    1.405   .     A
C634   C636    1.393   .     A
C634   H716    1.084   .     S
C635   H652    1.083   .     S
C636   H651    1.083   .     S
C637   H650    1.076   .     S
C637   C639    1.405   .     A
C638   H649    1.075   .     S
C638   C640    1.406   .     A
C639   C643    1.428   .     A
C639   C641    1.418   .     A
C640   C642    1.418   .     A
C640   C644    1.428   .     A
C641   C67     1.390   1_556 S
C643   C86     1.425   1_556 S
Cu645  O668    1.920   .     S
Cu645  O664    1.938   .     S
Cu645  N660    2.022   .     S
Cu645  O661    1.942   .     S
Cu645  O665    1.941   .     S
Cu645  Cu646   2.691   .     S
Cu646  O667    1.920   .     S
Cu646  O663    1.938   .     S
Cu646  N659    2.022   .     S
Cu646  O666    1.941   .     S
Cu646  O662    1.942   .     S
H653   C695    1.084   .     S
H657   N659    1.027   .     S
H658   N722    1.029   .     S
N659   N722    1.283   .     S
C669   H675    1.106   .     S
C669   H674    1.106   .     S
C669   C999    1.527   1_545 S
C669   C1042   1.531   1_545 S
C670   H672    1.107   .     S
C670   H671    1.111   .     S
C670   C855    1.531   .     S
C670   H859    1.111   .     S
H673   C1042   1.111   1_545 S
C676   H682    1.106   .     S
C676   C677    1.534   .     S
C676   C814    1.524   .     S
C676   H867    1.104   .     S
C677   H678    1.108   .     S
C677   H679    1.111   .     S
H680   C739    1.107   .     S
H681   C1048   1.104   1_545 S
C683   O723    1.298   .     A
C683   C689    1.463   .     S
C683   O725    1.294   .     A
C684   O724    1.296   .     A
C684   C690    1.462   .     S
C684   O726    1.298   .     A
C685   H717    1.076   .     S
C685   C706    1.417   .     A
C685   C687    1.387   .     A
C686   H718    1.076   .     S
C686   C688    1.387   .     A
C686   C705    1.417   .     A
C687   H709    1.084   .     S
C688   C146    1.390   1_556 S
C688   H586    1.085   1_655 S
C689   C876    1.351   .     S
C689   C917    1.527   .     S
C690   C1061   1.351   1_545 S
C690   C1110   1.524   1_545 S
C691   C693    1.465   .     S
C691   O727    1.302   .     A
C691   O729    1.296   .     A
C692   C694    1.470   .     S
C692   O730    1.297   .     A
C692   O728    1.303   .     A
C693   C699    1.399   .     A
C693   C697    1.398   .     A
C694   C700    1.401   .     A
C694   C698    1.399   .     A
C695   C703    1.405   .     A
C695   C697    1.393   .     A
C696   C704    1.405   .     A
C696   C698    1.393   .     A
C696   H592    1.084   1_655 S
C697   H714    1.083   .     S
C698   H713    1.083   .     S
C699   H712    1.076   .     S
C699   C701    1.405   .     A
C700   H711    1.075   .     S
C700   C702    1.406   .     A
C701   C705    1.428   .     A
C701   C703    1.418   .     A
C702   C704    1.418   .     A
C702   C706    1.428   .     A
C703   C129    1.390   1_556 S
C705   C148    1.425   1_556 S
Cu707  O730    1.920   .     S
Cu707  O726    1.938   .     S
Cu707  N722    2.022   .     S
Cu707  O723    1.942   .     S
Cu707  O727    1.941   .     S
Cu707  Cu708   2.691   .     S
Cu708  O729    1.920   .     S
Cu708  O725    1.938   .     S
Cu708  N721    2.022   .     S
Cu708  O728    1.941   .     S
Cu708  O724    1.942   .     S
H715   C571    1.084   1_655 S
H719   N721    1.027   .     S
H720   N598    1.029   1_655 S
N721   N598    1.283   1_655 S
C731   H737    1.106   .     S
C731   H736    1.106   .     S
C731   C1061   1.527   1_545 S
C731   C1104   1.531   1_545 S
C732   H734    1.107   .     S
C732   H733    1.111   .     S
C732   C917    1.531   .     S
C732   H921    1.111   .     S
H735   C1104   1.111   1_545 S
C738   H744    1.106   .     S
C738   C739    1.534   .     S
C738   C876    1.524   .     S
C738   H929    1.104   .     S
C739   H740    1.108   .     S
C739   H741    1.111   .     S
H742   C615    1.107   1_655 S
H743   C1110   1.104   1_545 S
C745   O785    1.298   .     A
C745   C751    1.463   .     S
C745   O787    1.294   .     A
C746   O786    1.296   .     A
C746   C752    1.462   .     S
C746   O788    1.298   .     A
C747   H779    1.076   .     S
C747   C768    1.417   .     A
C747   C749    1.387   .     A
C748   H780    1.076   .     S
C748   C750    1.387   .     A
C748   C767    1.417   .     A
C749   H771    1.084   .     S
C750   C208    1.390   1_556 S
C750   H834    1.085   .     S
C751   C938    1.351   .     S
C751   C979    1.527   .     S
C753   C755    1.465   .     S
C753   O789    1.302   .     A
C753   O791    1.296   .     A
C754   C756    1.470   .     S
C754   O792    1.297   .     A
C754   O790    1.303   .     A
C755   C761    1.399   .     A
C755   C759    1.398   .     A
C756   C762    1.401   .     A
C756   C760    1.399   .     A
C757   C765    1.405   .     A
C757   C759    1.393   .     A
C757   H901    1.084   1_455 S
C758   C766    1.405   .     A
C758   C760    1.393   .     A
C758   H840    1.084   .     S
C759   H776    1.083   .     S
C760   H775    1.083   .     S
C761   H774    1.076   .     S
C761   C763    1.405   .     A
C762   H773    1.075   .     S
C762   C764    1.406   .     A
C763   C767    1.428   .     A
C763   C765    1.418   .     A
C764   C766    1.418   .     A
C764   C768    1.428   .     A
C765   C191    1.390   1_556 S
C767   C210    1.425   1_556 S
Cu769  O792    1.920   .     S
Cu769  O788    1.938   .     S
Cu769  N784    2.022   .     S
Cu769  O785    1.942   .     S
Cu769  O789    1.941   .     S
Cu769  Cu770   2.691   .     S
Cu770  O791    1.920   .     S
Cu770  O787    1.938   .     S
Cu770  N783    2.022   .     S
Cu770  O790    1.941   .     S
Cu770  O786    1.942   .     S
H772   C874    1.085   1_455 S
H777   C819    1.084   .     S
H778   C882    1.084   1_455 S
H781   N783    1.027   .     S
H782   N846    1.029   .     S
N783   N846    1.283   .     S
N784   H906    1.029   1_455 S
N784   N907    1.283   1_455 S
C793   H799    1.106   .     S
C793   H798    1.106   .     S
C794   H796    1.107   .     S
C794   H795    1.111   .     S
C794   C979    1.531   .     S
C794   H983    1.111   .     S
C800   H806    1.106   .     S
C800   C801    1.534   .     S
C800   C938    1.524   .     S
C800   H991    1.104   .     S
C801   H802    1.108   .     S
C801   H803    1.111   .     S
C801   H928    1.107   1_455 S
H804   C863    1.107   .     S
C807   O847    1.298   .     A
C807   C813    1.463   .     S
C807   O849    1.294   .     A
C808   O848    1.296   .     A
C808   C814    1.462   .     S
C808   O850    1.298   .     A
C809   H841    1.076   .     S
C809   C830    1.417   .     A
C809   C811    1.387   .     A
C810   H842    1.076   .     S
C810   C812    1.387   .     A
C810   C829    1.417   .     A
C811   H833    1.084   .     S
C812   C270    1.390   1_556 S
C812   H896    1.085   .     S
C813   C1000   1.351   .     S
C813   C1041   1.527   .     S
C815   C817    1.465   .     S
C815   O851    1.302   .     A
C815   O853    1.296   .     A
C816   C818    1.470   .     S
C816   O854    1.297   .     A
C816   O852    1.303   .     A
C817   C823    1.399   .     A
C817   C821    1.398   .     A
C818   C824    1.401   .     A
C818   C822    1.399   .     A
C819   C827    1.405   .     A
C819   C821    1.393   .     A
C820   C828    1.405   .     A
C820   C822    1.393   .     A
C820   H902    1.084   .     S
C821   H838    1.083   .     S
C822   H837    1.083   .     S
C823   H836    1.076   .     S
C823   C825    1.405   .     A
C824   H835    1.075   .     S
C824   C826    1.406   .     A
C825   C829    1.428   .     A
C825   C827    1.418   .     A
C826   C828    1.418   .     A
C826   C830    1.428   .     A
C827   C253    1.390   1_556 S
C829   C272    1.425   1_556 S
Cu831  O854    1.920   .     S
Cu831  O850    1.938   .     S
Cu831  N846    2.022   .     S
Cu831  O847    1.942   .     S
Cu831  O851    1.941   .     S
Cu831  Cu832   2.691   .     S
Cu832  O853    1.920   .     S
Cu832  O849    1.938   .     S
Cu832  N845    2.022   .     S
Cu832  O852    1.941   .     S
Cu832  O848    1.942   .     S
H839   C881    1.084   .     S
H843   N845    1.027   .     S
H844   N908    1.029   .     S
N845   N908    1.283   .     S
C855   H861    1.106   .     S
C855   H860    1.106   .     S
C856   H858    1.107   .     S
C856   H857    1.111   .     S
C856   C1041   1.531   .     S
C856   H1045   1.111   .     S
C862   H868    1.106   .     S
C862   C863    1.534   .     S
C862   C1000   1.524   .     S
C862   H1053   1.104   .     S
C863   H864    1.108   .     S
C863   H865    1.111   .     S
H866   C925    1.107   .     S
C869   O909    1.298   .     A
C869   C875    1.463   .     S
C869   O911    1.294   .     A
C870   O910    1.296   .     A
C870   C876    1.462   .     S
C870   O912    1.298   .     A
C871   H903    1.076   .     S
C871   C892    1.417   .     A
C871   C873    1.387   .     A
C872   H904    1.076   .     S
C872   C874    1.387   .     A
C872   C891    1.417   .     A
C873   H895    1.084   .     S
C874   C332    1.390   1_556 S
C874   H772    1.085   1_655 S
C875   C1062   1.351   .     S
C875   C1103   1.527   .     S
C877   C879    1.465   .     S
C877   O913    1.302   .     A
C877   O915    1.296   .     A
C878   C880    1.470   .     S
C878   O916    1.297   .     A
C878   O914    1.303   .     A
C879   C885    1.399   .     A
C879   C883    1.398   .     A
C880   C886    1.401   .     A
C880   C884    1.399   .     A
C881   C889    1.405   .     A
C881   C883    1.393   .     A
C882   C890    1.405   .     A
C882   C884    1.393   .     A
C882   H778    1.084   1_655 S
C883   H900    1.083   .     S
C884   H899    1.083   .     S
C885   H898    1.076   .     S
C885   C887    1.405   .     A
C886   H897    1.075   .     S
C886   C888    1.406   .     A
C887   C891    1.428   .     A
C887   C889    1.418   .     A
C888   C890    1.418   .     A
C888   C892    1.428   .     A
C889   C315    1.390   1_556 S
C891   C334    1.425   1_556 S
Cu893  O916    1.920   .     S
Cu893  O912    1.938   .     S
Cu893  N908    2.022   .     S
Cu893  O909    1.942   .     S
Cu893  O913    1.941   .     S
Cu893  Cu894   2.691   .     S
Cu894  O915    1.920   .     S
Cu894  O911    1.938   .     S
Cu894  N907    2.022   .     S
Cu894  O914    1.941   .     S
Cu894  O910    1.942   .     S
H901   C757    1.084   1_655 S
H905   N907    1.027   .     S
H906   N784    1.029   1_655 S
N907   N784    1.283   1_655 S
C917   H923    1.106   .     S
C917   H922    1.106   .     S
C918   H920    1.107   .     S
C918   H919    1.111   .     S
C918   C1103   1.531   .     S
C918   H1107   1.111   .     S
C924   H930    1.106   .     S
C924   C925    1.534   .     S
C924   C1062   1.524   .     S
C924   H1115   1.104   .     S
C925   H926    1.108   .     S
C925   H927    1.111   .     S
H928   C801    1.107   1_655 S
C931   O971    1.298   .     A
C931   C937    1.463   .     S
C931   O973    1.294   .     A
C932   O972    1.296   .     A
C932   C938    1.462   .     S
C932   O974    1.298   .     A
C933   H965    1.076   .     S
C933   C954    1.417   .     A
C933   C935    1.387   .     A
C934   H966    1.076   .     S
C934   C936    1.387   .     A
C934   C953    1.417   .     A
C935   H957    1.084   .     S
C936   C394    1.390   1_556 S
C936   H1020   1.085   .     S
C937   C566    1.351   1_565 S
C937   C607    1.527   1_565 S
C939   C941    1.465   .     S
C939   O975    1.302   .     A
C939   O977    1.296   .     A
C940   C942    1.470   .     S
C940   O978    1.297   .     A
C940   O976    1.303   .     A
C941   C947    1.399   .     A
C941   C945    1.398   .     A
C942   C948    1.401   .     A
C942   C946    1.399   .     A
C943   C951    1.405   .     A
C943   C945    1.393   .     A
C943   H1087   1.084   1_455 S
C944   C952    1.405   .     A
C944   C946    1.393   .     A
C944   H1026   1.084   .     S
C945   H962    1.083   .     S
C946   H961    1.083   .     S
C947   H960    1.076   .     S
C947   C949    1.405   .     A
C948   H959    1.075   .     S
C948   C950    1.406   .     A
C949   C953    1.428   .     A
C949   C951    1.418   .     A
C950   C952    1.418   .     A
C950   C954    1.428   .     A
C951   C377    1.390   1_556 S
C953   C396    1.425   1_556 S
Cu955  O978    1.920   .     S
Cu955  O974    1.938   .     S
Cu955  N970    2.022   .     S
Cu955  O971    1.942   .     S
Cu955  O975    1.941   .     S
Cu955  Cu956   2.691   .     S
Cu956  O977    1.920   .     S
Cu956  O973    1.938   .     S
Cu956  N969    2.022   .     S
Cu956  O976    1.941   .     S
Cu956  O972    1.942   .     S
H958   C1060   1.085   1_455 S
H963   C1005   1.084   .     S
H964   C1068   1.084   1_455 S
H967   N969    1.027   .     S
H968   N1032   1.029   .     S
N969   N1032   1.283   .     S
N970   H1092   1.029   1_455 S
N970   N1093   1.283   1_455 S
C979   H985    1.106   .     S
C979   H984    1.106   .     S
C980   H982    1.107   .     S
C980   H981    1.111   .     S
C980   C607    1.531   1_565 S
C980   H611    1.111   1_565 S
C986   H992    1.106   .     S
C986   C987    1.534   .     S
C986   C566    1.524   1_565 S
C986   H619    1.104   1_565 S
C987   H988    1.108   .     S
C987   H989    1.111   .     S
C987   H1114   1.107   1_455 S
H990   C1049   1.107   .     S
C993   O1033   1.298   .     A
C993   C999    1.463   .     S
C993   O1035   1.294   .     A
C994   O1034   1.296   .     A
C994   C1000   1.462   .     S
C994   O1036   1.298   .     A
C995   H1027   1.076   .     S
C995   C1016   1.417   .     A
C995   C997    1.387   .     A
C996   H1028   1.076   .     S
C996   C998    1.387   .     A
C996   C1015   1.417   .     A
C997   H1019   1.084   .     S
C998   C456    1.390   1_556 S
C998   H1082   1.085   .     S
C999   C628    1.351   1_565 S
C999   C669    1.527   1_565 S
C1001  C1003   1.465   .     S
C1001  O1037   1.302   .     A
C1001  O1039   1.296   .     A
C1002  C1004   1.470   .     S
C1002  O1040   1.297   .     A
C1002  O1038   1.303   .     A
C1003  C1009   1.399   .     A
C1003  C1007   1.398   .     A
C1004  C1010   1.401   .     A
C1004  C1008   1.399   .     A
C1005  C1013   1.405   .     A
C1005  C1007   1.393   .     A
C1006  C1014   1.405   .     A
C1006  C1008   1.393   .     A
C1006  H1088   1.084   .     S
C1007  H1024   1.083   .     S
C1008  H1023   1.083   .     S
C1009  H1022   1.076   .     S
C1009  C1011   1.405   .     A
C1010  H1021   1.075   .     S
C1010  C1012   1.406   .     A
C1011  C1015   1.428   .     A
C1011  C1013   1.418   .     A
C1012  C1014   1.418   .     A
C1012  C1016   1.428   .     A
C1013  C439    1.390   1_556 S
C1015  C458    1.425   1_556 S
Cu1017 O1040   1.920   .     S
Cu1017 O1036   1.938   .     S
Cu1017 N1032   2.022   .     S
Cu1017 O1033   1.942   .     S
Cu1017 O1037   1.941   .     S
Cu1017 Cu1018  2.691   .     S
Cu1018 O1039   1.920   .     S
Cu1018 O1035   1.938   .     S
Cu1018 N1031   2.022   .     S
Cu1018 O1038   1.941   .     S
Cu1018 O1034   1.942   .     S
H1025  C1067   1.084   .     S
H1029  N1031   1.027   .     S
H1030  N1094   1.029   .     S
N1031  N1094   1.283   .     S
C1041  H1047   1.106   .     S
C1041  H1046   1.106   .     S
C1042  H1044   1.107   .     S
C1042  H1043   1.111   .     S
C1042  C669    1.531   1_565 S
C1042  H673    1.111   1_565 S
C1048  H1054   1.106   .     S
C1048  C1049   1.534   .     S
C1048  C628    1.524   1_565 S
C1048  H681    1.104   1_565 S
C1049  H1050   1.108   .     S
C1049  H1051   1.111   .     S
H1052  C1111   1.107   .     S
C1055  O1095   1.298   .     A
C1055  C1061   1.463   .     S
C1055  O1097   1.294   .     A
C1056  O1096   1.296   .     A
C1056  C1062   1.462   .     S
C1056  O1098   1.298   .     A
C1057  H1089   1.076   .     S
C1057  C1078   1.417   .     A
C1057  C1059   1.387   .     A
C1058  H1090   1.076   .     S
C1058  C1060   1.387   .     A
C1058  C1077   1.417   .     A
C1059  H1081   1.084   .     S
C1060  C518    1.390   1_556 S
C1060  H958    1.085   1_655 S
C1061  C690    1.351   1_565 S
C1061  C731    1.527   1_565 S
C1063  C1065   1.465   .     S
C1063  O1099   1.302   .     A
C1063  O1101   1.296   .     A
C1064  C1066   1.470   .     S
C1064  O1102   1.297   .     A
C1064  O1100   1.303   .     A
C1065  C1071   1.399   .     A
C1065  C1069   1.398   .     A
C1066  C1072   1.401   .     A
C1066  C1070   1.399   .     A
C1067  C1075   1.405   .     A
C1067  C1069   1.393   .     A
C1068  C1076   1.405   .     A
C1068  C1070   1.393   .     A
C1068  H964    1.084   1_655 S
C1069  H1086   1.083   .     S
C1070  H1085   1.083   .     S
C1071  H1084   1.076   .     S
C1071  C1073   1.405   .     A
C1072  H1083   1.075   .     S
C1072  C1074   1.406   .     A
C1073  C1077   1.428   .     A
C1073  C1075   1.418   .     A
C1074  C1076   1.418   .     A
C1074  C1078   1.428   .     A
C1075  C501    1.390   1_556 S
C1077  C520    1.425   1_556 S
Cu1079 O1102   1.920   .     S
Cu1079 O1098   1.938   .     S
Cu1079 N1094   2.022   .     S
Cu1079 O1095   1.942   .     S
Cu1079 O1099   1.941   .     S
Cu1079 Cu1080  2.691   .     S
Cu1080 O1101   1.920   .     S
Cu1080 O1097   1.938   .     S
Cu1080 N1093   2.022   .     S
Cu1080 O1100   1.941   .     S
Cu1080 O1096   1.942   .     S
H1087  C943    1.084   1_655 S
H1091  N1093   1.027   .     S
H1092  N970    1.029   1_655 S
N1093  N970    1.283   1_655 S
C1103  H1109   1.106   .     S
C1103  H1108   1.106   .     S
C1104  H1106   1.107   .     S
C1104  H1105   1.111   .     S
C1104  C731    1.531   1_565 S
C1104  H735    1.111   1_565 S
C1110  H1116   1.106   .     S
C1110  C1111   1.534   .     S
C1110  C690    1.524   1_565 S
C1110  H743    1.104   1_565 S
C1111  H1112   1.108   .     S
C1111  H1113   1.111   .     S
H1114  C987    1.107   1_655 S
