data_str_m2_o2_o10_pcu_sym.151
_audit_creation_date              2020-01-03
_audit_creation_method            'Materials Studio'
_symmetry_space_group_name_H-M    'P1'
_symmetry_Int_Tables_number       1
_symmetry_cell_setting            triclinic
loop_
_symmetry_equiv_pos_as_xyz
  x,y,z
_cell_length_a                    26.1570
_cell_length_b                    30.1769
_cell_length_c                    27.7055
_cell_angle_alpha                 90.3466
_cell_angle_beta                  97.8877
_cell_angle_gamma                 89.8588
loop_
_atom_site_label
_atom_site_type_symbol
_atom_site_fract_x
_atom_site_fract_y
_atom_site_fract_z
_atom_site_U_iso_or_equiv
_atom_site_adp_type
_atom_site_occupancy
C1     C     0.16626   0.16507   0.24975   0.00000  Uiso   1.00
C2     C     0.16627   0.33507   0.25009   0.00000  Uiso   1.00
C3     C     0.21042   0.26311   0.05931   0.00000  Uiso   1.00
C4     C     0.12503   0.26774   0.44104   0.00000  Uiso   1.00
C5     C     0.20946   0.26333   0.11003   0.00000  Uiso   1.00
C6     C     0.12607   0.26787   0.39032   0.00000  Uiso   1.00
C7     C     0.12380   0.23685   0.09879   0.00000  Uiso   1.00
C8     C     0.20727   0.23219   0.40064   0.00000  Uiso   1.00
C9     C     0.12281   0.23708   0.04780   0.00000  Uiso   1.00
C10    C     0.20827   0.23236   0.45163   0.00000  Uiso   1.00
C11    C     0.16662   0.25007   0.02717   0.00000  Uiso   1.00
C12    C     0.16664   0.25005   0.47272   0.00000  Uiso   1.00
C13    C     0.06789   0.24981   0.23755   0.00000  Uiso   1.00
C14    C     0.26545   0.25005   0.26245   0.00000  Uiso   1.00
C15    C     0.01263   0.24968   0.23066   0.00000  Uiso   1.00
C16    C     0.32071   0.24999   0.26933   0.00000  Uiso   1.00
C17    C     0.20418   0.04732   0.27670   0.00000  Uiso   1.00
C18    C     0.19752   0.45367   0.22725   0.00000  Uiso   1.00
C19    C     0.20606   0.09333   0.27598   0.00000  Uiso   1.00
C20    C     0.19774   0.40766   0.22481   0.00000  Uiso   1.00
C21    C     0.16549   0.11685   0.24901   0.00000  Uiso   1.00
C22    C     0.16432   0.38351   0.25041   0.00000  Uiso   1.00
C23    C     0.12361   0.09445   0.22199   0.00000  Uiso   1.00
C24    C     0.13017   0.40566   0.27791   0.00000  Uiso   1.00
C25    C     0.12191   0.04762   0.22253   0.00000  Uiso   1.00
C26    C     0.13008   0.45247   0.28025   0.00000  Uiso   1.00
C27    C     0.16281   0.02449   0.25059   0.00000  Uiso   1.00
C28    C     0.16370   0.47606   0.25377   0.00000  Uiso   1.00
Cu29   Cu    0.16667   0.24999   0.29822   0.00000  Uiso   1.00
Cu30   Cu    0.16667   0.25000   0.20179   0.00000  Uiso   1.00
H31    H     0.32602   0.24941   0.19356   0.00000  Uiso   1.00
H32    H     0.00734   0.25022   0.30643   0.00000  Uiso   1.00
H33    H     0.23533   0.02907   0.29768   0.00000  Uiso   1.00
H34    H     0.22324   0.47224   0.20739   0.00000  Uiso   1.00
H35    H     0.24497   0.27387   0.04529   0.00000  Uiso   1.00
H36    H     0.09227   0.28213   0.45544   0.00000  Uiso   1.00
H37    H     0.24329   0.27445   0.13374   0.00000  Uiso   1.00
H38    H     0.09416   0.28248   0.36678   0.00000  Uiso   1.00
H39    H     0.08989   0.22599   0.11362   0.00000  Uiso   1.00
H40    H     0.23924   0.21766   0.38519   0.00000  Uiso   1.00
H41    H     0.08822   0.22641   0.02469   0.00000  Uiso   1.00
H42    H     0.24104   0.21801   0.47437   0.00000  Uiso   1.00
N43    N     0.16667   0.25001   0.12935   0.00000  Uiso   1.00
N44    N     0.16667   0.24999   0.37066   0.00000  Uiso   1.00
O45    O     0.16667   0.18572   0.29072   0.00000  Uiso   1.00
O46    O     0.16666   0.31427   0.20929   0.00000  Uiso   1.00
O47    O     0.16667   0.18573   0.20928   0.00000  Uiso   1.00
O48    O     0.16666   0.31427   0.29072   0.00000  Uiso   1.00
O49    O     0.09161   0.24999   0.28132   0.00000  Uiso   1.00
O50    O     0.24172   0.25000   0.21868   0.00000  Uiso   1.00
O51    O     0.09161   0.25000   0.19989   0.00000  Uiso   1.00
O52    O     0.24172   0.25000   0.30012   0.00000  Uiso   1.00
N53    N     0.24895   0.11590   0.30236   0.00000  Uiso   1.00
H54    H     0.26451   0.09998   0.33386   0.00000  Uiso   1.00
C55    C     0.28821   0.12847   0.27302   0.00000  Uiso   1.00
H56    H     0.30608   0.09844   0.25894   0.00000  Uiso   1.00
H57    H     0.31869   0.14792   0.29562   0.00000  Uiso   1.00
H58    H     0.27150   0.14936   0.24191   0.00000  Uiso   1.00
N59    N     0.23332   0.38572   0.19826   0.00000  Uiso   1.00
H60    H     0.27047   0.39756   0.20655   0.00000  Uiso   1.00
C61    C     0.21725   0.38405   0.14618   0.00000  Uiso   1.00
H62    H     0.21608   0.41797   0.13065   0.00000  Uiso   1.00
H63    H     0.17849   0.36866   0.13780   0.00000  Uiso   1.00
H64    H     0.24515   0.36378   0.12870   0.00000  Uiso   1.00
N65    N     0.08291   0.11975   0.19577   0.00000  Uiso   1.00
H66    H     0.04663   0.11234   0.20390   0.00000  Uiso   1.00
C67    C     0.08512   0.12372   0.14406   0.00000  Uiso   1.00
H68    H     0.07792   0.09118   0.12550   0.00000  Uiso   1.00
H69    H     0.12342   0.13625   0.13747   0.00000  Uiso   1.00
H70    H     0.05511   0.14746   0.12802   0.00000  Uiso   1.00
N71    N     0.09647   0.38029   0.30327   0.00000  Uiso   1.00
H72    H     0.09215   0.39180   0.33758   0.00000  Uiso   1.00
C73    C     0.04830   0.36789   0.27429   0.00000  Uiso   1.00
H74    H     0.02468   0.39781   0.26371   0.00000  Uiso   1.00
H75    H     0.02628   0.34580   0.29582   0.00000  Uiso   1.00
H76    H     0.05563   0.34976   0.24090   0.00000  Uiso   1.00
C77    C     0.07783   0.02377   0.19370   0.00000  Uiso   1.00
H78    H     0.04101   0.04016   0.18396   0.00000  Uiso   1.00
O79    O     0.08225   0.48584   0.17924   0.00000  Uiso   1.00
C80    C     0.09417   0.47597   0.30922   0.00000  Uiso   1.00
H81    H     0.05893   0.46016   0.31660   0.00000  Uiso   1.00
O82    O     0.10384   0.01296   0.32605   0.00000  Uiso   1.00
C83    C     0.49959   0.16507   0.24975   0.00000  Uiso   1.00
C84    C     0.49961   0.33507   0.25009   0.00000  Uiso   1.00
C85    C     0.54375   0.26311   0.05931   0.00000  Uiso   1.00
C86    C     0.45837   0.26774   0.44104   0.00000  Uiso   1.00
C87    C     0.54279   0.26333   0.11003   0.00000  Uiso   1.00
C88    C     0.45941   0.26787   0.39032   0.00000  Uiso   1.00
C89    C     0.45713   0.23685   0.09879   0.00000  Uiso   1.00
C90    C     0.54060   0.23219   0.40064   0.00000  Uiso   1.00
C91    C     0.45615   0.23708   0.04780   0.00000  Uiso   1.00
C92    C     0.54160   0.23236   0.45163   0.00000  Uiso   1.00
C93    C     0.49996   0.25007   0.02717   0.00000  Uiso   1.00
C94    C     0.49997   0.25005   0.47272   0.00000  Uiso   1.00
C95    C     0.40122   0.24981   0.23755   0.00000  Uiso   1.00
C96    C     0.59878   0.25005   0.26245   0.00000  Uiso   1.00
C97    C     0.34597   0.24968   0.23066   0.00000  Uiso   1.00
C98    C     0.65404   0.24999   0.26933   0.00000  Uiso   1.00
C99    C     0.53752   0.04732   0.27670   0.00000  Uiso   1.00
C100   C     0.53086   0.45367   0.22725   0.00000  Uiso   1.00
C101   C     0.53939   0.09333   0.27598   0.00000  Uiso   1.00
C102   C     0.53108   0.40766   0.22481   0.00000  Uiso   1.00
C103   C     0.49883   0.11685   0.24901   0.00000  Uiso   1.00
C104   C     0.49765   0.38351   0.25041   0.00000  Uiso   1.00
C105   C     0.45694   0.09445   0.22199   0.00000  Uiso   1.00
C106   C     0.46350   0.40566   0.27791   0.00000  Uiso   1.00
C107   C     0.45524   0.04762   0.22253   0.00000  Uiso   1.00
C108   C     0.46342   0.45247   0.28025   0.00000  Uiso   1.00
C109   C     0.49615   0.02449   0.25059   0.00000  Uiso   1.00
C110   C     0.49703   0.47606   0.25377   0.00000  Uiso   1.00
Cu111  Cu    0.50000   0.24999   0.29822   0.00000  Uiso   1.00
Cu112  Cu    0.50000   0.25000   0.20179   0.00000  Uiso   1.00
H113   H     0.65935   0.24941   0.19356   0.00000  Uiso   1.00
H114   H     0.34067   0.25022   0.30643   0.00000  Uiso   1.00
H115   H     0.56866   0.02907   0.29768   0.00000  Uiso   1.00
H116   H     0.55658   0.47224   0.20739   0.00000  Uiso   1.00
H117   H     0.57830   0.27387   0.04529   0.00000  Uiso   1.00
H118   H     0.42560   0.28213   0.45544   0.00000  Uiso   1.00
H119   H     0.57662   0.27445   0.13374   0.00000  Uiso   1.00
H120   H     0.42749   0.28248   0.36678   0.00000  Uiso   1.00
H121   H     0.42323   0.22599   0.11362   0.00000  Uiso   1.00
H122   H     0.57257   0.21766   0.38519   0.00000  Uiso   1.00
H123   H     0.42155   0.22641   0.02469   0.00000  Uiso   1.00
H124   H     0.57437   0.21801   0.47437   0.00000  Uiso   1.00
N125   N     0.50000   0.25001   0.12935   0.00000  Uiso   1.00
N126   N     0.50000   0.24999   0.37066   0.00000  Uiso   1.00
O127   O     0.50000   0.18572   0.29072   0.00000  Uiso   1.00
O128   O     0.50000   0.31427   0.20929   0.00000  Uiso   1.00
O129   O     0.50000   0.18573   0.20928   0.00000  Uiso   1.00
O130   O     0.50000   0.31427   0.29072   0.00000  Uiso   1.00
O131   O     0.42495   0.24999   0.28132   0.00000  Uiso   1.00
O132   O     0.57505   0.25000   0.21868   0.00000  Uiso   1.00
O133   O     0.42495   0.25000   0.19989   0.00000  Uiso   1.00
O134   O     0.57505   0.25000   0.30012   0.00000  Uiso   1.00
N135   N     0.58228   0.11590   0.30236   0.00000  Uiso   1.00
H136   H     0.59785   0.09998   0.33386   0.00000  Uiso   1.00
C137   C     0.62154   0.12847   0.27302   0.00000  Uiso   1.00
H138   H     0.63941   0.09844   0.25894   0.00000  Uiso   1.00
H139   H     0.65203   0.14792   0.29562   0.00000  Uiso   1.00
H140   H     0.60483   0.14936   0.24191   0.00000  Uiso   1.00
N141   N     0.56665   0.38572   0.19826   0.00000  Uiso   1.00
H142   H     0.60380   0.39756   0.20655   0.00000  Uiso   1.00
C143   C     0.55058   0.38405   0.14618   0.00000  Uiso   1.00
H144   H     0.54942   0.41797   0.13065   0.00000  Uiso   1.00
H145   H     0.51182   0.36866   0.13780   0.00000  Uiso   1.00
H146   H     0.57848   0.36378   0.12870   0.00000  Uiso   1.00
N147   N     0.41625   0.11975   0.19577   0.00000  Uiso   1.00
H148   H     0.37996   0.11234   0.20390   0.00000  Uiso   1.00
C149   C     0.41845   0.12372   0.14406   0.00000  Uiso   1.00
H150   H     0.41125   0.09118   0.12550   0.00000  Uiso   1.00
H151   H     0.45675   0.13625   0.13747   0.00000  Uiso   1.00
H152   H     0.38844   0.14746   0.12802   0.00000  Uiso   1.00
N153   N     0.42980   0.38029   0.30327   0.00000  Uiso   1.00
H154   H     0.42548   0.39180   0.33758   0.00000  Uiso   1.00
C155   C     0.38163   0.36789   0.27429   0.00000  Uiso   1.00
H156   H     0.35802   0.39781   0.26371   0.00000  Uiso   1.00
H157   H     0.35962   0.34580   0.29582   0.00000  Uiso   1.00
H158   H     0.38896   0.34976   0.24090   0.00000  Uiso   1.00
C159   C     0.41116   0.02377   0.19370   0.00000  Uiso   1.00
H160   H     0.37434   0.04016   0.18396   0.00000  Uiso   1.00
O161   O     0.41558   0.48584   0.17924   0.00000  Uiso   1.00
C162   C     0.42751   0.47597   0.30922   0.00000  Uiso   1.00
H163   H     0.39226   0.46016   0.31660   0.00000  Uiso   1.00
O164   O     0.43717   0.01296   0.32605   0.00000  Uiso   1.00
C165   C     0.83292   0.16507   0.24975   0.00000  Uiso   1.00
C166   C     0.83294   0.33507   0.25009   0.00000  Uiso   1.00
C167   C     0.87709   0.26311   0.05931   0.00000  Uiso   1.00
C168   C     0.79170   0.26774   0.44104   0.00000  Uiso   1.00
C169   C     0.87613   0.26333   0.11003   0.00000  Uiso   1.00
C170   C     0.79274   0.26787   0.39032   0.00000  Uiso   1.00
C171   C     0.79046   0.23685   0.09879   0.00000  Uiso   1.00
C172   C     0.87394   0.23219   0.40064   0.00000  Uiso   1.00
C173   C     0.78948   0.23708   0.04780   0.00000  Uiso   1.00
C174   C     0.87493   0.23236   0.45163   0.00000  Uiso   1.00
C175   C     0.83329   0.25007   0.02717   0.00000  Uiso   1.00
C176   C     0.83330   0.25005   0.47272   0.00000  Uiso   1.00
C177   C     0.73455   0.24981   0.23755   0.00000  Uiso   1.00
C178   C     0.93211   0.25005   0.26245   0.00000  Uiso   1.00
C179   C     0.67930   0.24968   0.23066   0.00000  Uiso   1.00
C180   C     0.98737   0.24999   0.26933   0.00000  Uiso   1.00
C181   C     0.87085   0.04732   0.27670   0.00000  Uiso   1.00
C182   C     0.86419   0.45367   0.22725   0.00000  Uiso   1.00
C183   C     0.87273   0.09333   0.27598   0.00000  Uiso   1.00
C184   C     0.86441   0.40766   0.22481   0.00000  Uiso   1.00
C185   C     0.83216   0.11685   0.24901   0.00000  Uiso   1.00
C186   C     0.83099   0.38351   0.25041   0.00000  Uiso   1.00
C187   C     0.79027   0.09445   0.22199   0.00000  Uiso   1.00
C188   C     0.79684   0.40566   0.27791   0.00000  Uiso   1.00
C189   C     0.78858   0.04762   0.22253   0.00000  Uiso   1.00
C190   C     0.79675   0.45247   0.28025   0.00000  Uiso   1.00
C191   C     0.82948   0.02449   0.25059   0.00000  Uiso   1.00
C192   C     0.83037   0.47606   0.25377   0.00000  Uiso   1.00
Cu193  Cu    0.83333   0.24999   0.29822   0.00000  Uiso   1.00
Cu194  Cu    0.83333   0.25000   0.20179   0.00000  Uiso   1.00
H195   H     0.99268   0.24941   0.19356   0.00000  Uiso   1.00
H196   H     0.67401   0.25022   0.30643   0.00000  Uiso   1.00
H197   H     0.90199   0.02907   0.29768   0.00000  Uiso   1.00
H198   H     0.88991   0.47224   0.20739   0.00000  Uiso   1.00
H199   H     0.91164   0.27387   0.04529   0.00000  Uiso   1.00
H200   H     0.75893   0.28213   0.45544   0.00000  Uiso   1.00
H201   H     0.90995   0.27445   0.13374   0.00000  Uiso   1.00
H202   H     0.76083   0.28248   0.36678   0.00000  Uiso   1.00
H203   H     0.75656   0.22599   0.11362   0.00000  Uiso   1.00
H204   H     0.90590   0.21766   0.38519   0.00000  Uiso   1.00
H205   H     0.75488   0.22641   0.02469   0.00000  Uiso   1.00
H206   H     0.90771   0.21801   0.47437   0.00000  Uiso   1.00
N207   N     0.83333   0.25001   0.12935   0.00000  Uiso   1.00
N208   N     0.83333   0.24999   0.37066   0.00000  Uiso   1.00
O209   O     0.83334   0.18572   0.29072   0.00000  Uiso   1.00
O210   O     0.83333   0.31427   0.20929   0.00000  Uiso   1.00
O211   O     0.83334   0.18573   0.20928   0.00000  Uiso   1.00
O212   O     0.83333   0.31427   0.29072   0.00000  Uiso   1.00
O213   O     0.75828   0.24999   0.28132   0.00000  Uiso   1.00
O214   O     0.90839   0.25000   0.21868   0.00000  Uiso   1.00
O215   O     0.75828   0.25000   0.19989   0.00000  Uiso   1.00
O216   O     0.90839   0.25000   0.30012   0.00000  Uiso   1.00
N217   N     0.91562   0.11590   0.30236   0.00000  Uiso   1.00
H218   H     0.93118   0.09998   0.33386   0.00000  Uiso   1.00
C219   C     0.95487   0.12847   0.27302   0.00000  Uiso   1.00
H220   H     0.97275   0.09844   0.25894   0.00000  Uiso   1.00
H221   H     0.98536   0.14792   0.29562   0.00000  Uiso   1.00
H222   H     0.93816   0.14936   0.24191   0.00000  Uiso   1.00
N223   N     0.89999   0.38572   0.19826   0.00000  Uiso   1.00
H224   H     0.93714   0.39756   0.20655   0.00000  Uiso   1.00
C225   C     0.88392   0.38405   0.14618   0.00000  Uiso   1.00
H226   H     0.88275   0.41797   0.13065   0.00000  Uiso   1.00
H227   H     0.84516   0.36866   0.13780   0.00000  Uiso   1.00
H228   H     0.91182   0.36378   0.12870   0.00000  Uiso   1.00
N229   N     0.74958   0.11975   0.19577   0.00000  Uiso   1.00
H230   H     0.71330   0.11234   0.20390   0.00000  Uiso   1.00
C231   C     0.75178   0.12372   0.14406   0.00000  Uiso   1.00
H232   H     0.74458   0.09118   0.12550   0.00000  Uiso   1.00
H233   H     0.79008   0.13625   0.13747   0.00000  Uiso   1.00
H234   H     0.72178   0.14746   0.12802   0.00000  Uiso   1.00
N235   N     0.76313   0.38029   0.30327   0.00000  Uiso   1.00
H236   H     0.75881   0.39180   0.33758   0.00000  Uiso   1.00
C237   C     0.71497   0.36789   0.27429   0.00000  Uiso   1.00
H238   H     0.69135   0.39781   0.26371   0.00000  Uiso   1.00
H239   H     0.69295   0.34580   0.29582   0.00000  Uiso   1.00
H240   H     0.72229   0.34976   0.24090   0.00000  Uiso   1.00
C241   C     0.74449   0.02377   0.19370   0.00000  Uiso   1.00
H242   H     0.70767   0.04016   0.18396   0.00000  Uiso   1.00
O243   O     0.74892   0.48584   0.17924   0.00000  Uiso   1.00
C244   C     0.76084   0.47597   0.30922   0.00000  Uiso   1.00
H245   H     0.72560   0.46016   0.31660   0.00000  Uiso   1.00
O246   O     0.77051   0.01296   0.32605   0.00000  Uiso   1.00
C247   C     0.16626   0.66507   0.24975   0.00000  Uiso   1.00
C248   C     0.16627   0.83507   0.25009   0.00000  Uiso   1.00
C249   C     0.21042   0.76311   0.05931   0.00000  Uiso   1.00
C250   C     0.12503   0.76774   0.44104   0.00000  Uiso   1.00
C251   C     0.20946   0.76333   0.11003   0.00000  Uiso   1.00
C252   C     0.12607   0.76787   0.39032   0.00000  Uiso   1.00
C253   C     0.12380   0.73685   0.09879   0.00000  Uiso   1.00
C254   C     0.20727   0.73219   0.40064   0.00000  Uiso   1.00
C255   C     0.12281   0.73708   0.04780   0.00000  Uiso   1.00
C256   C     0.20827   0.73236   0.45163   0.00000  Uiso   1.00
C257   C     0.16662   0.75007   0.02717   0.00000  Uiso   1.00
C258   C     0.16664   0.75005   0.47272   0.00000  Uiso   1.00
C259   C     0.06789   0.74981   0.23755   0.00000  Uiso   1.00
C260   C     0.26545   0.75005   0.26245   0.00000  Uiso   1.00
C261   C     0.01263   0.74968   0.23066   0.00000  Uiso   1.00
C262   C     0.32071   0.74999   0.26933   0.00000  Uiso   1.00
C263   C     0.20418   0.54732   0.27670   0.00000  Uiso   1.00
C264   C     0.19752   0.95367   0.22725   0.00000  Uiso   1.00
C265   C     0.20606   0.59333   0.27598   0.00000  Uiso   1.00
C266   C     0.19774   0.90766   0.22481   0.00000  Uiso   1.00
C267   C     0.16549   0.61685   0.24901   0.00000  Uiso   1.00
C268   C     0.16432   0.88351   0.25041   0.00000  Uiso   1.00
C269   C     0.12361   0.59445   0.22199   0.00000  Uiso   1.00
C270   C     0.13017   0.90566   0.27791   0.00000  Uiso   1.00
C271   C     0.12191   0.54762   0.22253   0.00000  Uiso   1.00
C272   C     0.13008   0.95247   0.28025   0.00000  Uiso   1.00
C273   C     0.16281   0.52449   0.25059   0.00000  Uiso   1.00
C274   C     0.16370   0.97606   0.25377   0.00000  Uiso   1.00
Cu275  Cu    0.16667   0.74999   0.29822   0.00000  Uiso   1.00
Cu276  Cu    0.16667   0.75000   0.20179   0.00000  Uiso   1.00
H277   H     0.32602   0.74941   0.19356   0.00000  Uiso   1.00
H278   H     0.00734   0.75022   0.30643   0.00000  Uiso   1.00
H279   H     0.23533   0.52907   0.29768   0.00000  Uiso   1.00
H280   H     0.22324   0.97224   0.20739   0.00000  Uiso   1.00
H281   H     0.24497   0.77387   0.04529   0.00000  Uiso   1.00
H282   H     0.09227   0.78213   0.45544   0.00000  Uiso   1.00
H283   H     0.24329   0.77445   0.13374   0.00000  Uiso   1.00
H284   H     0.09416   0.78248   0.36678   0.00000  Uiso   1.00
H285   H     0.08989   0.72599   0.11362   0.00000  Uiso   1.00
H286   H     0.23924   0.71766   0.38519   0.00000  Uiso   1.00
H287   H     0.08822   0.72641   0.02469   0.00000  Uiso   1.00
H288   H     0.24104   0.71801   0.47437   0.00000  Uiso   1.00
N289   N     0.16667   0.75001   0.12935   0.00000  Uiso   1.00
N290   N     0.16667   0.74999   0.37066   0.00000  Uiso   1.00
O291   O     0.16667   0.68572   0.29072   0.00000  Uiso   1.00
O292   O     0.16666   0.81427   0.20929   0.00000  Uiso   1.00
O293   O     0.16667   0.68573   0.20928   0.00000  Uiso   1.00
O294   O     0.16666   0.81427   0.29072   0.00000  Uiso   1.00
O295   O     0.09161   0.74999   0.28132   0.00000  Uiso   1.00
O296   O     0.24172   0.75000   0.21868   0.00000  Uiso   1.00
O297   O     0.09161   0.75000   0.19989   0.00000  Uiso   1.00
O298   O     0.24172   0.75000   0.30012   0.00000  Uiso   1.00
N299   N     0.24895   0.61590   0.30236   0.00000  Uiso   1.00
H300   H     0.26451   0.59998   0.33386   0.00000  Uiso   1.00
C301   C     0.28821   0.62847   0.27302   0.00000  Uiso   1.00
H302   H     0.30608   0.59844   0.25894   0.00000  Uiso   1.00
H303   H     0.31869   0.64792   0.29562   0.00000  Uiso   1.00
H304   H     0.27150   0.64936   0.24191   0.00000  Uiso   1.00
N305   N     0.23332   0.88572   0.19826   0.00000  Uiso   1.00
H306   H     0.27047   0.89756   0.20655   0.00000  Uiso   1.00
C307   C     0.21725   0.88405   0.14618   0.00000  Uiso   1.00
H308   H     0.21608   0.91797   0.13065   0.00000  Uiso   1.00
H309   H     0.17849   0.86866   0.13780   0.00000  Uiso   1.00
H310   H     0.24515   0.86378   0.12870   0.00000  Uiso   1.00
N311   N     0.08291   0.61975   0.19577   0.00000  Uiso   1.00
H312   H     0.04663   0.61234   0.20390   0.00000  Uiso   1.00
C313   C     0.08512   0.62372   0.14406   0.00000  Uiso   1.00
H314   H     0.07792   0.59118   0.12550   0.00000  Uiso   1.00
H315   H     0.12342   0.63625   0.13747   0.00000  Uiso   1.00
H316   H     0.05511   0.64746   0.12802   0.00000  Uiso   1.00
N317   N     0.09647   0.88029   0.30327   0.00000  Uiso   1.00
H318   H     0.09215   0.89180   0.33758   0.00000  Uiso   1.00
C319   C     0.04830   0.86789   0.27429   0.00000  Uiso   1.00
H320   H     0.02468   0.89781   0.26371   0.00000  Uiso   1.00
H321   H     0.02628   0.84580   0.29582   0.00000  Uiso   1.00
H322   H     0.05563   0.84976   0.24090   0.00000  Uiso   1.00
C323   C     0.07783   0.52377   0.19370   0.00000  Uiso   1.00
H324   H     0.04101   0.54016   0.18396   0.00000  Uiso   1.00
O325   O     0.08225   0.98584   0.17924   0.00000  Uiso   1.00
C326   C     0.09417   0.97597   0.30922   0.00000  Uiso   1.00
H327   H     0.05893   0.96016   0.31660   0.00000  Uiso   1.00
O328   O     0.10384   0.51296   0.32605   0.00000  Uiso   1.00
C329   C     0.49959   0.66507   0.24975   0.00000  Uiso   1.00
C330   C     0.49961   0.83507   0.25009   0.00000  Uiso   1.00
C331   C     0.54375   0.76311   0.05931   0.00000  Uiso   1.00
C332   C     0.45837   0.76774   0.44104   0.00000  Uiso   1.00
C333   C     0.54279   0.76333   0.11003   0.00000  Uiso   1.00
C334   C     0.45941   0.76787   0.39032   0.00000  Uiso   1.00
C335   C     0.45713   0.73685   0.09879   0.00000  Uiso   1.00
C336   C     0.54060   0.73219   0.40064   0.00000  Uiso   1.00
C337   C     0.45615   0.73708   0.04780   0.00000  Uiso   1.00
C338   C     0.54160   0.73236   0.45163   0.00000  Uiso   1.00
C339   C     0.49996   0.75007   0.02717   0.00000  Uiso   1.00
C340   C     0.49997   0.75005   0.47272   0.00000  Uiso   1.00
C341   C     0.40122   0.74981   0.23755   0.00000  Uiso   1.00
C342   C     0.59878   0.75005   0.26245   0.00000  Uiso   1.00
C343   C     0.34597   0.74968   0.23066   0.00000  Uiso   1.00
C344   C     0.65404   0.74999   0.26933   0.00000  Uiso   1.00
C345   C     0.53752   0.54732   0.27670   0.00000  Uiso   1.00
C346   C     0.53086   0.95367   0.22725   0.00000  Uiso   1.00
C347   C     0.53939   0.59333   0.27598   0.00000  Uiso   1.00
C348   C     0.53108   0.90766   0.22481   0.00000  Uiso   1.00
C349   C     0.49883   0.61685   0.24901   0.00000  Uiso   1.00
C350   C     0.49765   0.88351   0.25041   0.00000  Uiso   1.00
C351   C     0.45694   0.59445   0.22199   0.00000  Uiso   1.00
C352   C     0.46350   0.90566   0.27791   0.00000  Uiso   1.00
C353   C     0.45524   0.54762   0.22253   0.00000  Uiso   1.00
C354   C     0.46342   0.95247   0.28025   0.00000  Uiso   1.00
C355   C     0.49615   0.52449   0.25059   0.00000  Uiso   1.00
C356   C     0.49703   0.97606   0.25377   0.00000  Uiso   1.00
Cu357  Cu    0.50000   0.74999   0.29822   0.00000  Uiso   1.00
Cu358  Cu    0.50000   0.75000   0.20179   0.00000  Uiso   1.00
H359   H     0.65935   0.74941   0.19356   0.00000  Uiso   1.00
H360   H     0.34067   0.75022   0.30643   0.00000  Uiso   1.00
H361   H     0.56866   0.52907   0.29768   0.00000  Uiso   1.00
H362   H     0.55658   0.97224   0.20739   0.00000  Uiso   1.00
H363   H     0.57830   0.77387   0.04529   0.00000  Uiso   1.00
H364   H     0.42560   0.78213   0.45544   0.00000  Uiso   1.00
H365   H     0.57662   0.77445   0.13374   0.00000  Uiso   1.00
H366   H     0.42749   0.78248   0.36678   0.00000  Uiso   1.00
H367   H     0.42323   0.72599   0.11362   0.00000  Uiso   1.00
H368   H     0.57257   0.71766   0.38519   0.00000  Uiso   1.00
H369   H     0.42155   0.72641   0.02469   0.00000  Uiso   1.00
H370   H     0.57437   0.71801   0.47437   0.00000  Uiso   1.00
N371   N     0.50000   0.75001   0.12935   0.00000  Uiso   1.00
N372   N     0.50000   0.74999   0.37066   0.00000  Uiso   1.00
O373   O     0.50000   0.68572   0.29072   0.00000  Uiso   1.00
O374   O     0.50000   0.81427   0.20929   0.00000  Uiso   1.00
O375   O     0.50000   0.68573   0.20928   0.00000  Uiso   1.00
O376   O     0.50000   0.81427   0.29072   0.00000  Uiso   1.00
O377   O     0.42495   0.74999   0.28132   0.00000  Uiso   1.00
O378   O     0.57505   0.75000   0.21868   0.00000  Uiso   1.00
O379   O     0.42495   0.75000   0.19989   0.00000  Uiso   1.00
O380   O     0.57505   0.75000   0.30012   0.00000  Uiso   1.00
N381   N     0.58228   0.61590   0.30236   0.00000  Uiso   1.00
H382   H     0.59785   0.59998   0.33386   0.00000  Uiso   1.00
C383   C     0.62154   0.62847   0.27302   0.00000  Uiso   1.00
H384   H     0.63941   0.59844   0.25894   0.00000  Uiso   1.00
H385   H     0.65203   0.64792   0.29562   0.00000  Uiso   1.00
H386   H     0.60483   0.64936   0.24191   0.00000  Uiso   1.00
N387   N     0.56665   0.88572   0.19826   0.00000  Uiso   1.00
H388   H     0.60380   0.89756   0.20655   0.00000  Uiso   1.00
C389   C     0.55058   0.88405   0.14618   0.00000  Uiso   1.00
H390   H     0.54942   0.91797   0.13065   0.00000  Uiso   1.00
H391   H     0.51182   0.86866   0.13780   0.00000  Uiso   1.00
H392   H     0.57848   0.86378   0.12870   0.00000  Uiso   1.00
N393   N     0.41625   0.61975   0.19577   0.00000  Uiso   1.00
H394   H     0.37996   0.61234   0.20390   0.00000  Uiso   1.00
C395   C     0.41845   0.62372   0.14406   0.00000  Uiso   1.00
H396   H     0.41125   0.59118   0.12550   0.00000  Uiso   1.00
H397   H     0.45675   0.63625   0.13747   0.00000  Uiso   1.00
H398   H     0.38844   0.64746   0.12802   0.00000  Uiso   1.00
N399   N     0.42980   0.88029   0.30327   0.00000  Uiso   1.00
H400   H     0.42548   0.89180   0.33758   0.00000  Uiso   1.00
C401   C     0.38163   0.86789   0.27429   0.00000  Uiso   1.00
H402   H     0.35802   0.89781   0.26371   0.00000  Uiso   1.00
H403   H     0.35962   0.84580   0.29582   0.00000  Uiso   1.00
H404   H     0.38896   0.84976   0.24090   0.00000  Uiso   1.00
C405   C     0.41116   0.52377   0.19370   0.00000  Uiso   1.00
H406   H     0.37434   0.54016   0.18396   0.00000  Uiso   1.00
O407   O     0.41558   0.98584   0.17924   0.00000  Uiso   1.00
C408   C     0.42751   0.97597   0.30922   0.00000  Uiso   1.00
H409   H     0.39226   0.96016   0.31660   0.00000  Uiso   1.00
O410   O     0.43717   0.51296   0.32605   0.00000  Uiso   1.00
C411   C     0.83292   0.66507   0.24975   0.00000  Uiso   1.00
C412   C     0.83294   0.83507   0.25009   0.00000  Uiso   1.00
C413   C     0.87709   0.76311   0.05931   0.00000  Uiso   1.00
C414   C     0.79170   0.76774   0.44104   0.00000  Uiso   1.00
C415   C     0.87613   0.76333   0.11003   0.00000  Uiso   1.00
C416   C     0.79274   0.76787   0.39032   0.00000  Uiso   1.00
C417   C     0.79046   0.73685   0.09879   0.00000  Uiso   1.00
C418   C     0.87394   0.73219   0.40064   0.00000  Uiso   1.00
C419   C     0.78948   0.73708   0.04780   0.00000  Uiso   1.00
C420   C     0.87493   0.73236   0.45163   0.00000  Uiso   1.00
C421   C     0.83329   0.75007   0.02717   0.00000  Uiso   1.00
C422   C     0.83330   0.75005   0.47272   0.00000  Uiso   1.00
C423   C     0.73455   0.74981   0.23755   0.00000  Uiso   1.00
C424   C     0.93211   0.75005   0.26245   0.00000  Uiso   1.00
C425   C     0.67930   0.74968   0.23066   0.00000  Uiso   1.00
C426   C     0.98737   0.74999   0.26933   0.00000  Uiso   1.00
C427   C     0.87085   0.54732   0.27670   0.00000  Uiso   1.00
C428   C     0.86419   0.95367   0.22725   0.00000  Uiso   1.00
C429   C     0.87273   0.59333   0.27598   0.00000  Uiso   1.00
C430   C     0.86441   0.90766   0.22481   0.00000  Uiso   1.00
C431   C     0.83216   0.61685   0.24901   0.00000  Uiso   1.00
C432   C     0.83099   0.88351   0.25041   0.00000  Uiso   1.00
C433   C     0.79027   0.59445   0.22199   0.00000  Uiso   1.00
C434   C     0.79684   0.90566   0.27791   0.00000  Uiso   1.00
C435   C     0.78858   0.54762   0.22253   0.00000  Uiso   1.00
C436   C     0.79675   0.95247   0.28025   0.00000  Uiso   1.00
C437   C     0.82948   0.52449   0.25059   0.00000  Uiso   1.00
C438   C     0.83037   0.97606   0.25377   0.00000  Uiso   1.00
Cu439  Cu    0.83333   0.74999   0.29822   0.00000  Uiso   1.00
Cu440  Cu    0.83333   0.75000   0.20179   0.00000  Uiso   1.00
H441   H     0.99268   0.74941   0.19356   0.00000  Uiso   1.00
H442   H     0.67401   0.75022   0.30643   0.00000  Uiso   1.00
H443   H     0.90199   0.52907   0.29768   0.00000  Uiso   1.00
H444   H     0.88991   0.97224   0.20739   0.00000  Uiso   1.00
H445   H     0.91164   0.77387   0.04529   0.00000  Uiso   1.00
H446   H     0.75893   0.78213   0.45544   0.00000  Uiso   1.00
H447   H     0.90995   0.77445   0.13374   0.00000  Uiso   1.00
H448   H     0.76083   0.78248   0.36678   0.00000  Uiso   1.00
H449   H     0.75656   0.72599   0.11362   0.00000  Uiso   1.00
H450   H     0.90590   0.71766   0.38519   0.00000  Uiso   1.00
H451   H     0.75488   0.72641   0.02469   0.00000  Uiso   1.00
H452   H     0.90771   0.71801   0.47437   0.00000  Uiso   1.00
N453   N     0.83333   0.75001   0.12935   0.00000  Uiso   1.00
N454   N     0.83333   0.74999   0.37066   0.00000  Uiso   1.00
O455   O     0.83334   0.68572   0.29072   0.00000  Uiso   1.00
O456   O     0.83333   0.81427   0.20929   0.00000  Uiso   1.00
O457   O     0.83334   0.68573   0.20928   0.00000  Uiso   1.00
O458   O     0.83333   0.81427   0.29072   0.00000  Uiso   1.00
O459   O     0.75828   0.74999   0.28132   0.00000  Uiso   1.00
O460   O     0.90839   0.75000   0.21868   0.00000  Uiso   1.00
O461   O     0.75828   0.75000   0.19989   0.00000  Uiso   1.00
O462   O     0.90839   0.75000   0.30012   0.00000  Uiso   1.00
N463   N     0.91562   0.61590   0.30236   0.00000  Uiso   1.00
H464   H     0.93118   0.59998   0.33386   0.00000  Uiso   1.00
C465   C     0.95487   0.62847   0.27302   0.00000  Uiso   1.00
H466   H     0.97275   0.59844   0.25894   0.00000  Uiso   1.00
H467   H     0.98536   0.64792   0.29562   0.00000  Uiso   1.00
H468   H     0.93816   0.64936   0.24191   0.00000  Uiso   1.00
N469   N     0.89999   0.88572   0.19826   0.00000  Uiso   1.00
H470   H     0.93714   0.89756   0.20655   0.00000  Uiso   1.00
C471   C     0.88392   0.88405   0.14618   0.00000  Uiso   1.00
H472   H     0.88275   0.91797   0.13065   0.00000  Uiso   1.00
H473   H     0.84516   0.86866   0.13780   0.00000  Uiso   1.00
H474   H     0.91182   0.86378   0.12870   0.00000  Uiso   1.00
N475   N     0.74958   0.61975   0.19577   0.00000  Uiso   1.00
H476   H     0.71330   0.61234   0.20390   0.00000  Uiso   1.00
C477   C     0.75178   0.62372   0.14406   0.00000  Uiso   1.00
H478   H     0.74458   0.59118   0.12550   0.00000  Uiso   1.00
H479   H     0.79008   0.63625   0.13747   0.00000  Uiso   1.00
H480   H     0.72178   0.64746   0.12802   0.00000  Uiso   1.00
N481   N     0.76313   0.88029   0.30327   0.00000  Uiso   1.00
H482   H     0.75881   0.89180   0.33758   0.00000  Uiso   1.00
C483   C     0.71497   0.86789   0.27429   0.00000  Uiso   1.00
H484   H     0.69135   0.89781   0.26371   0.00000  Uiso   1.00
H485   H     0.69295   0.84580   0.29582   0.00000  Uiso   1.00
H486   H     0.72229   0.84976   0.24090   0.00000  Uiso   1.00
C487   C     0.74449   0.52377   0.19370   0.00000  Uiso   1.00
H488   H     0.70767   0.54016   0.18396   0.00000  Uiso   1.00
O489   O     0.74892   0.98584   0.17924   0.00000  Uiso   1.00
C490   C     0.76084   0.97597   0.30922   0.00000  Uiso   1.00
H491   H     0.72560   0.96016   0.31660   0.00000  Uiso   1.00
O492   O     0.77051   0.51296   0.32605   0.00000  Uiso   1.00
C493   C     0.16626   0.16507   0.74975   0.00000  Uiso   1.00
C494   C     0.16627   0.33507   0.75009   0.00000  Uiso   1.00
C495   C     0.21042   0.26311   0.55931   0.00000  Uiso   1.00
C496   C     0.12503   0.26774   0.94104   0.00000  Uiso   1.00
C497   C     0.20946   0.26333   0.61003   0.00000  Uiso   1.00
C498   C     0.12607   0.26787   0.89032   0.00000  Uiso   1.00
C499   C     0.12380   0.23685   0.59879   0.00000  Uiso   1.00
C500   C     0.20727   0.23219   0.90064   0.00000  Uiso   1.00
C501   C     0.12281   0.23708   0.54780   0.00000  Uiso   1.00
C502   C     0.20827   0.23236   0.95163   0.00000  Uiso   1.00
C503   C     0.16662   0.25007   0.52717   0.00000  Uiso   1.00
C504   C     0.16664   0.25005   0.97272   0.00000  Uiso   1.00
C505   C     0.06789   0.24981   0.73755   0.00000  Uiso   1.00
C506   C     0.26545   0.25005   0.76245   0.00000  Uiso   1.00
C507   C     0.01263   0.24968   0.73066   0.00000  Uiso   1.00
C508   C     0.32071   0.24999   0.76933   0.00000  Uiso   1.00
C509   C     0.20418   0.04732   0.77670   0.00000  Uiso   1.00
C510   C     0.19752   0.45367   0.72725   0.00000  Uiso   1.00
C511   C     0.20606   0.09333   0.77598   0.00000  Uiso   1.00
C512   C     0.19774   0.40766   0.72481   0.00000  Uiso   1.00
C513   C     0.16549   0.11685   0.74901   0.00000  Uiso   1.00
C514   C     0.16432   0.38351   0.75041   0.00000  Uiso   1.00
C515   C     0.12361   0.09445   0.72199   0.00000  Uiso   1.00
C516   C     0.13017   0.40566   0.77791   0.00000  Uiso   1.00
C517   C     0.12191   0.04762   0.72253   0.00000  Uiso   1.00
C518   C     0.13008   0.45247   0.78025   0.00000  Uiso   1.00
C519   C     0.16281   0.02449   0.75059   0.00000  Uiso   1.00
C520   C     0.16370   0.47606   0.75377   0.00000  Uiso   1.00
Cu521  Cu    0.16667   0.24999   0.79822   0.00000  Uiso   1.00
Cu522  Cu    0.16667   0.25000   0.70179   0.00000  Uiso   1.00
H523   H     0.32602   0.24941   0.69356   0.00000  Uiso   1.00
H524   H     0.00734   0.25022   0.80643   0.00000  Uiso   1.00
H525   H     0.23533   0.02907   0.79768   0.00000  Uiso   1.00
H526   H     0.22324   0.47224   0.70739   0.00000  Uiso   1.00
H527   H     0.24497   0.27387   0.54529   0.00000  Uiso   1.00
H528   H     0.09227   0.28213   0.95544   0.00000  Uiso   1.00
H529   H     0.24329   0.27445   0.63374   0.00000  Uiso   1.00
H530   H     0.09416   0.28248   0.86678   0.00000  Uiso   1.00
H531   H     0.08989   0.22599   0.61362   0.00000  Uiso   1.00
H532   H     0.23924   0.21766   0.88519   0.00000  Uiso   1.00
H533   H     0.08822   0.22641   0.52469   0.00000  Uiso   1.00
H534   H     0.24104   0.21801   0.97437   0.00000  Uiso   1.00
N535   N     0.16667   0.25001   0.62935   0.00000  Uiso   1.00
N536   N     0.16667   0.24999   0.87066   0.00000  Uiso   1.00
O537   O     0.16667   0.18572   0.79072   0.00000  Uiso   1.00
O538   O     0.16666   0.31427   0.70929   0.00000  Uiso   1.00
O539   O     0.16667   0.18573   0.70928   0.00000  Uiso   1.00
O540   O     0.16666   0.31427   0.79072   0.00000  Uiso   1.00
O541   O     0.09161   0.24999   0.78132   0.00000  Uiso   1.00
O542   O     0.24172   0.25000   0.71868   0.00000  Uiso   1.00
O543   O     0.09161   0.25000   0.69989   0.00000  Uiso   1.00
O544   O     0.24172   0.25000   0.80012   0.00000  Uiso   1.00
N545   N     0.24895   0.11590   0.80236   0.00000  Uiso   1.00
H546   H     0.26451   0.09998   0.83386   0.00000  Uiso   1.00
C547   C     0.28821   0.12847   0.77302   0.00000  Uiso   1.00
H548   H     0.30608   0.09844   0.75894   0.00000  Uiso   1.00
H549   H     0.31869   0.14792   0.79562   0.00000  Uiso   1.00
H550   H     0.27150   0.14936   0.74191   0.00000  Uiso   1.00
N551   N     0.23332   0.38572   0.69826   0.00000  Uiso   1.00
H552   H     0.27047   0.39756   0.70655   0.00000  Uiso   1.00
C553   C     0.21725   0.38405   0.64618   0.00000  Uiso   1.00
H554   H     0.21608   0.41797   0.63065   0.00000  Uiso   1.00
H555   H     0.17849   0.36866   0.63780   0.00000  Uiso   1.00
H556   H     0.24515   0.36378   0.62870   0.00000  Uiso   1.00
N557   N     0.08291   0.11975   0.69577   0.00000  Uiso   1.00
H558   H     0.04663   0.11234   0.70390   0.00000  Uiso   1.00
C559   C     0.08512   0.12372   0.64406   0.00000  Uiso   1.00
H560   H     0.07792   0.09118   0.62550   0.00000  Uiso   1.00
H561   H     0.12342   0.13625   0.63747   0.00000  Uiso   1.00
H562   H     0.05511   0.14746   0.62802   0.00000  Uiso   1.00
N563   N     0.09647   0.38029   0.80327   0.00000  Uiso   1.00
H564   H     0.09215   0.39180   0.83758   0.00000  Uiso   1.00
C565   C     0.04830   0.36789   0.77429   0.00000  Uiso   1.00
H566   H     0.02468   0.39781   0.76371   0.00000  Uiso   1.00
H567   H     0.02628   0.34580   0.79582   0.00000  Uiso   1.00
H568   H     0.05563   0.34976   0.74090   0.00000  Uiso   1.00
C569   C     0.07783   0.02377   0.69370   0.00000  Uiso   1.00
H570   H     0.04101   0.04016   0.68396   0.00000  Uiso   1.00
O571   O     0.08225   0.48584   0.67924   0.00000  Uiso   1.00
C572   C     0.09417   0.47597   0.80922   0.00000  Uiso   1.00
H573   H     0.05893   0.46016   0.81660   0.00000  Uiso   1.00
O574   O     0.10384   0.01296   0.82605   0.00000  Uiso   1.00
C575   C     0.49959   0.16507   0.74975   0.00000  Uiso   1.00
C576   C     0.49961   0.33507   0.75009   0.00000  Uiso   1.00
C577   C     0.54375   0.26311   0.55931   0.00000  Uiso   1.00
C578   C     0.45837   0.26774   0.94104   0.00000  Uiso   1.00
C579   C     0.54279   0.26333   0.61003   0.00000  Uiso   1.00
C580   C     0.45941   0.26787   0.89032   0.00000  Uiso   1.00
C581   C     0.45713   0.23685   0.59879   0.00000  Uiso   1.00
C582   C     0.54060   0.23219   0.90064   0.00000  Uiso   1.00
C583   C     0.45615   0.23708   0.54780   0.00000  Uiso   1.00
C584   C     0.54160   0.23236   0.95163   0.00000  Uiso   1.00
C585   C     0.49996   0.25007   0.52717   0.00000  Uiso   1.00
C586   C     0.49997   0.25005   0.97272   0.00000  Uiso   1.00
C587   C     0.40122   0.24981   0.73755   0.00000  Uiso   1.00
C588   C     0.59878   0.25005   0.76245   0.00000  Uiso   1.00
C589   C     0.34597   0.24968   0.73066   0.00000  Uiso   1.00
C590   C     0.65404   0.24999   0.76933   0.00000  Uiso   1.00
C591   C     0.53752   0.04732   0.77670   0.00000  Uiso   1.00
C592   C     0.53086   0.45367   0.72725   0.00000  Uiso   1.00
C593   C     0.53939   0.09333   0.77598   0.00000  Uiso   1.00
C594   C     0.53108   0.40766   0.72481   0.00000  Uiso   1.00
C595   C     0.49883   0.11685   0.74901   0.00000  Uiso   1.00
C596   C     0.49765   0.38351   0.75041   0.00000  Uiso   1.00
C597   C     0.45694   0.09445   0.72199   0.00000  Uiso   1.00
C598   C     0.46350   0.40566   0.77791   0.00000  Uiso   1.00
C599   C     0.45524   0.04762   0.72253   0.00000  Uiso   1.00
C600   C     0.46342   0.45247   0.78025   0.00000  Uiso   1.00
C601   C     0.49615   0.02449   0.75059   0.00000  Uiso   1.00
C602   C     0.49703   0.47606   0.75377   0.00000  Uiso   1.00
Cu603  Cu    0.50000   0.24999   0.79822   0.00000  Uiso   1.00
Cu604  Cu    0.50000   0.25000   0.70179   0.00000  Uiso   1.00
H605   H     0.65935   0.24941   0.69356   0.00000  Uiso   1.00
H606   H     0.34067   0.25022   0.80643   0.00000  Uiso   1.00
H607   H     0.56866   0.02907   0.79768   0.00000  Uiso   1.00
H608   H     0.55658   0.47224   0.70739   0.00000  Uiso   1.00
H609   H     0.57830   0.27387   0.54529   0.00000  Uiso   1.00
H610   H     0.42560   0.28213   0.95544   0.00000  Uiso   1.00
H611   H     0.57662   0.27445   0.63374   0.00000  Uiso   1.00
H612   H     0.42749   0.28248   0.86678   0.00000  Uiso   1.00
H613   H     0.42323   0.22599   0.61362   0.00000  Uiso   1.00
H614   H     0.57257   0.21766   0.88519   0.00000  Uiso   1.00
H615   H     0.42155   0.22641   0.52469   0.00000  Uiso   1.00
H616   H     0.57437   0.21801   0.97437   0.00000  Uiso   1.00
N617   N     0.50000   0.25001   0.62935   0.00000  Uiso   1.00
N618   N     0.50000   0.24999   0.87066   0.00000  Uiso   1.00
O619   O     0.50000   0.18572   0.79072   0.00000  Uiso   1.00
O620   O     0.50000   0.31427   0.70929   0.00000  Uiso   1.00
O621   O     0.50000   0.18573   0.70928   0.00000  Uiso   1.00
O622   O     0.50000   0.31427   0.79072   0.00000  Uiso   1.00
O623   O     0.42495   0.24999   0.78132   0.00000  Uiso   1.00
O624   O     0.57505   0.25000   0.71868   0.00000  Uiso   1.00
O625   O     0.42495   0.25000   0.69989   0.00000  Uiso   1.00
O626   O     0.57505   0.25000   0.80012   0.00000  Uiso   1.00
N627   N     0.58228   0.11590   0.80236   0.00000  Uiso   1.00
H628   H     0.59785   0.09998   0.83386   0.00000  Uiso   1.00
C629   C     0.62154   0.12847   0.77302   0.00000  Uiso   1.00
H630   H     0.63941   0.09844   0.75894   0.00000  Uiso   1.00
H631   H     0.65203   0.14792   0.79562   0.00000  Uiso   1.00
H632   H     0.60483   0.14936   0.74191   0.00000  Uiso   1.00
N633   N     0.56665   0.38572   0.69826   0.00000  Uiso   1.00
H634   H     0.60380   0.39756   0.70655   0.00000  Uiso   1.00
C635   C     0.55058   0.38405   0.64618   0.00000  Uiso   1.00
H636   H     0.54942   0.41797   0.63065   0.00000  Uiso   1.00
H637   H     0.51182   0.36866   0.63780   0.00000  Uiso   1.00
H638   H     0.57848   0.36378   0.62870   0.00000  Uiso   1.00
N639   N     0.41625   0.11975   0.69577   0.00000  Uiso   1.00
H640   H     0.37996   0.11234   0.70390   0.00000  Uiso   1.00
C641   C     0.41845   0.12372   0.64406   0.00000  Uiso   1.00
H642   H     0.41125   0.09118   0.62550   0.00000  Uiso   1.00
H643   H     0.45675   0.13625   0.63747   0.00000  Uiso   1.00
H644   H     0.38844   0.14746   0.62802   0.00000  Uiso   1.00
N645   N     0.42980   0.38029   0.80327   0.00000  Uiso   1.00
H646   H     0.42548   0.39180   0.83758   0.00000  Uiso   1.00
C647   C     0.38163   0.36789   0.77429   0.00000  Uiso   1.00
H648   H     0.35802   0.39781   0.76371   0.00000  Uiso   1.00
H649   H     0.35962   0.34580   0.79582   0.00000  Uiso   1.00
H650   H     0.38896   0.34976   0.74090   0.00000  Uiso   1.00
C651   C     0.41116   0.02377   0.69370   0.00000  Uiso   1.00
H652   H     0.37434   0.04016   0.68396   0.00000  Uiso   1.00
O653   O     0.41558   0.48584   0.67924   0.00000  Uiso   1.00
C654   C     0.42751   0.47597   0.80922   0.00000  Uiso   1.00
H655   H     0.39226   0.46016   0.81660   0.00000  Uiso   1.00
O656   O     0.43717   0.01296   0.82605   0.00000  Uiso   1.00
C657   C     0.83292   0.16507   0.74975   0.00000  Uiso   1.00
C658   C     0.83294   0.33507   0.75009   0.00000  Uiso   1.00
C659   C     0.87709   0.26311   0.55931   0.00000  Uiso   1.00
C660   C     0.79170   0.26774   0.94104   0.00000  Uiso   1.00
C661   C     0.87613   0.26333   0.61003   0.00000  Uiso   1.00
C662   C     0.79274   0.26787   0.89032   0.00000  Uiso   1.00
C663   C     0.79046   0.23685   0.59879   0.00000  Uiso   1.00
C664   C     0.87394   0.23219   0.90064   0.00000  Uiso   1.00
C665   C     0.78948   0.23708   0.54780   0.00000  Uiso   1.00
C666   C     0.87493   0.23236   0.95163   0.00000  Uiso   1.00
C667   C     0.83329   0.25007   0.52717   0.00000  Uiso   1.00
C668   C     0.83330   0.25005   0.97272   0.00000  Uiso   1.00
C669   C     0.73455   0.24981   0.73755   0.00000  Uiso   1.00
C670   C     0.93211   0.25005   0.76245   0.00000  Uiso   1.00
C671   C     0.67930   0.24968   0.73066   0.00000  Uiso   1.00
C672   C     0.98737   0.24999   0.76933   0.00000  Uiso   1.00
C673   C     0.87085   0.04732   0.77670   0.00000  Uiso   1.00
C674   C     0.86419   0.45367   0.72725   0.00000  Uiso   1.00
C675   C     0.87273   0.09333   0.77598   0.00000  Uiso   1.00
C676   C     0.86441   0.40766   0.72481   0.00000  Uiso   1.00
C677   C     0.83216   0.11685   0.74901   0.00000  Uiso   1.00
C678   C     0.83099   0.38351   0.75041   0.00000  Uiso   1.00
C679   C     0.79027   0.09445   0.72199   0.00000  Uiso   1.00
C680   C     0.79684   0.40566   0.77791   0.00000  Uiso   1.00
C681   C     0.78858   0.04762   0.72253   0.00000  Uiso   1.00
C682   C     0.79675   0.45247   0.78025   0.00000  Uiso   1.00
C683   C     0.82948   0.02449   0.75059   0.00000  Uiso   1.00
C684   C     0.83037   0.47606   0.75377   0.00000  Uiso   1.00
Cu685  Cu    0.83333   0.24999   0.79822   0.00000  Uiso   1.00
Cu686  Cu    0.83333   0.25000   0.70179   0.00000  Uiso   1.00
H687   H     0.99268   0.24941   0.69356   0.00000  Uiso   1.00
H688   H     0.67401   0.25022   0.80643   0.00000  Uiso   1.00
H689   H     0.90199   0.02907   0.79768   0.00000  Uiso   1.00
H690   H     0.88991   0.47224   0.70739   0.00000  Uiso   1.00
H691   H     0.91164   0.27387   0.54529   0.00000  Uiso   1.00
H692   H     0.75893   0.28213   0.95544   0.00000  Uiso   1.00
H693   H     0.90995   0.27445   0.63374   0.00000  Uiso   1.00
H694   H     0.76083   0.28248   0.86678   0.00000  Uiso   1.00
H695   H     0.75656   0.22599   0.61362   0.00000  Uiso   1.00
H696   H     0.90590   0.21766   0.88519   0.00000  Uiso   1.00
H697   H     0.75488   0.22641   0.52469   0.00000  Uiso   1.00
H698   H     0.90771   0.21801   0.97437   0.00000  Uiso   1.00
N699   N     0.83333   0.25001   0.62935   0.00000  Uiso   1.00
N700   N     0.83333   0.24999   0.87066   0.00000  Uiso   1.00
O701   O     0.83334   0.18572   0.79072   0.00000  Uiso   1.00
O702   O     0.83333   0.31427   0.70929   0.00000  Uiso   1.00
O703   O     0.83334   0.18573   0.70928   0.00000  Uiso   1.00
O704   O     0.83333   0.31427   0.79072   0.00000  Uiso   1.00
O705   O     0.75828   0.24999   0.78132   0.00000  Uiso   1.00
O706   O     0.90839   0.25000   0.71868   0.00000  Uiso   1.00
O707   O     0.75828   0.25000   0.69989   0.00000  Uiso   1.00
O708   O     0.90839   0.25000   0.80012   0.00000  Uiso   1.00
N709   N     0.91562   0.11590   0.80236   0.00000  Uiso   1.00
H710   H     0.93118   0.09998   0.83386   0.00000  Uiso   1.00
C711   C     0.95487   0.12847   0.77302   0.00000  Uiso   1.00
H712   H     0.97275   0.09844   0.75894   0.00000  Uiso   1.00
H713   H     0.98536   0.14792   0.79562   0.00000  Uiso   1.00
H714   H     0.93816   0.14936   0.74191   0.00000  Uiso   1.00
N715   N     0.89999   0.38572   0.69826   0.00000  Uiso   1.00
H716   H     0.93714   0.39756   0.70655   0.00000  Uiso   1.00
C717   C     0.88392   0.38405   0.64618   0.00000  Uiso   1.00
H718   H     0.88275   0.41797   0.63065   0.00000  Uiso   1.00
H719   H     0.84516   0.36866   0.63780   0.00000  Uiso   1.00
H720   H     0.91182   0.36378   0.62870   0.00000  Uiso   1.00
N721   N     0.74958   0.11975   0.69577   0.00000  Uiso   1.00
H722   H     0.71330   0.11234   0.70390   0.00000  Uiso   1.00
C723   C     0.75178   0.12372   0.64406   0.00000  Uiso   1.00
H724   H     0.74458   0.09118   0.62550   0.00000  Uiso   1.00
H725   H     0.79008   0.13625   0.63747   0.00000  Uiso   1.00
H726   H     0.72178   0.14746   0.62802   0.00000  Uiso   1.00
N727   N     0.76313   0.38029   0.80327   0.00000  Uiso   1.00
H728   H     0.75881   0.39180   0.83758   0.00000  Uiso   1.00
C729   C     0.71497   0.36789   0.77429   0.00000  Uiso   1.00
H730   H     0.69135   0.39781   0.76371   0.00000  Uiso   1.00
H731   H     0.69295   0.34580   0.79582   0.00000  Uiso   1.00
H732   H     0.72229   0.34976   0.74090   0.00000  Uiso   1.00
C733   C     0.74449   0.02377   0.69370   0.00000  Uiso   1.00
H734   H     0.70767   0.04016   0.68396   0.00000  Uiso   1.00
O735   O     0.74892   0.48584   0.67924   0.00000  Uiso   1.00
C736   C     0.76084   0.47597   0.80922   0.00000  Uiso   1.00
H737   H     0.72560   0.46016   0.81660   0.00000  Uiso   1.00
O738   O     0.77051   0.01296   0.82605   0.00000  Uiso   1.00
C739   C     0.16626   0.66507   0.74975   0.00000  Uiso   1.00
C740   C     0.16627   0.83507   0.75009   0.00000  Uiso   1.00
C741   C     0.21042   0.76311   0.55931   0.00000  Uiso   1.00
C742   C     0.12503   0.76774   0.94104   0.00000  Uiso   1.00
C743   C     0.20946   0.76333   0.61003   0.00000  Uiso   1.00
C744   C     0.12607   0.76787   0.89032   0.00000  Uiso   1.00
C745   C     0.12380   0.73685   0.59879   0.00000  Uiso   1.00
C746   C     0.20727   0.73219   0.90064   0.00000  Uiso   1.00
C747   C     0.12281   0.73708   0.54780   0.00000  Uiso   1.00
C748   C     0.20827   0.73236   0.95163   0.00000  Uiso   1.00
C749   C     0.16662   0.75007   0.52717   0.00000  Uiso   1.00
C750   C     0.16664   0.75005   0.97272   0.00000  Uiso   1.00
C751   C     0.06789   0.74981   0.73755   0.00000  Uiso   1.00
C752   C     0.26545   0.75005   0.76245   0.00000  Uiso   1.00
C753   C     0.01263   0.74968   0.73066   0.00000  Uiso   1.00
C754   C     0.32071   0.74999   0.76933   0.00000  Uiso   1.00
C755   C     0.20418   0.54732   0.77670   0.00000  Uiso   1.00
C756   C     0.19752   0.95367   0.72725   0.00000  Uiso   1.00
C757   C     0.20606   0.59333   0.77598   0.00000  Uiso   1.00
C758   C     0.19774   0.90766   0.72481   0.00000  Uiso   1.00
C759   C     0.16549   0.61685   0.74901   0.00000  Uiso   1.00
C760   C     0.16432   0.88351   0.75041   0.00000  Uiso   1.00
C761   C     0.12361   0.59445   0.72199   0.00000  Uiso   1.00
C762   C     0.13017   0.90566   0.77791   0.00000  Uiso   1.00
C763   C     0.12191   0.54762   0.72253   0.00000  Uiso   1.00
C764   C     0.13008   0.95247   0.78025   0.00000  Uiso   1.00
C765   C     0.16281   0.52449   0.75059   0.00000  Uiso   1.00
C766   C     0.16370   0.97606   0.75377   0.00000  Uiso   1.00
Cu767  Cu    0.16667   0.74999   0.79822   0.00000  Uiso   1.00
Cu768  Cu    0.16667   0.75000   0.70179   0.00000  Uiso   1.00
H769   H     0.32602   0.74941   0.69356   0.00000  Uiso   1.00
H770   H     0.00734   0.75022   0.80643   0.00000  Uiso   1.00
H771   H     0.23533   0.52907   0.79768   0.00000  Uiso   1.00
H772   H     0.22324   0.97224   0.70739   0.00000  Uiso   1.00
H773   H     0.24497   0.77387   0.54529   0.00000  Uiso   1.00
H774   H     0.09227   0.78213   0.95544   0.00000  Uiso   1.00
H775   H     0.24329   0.77445   0.63374   0.00000  Uiso   1.00
H776   H     0.09416   0.78248   0.86678   0.00000  Uiso   1.00
H777   H     0.08989   0.72599   0.61362   0.00000  Uiso   1.00
H778   H     0.23924   0.71766   0.88519   0.00000  Uiso   1.00
H779   H     0.08822   0.72641   0.52469   0.00000  Uiso   1.00
H780   H     0.24104   0.71801   0.97437   0.00000  Uiso   1.00
N781   N     0.16667   0.75001   0.62935   0.00000  Uiso   1.00
N782   N     0.16667   0.74999   0.87066   0.00000  Uiso   1.00
O783   O     0.16667   0.68572   0.79072   0.00000  Uiso   1.00
O784   O     0.16666   0.81427   0.70929   0.00000  Uiso   1.00
O785   O     0.16667   0.68573   0.70928   0.00000  Uiso   1.00
O786   O     0.16666   0.81427   0.79072   0.00000  Uiso   1.00
O787   O     0.09161   0.74999   0.78132   0.00000  Uiso   1.00
O788   O     0.24172   0.75000   0.71868   0.00000  Uiso   1.00
O789   O     0.09161   0.75000   0.69989   0.00000  Uiso   1.00
O790   O     0.24172   0.75000   0.80012   0.00000  Uiso   1.00
N791   N     0.24895   0.61590   0.80236   0.00000  Uiso   1.00
H792   H     0.26451   0.59998   0.83386   0.00000  Uiso   1.00
C793   C     0.28821   0.62847   0.77302   0.00000  Uiso   1.00
H794   H     0.30608   0.59844   0.75894   0.00000  Uiso   1.00
H795   H     0.31869   0.64792   0.79562   0.00000  Uiso   1.00
H796   H     0.27150   0.64936   0.74191   0.00000  Uiso   1.00
N797   N     0.23332   0.88572   0.69826   0.00000  Uiso   1.00
H798   H     0.27047   0.89756   0.70655   0.00000  Uiso   1.00
C799   C     0.21725   0.88405   0.64618   0.00000  Uiso   1.00
H800   H     0.21608   0.91797   0.63065   0.00000  Uiso   1.00
H801   H     0.17849   0.86866   0.63780   0.00000  Uiso   1.00
H802   H     0.24515   0.86378   0.62870   0.00000  Uiso   1.00
N803   N     0.08291   0.61975   0.69577   0.00000  Uiso   1.00
H804   H     0.04663   0.61234   0.70390   0.00000  Uiso   1.00
C805   C     0.08512   0.62372   0.64406   0.00000  Uiso   1.00
H806   H     0.07792   0.59118   0.62550   0.00000  Uiso   1.00
H807   H     0.12342   0.63625   0.63747   0.00000  Uiso   1.00
H808   H     0.05511   0.64746   0.62802   0.00000  Uiso   1.00
N809   N     0.09647   0.88029   0.80327   0.00000  Uiso   1.00
H810   H     0.09215   0.89180   0.83758   0.00000  Uiso   1.00
C811   C     0.04830   0.86789   0.77429   0.00000  Uiso   1.00
H812   H     0.02468   0.89781   0.76371   0.00000  Uiso   1.00
H813   H     0.02628   0.84580   0.79582   0.00000  Uiso   1.00
H814   H     0.05563   0.84976   0.74090   0.00000  Uiso   1.00
C815   C     0.07783   0.52377   0.69370   0.00000  Uiso   1.00
H816   H     0.04101   0.54016   0.68396   0.00000  Uiso   1.00
O817   O     0.08225   0.98584   0.67924   0.00000  Uiso   1.00
C818   C     0.09417   0.97597   0.80922   0.00000  Uiso   1.00
H819   H     0.05893   0.96016   0.81660   0.00000  Uiso   1.00
O820   O     0.10384   0.51296   0.82605   0.00000  Uiso   1.00
C821   C     0.49959   0.66507   0.74975   0.00000  Uiso   1.00
C822   C     0.49961   0.83507   0.75009   0.00000  Uiso   1.00
C823   C     0.54375   0.76311   0.55931   0.00000  Uiso   1.00
C824   C     0.45837   0.76774   0.94104   0.00000  Uiso   1.00
C825   C     0.54279   0.76333   0.61003   0.00000  Uiso   1.00
C826   C     0.45941   0.76787   0.89032   0.00000  Uiso   1.00
C827   C     0.45713   0.73685   0.59879   0.00000  Uiso   1.00
C828   C     0.54060   0.73219   0.90064   0.00000  Uiso   1.00
C829   C     0.45615   0.73708   0.54780   0.00000  Uiso   1.00
C830   C     0.54160   0.73236   0.95163   0.00000  Uiso   1.00
C831   C     0.49996   0.75007   0.52717   0.00000  Uiso   1.00
C832   C     0.49997   0.75005   0.97272   0.00000  Uiso   1.00
C833   C     0.40122   0.74981   0.73755   0.00000  Uiso   1.00
C834   C     0.59878   0.75005   0.76245   0.00000  Uiso   1.00
C835   C     0.34597   0.74968   0.73066   0.00000  Uiso   1.00
C836   C     0.65404   0.74999   0.76933   0.00000  Uiso   1.00
C837   C     0.53752   0.54732   0.77670   0.00000  Uiso   1.00
C838   C     0.53086   0.95367   0.72725   0.00000  Uiso   1.00
C839   C     0.53939   0.59333   0.77598   0.00000  Uiso   1.00
C840   C     0.53108   0.90766   0.72481   0.00000  Uiso   1.00
C841   C     0.49883   0.61685   0.74901   0.00000  Uiso   1.00
C842   C     0.49765   0.88351   0.75041   0.00000  Uiso   1.00
C843   C     0.45694   0.59445   0.72199   0.00000  Uiso   1.00
C844   C     0.46350   0.90566   0.77791   0.00000  Uiso   1.00
C845   C     0.45524   0.54762   0.72253   0.00000  Uiso   1.00
C846   C     0.46342   0.95247   0.78025   0.00000  Uiso   1.00
C847   C     0.49615   0.52449   0.75059   0.00000  Uiso   1.00
C848   C     0.49703   0.97606   0.75377   0.00000  Uiso   1.00
Cu849  Cu    0.50000   0.74999   0.79822   0.00000  Uiso   1.00
Cu850  Cu    0.50000   0.75000   0.70179   0.00000  Uiso   1.00
H851   H     0.65935   0.74941   0.69356   0.00000  Uiso   1.00
H852   H     0.34067   0.75022   0.80643   0.00000  Uiso   1.00
H853   H     0.56866   0.52907   0.79768   0.00000  Uiso   1.00
H854   H     0.55658   0.97224   0.70739   0.00000  Uiso   1.00
H855   H     0.57830   0.77387   0.54529   0.00000  Uiso   1.00
H856   H     0.42560   0.78213   0.95544   0.00000  Uiso   1.00
H857   H     0.57662   0.77445   0.63374   0.00000  Uiso   1.00
H858   H     0.42749   0.78248   0.86678   0.00000  Uiso   1.00
H859   H     0.42323   0.72599   0.61362   0.00000  Uiso   1.00
H860   H     0.57257   0.71766   0.88519   0.00000  Uiso   1.00
H861   H     0.42155   0.72641   0.52469   0.00000  Uiso   1.00
H862   H     0.57437   0.71801   0.97437   0.00000  Uiso   1.00
N863   N     0.50000   0.75001   0.62935   0.00000  Uiso   1.00
N864   N     0.50000   0.74999   0.87066   0.00000  Uiso   1.00
O865   O     0.50000   0.68572   0.79072   0.00000  Uiso   1.00
O866   O     0.50000   0.81427   0.70929   0.00000  Uiso   1.00
O867   O     0.50000   0.68573   0.70928   0.00000  Uiso   1.00
O868   O     0.50000   0.81427   0.79072   0.00000  Uiso   1.00
O869   O     0.42495   0.74999   0.78132   0.00000  Uiso   1.00
O870   O     0.57505   0.75000   0.71868   0.00000  Uiso   1.00
O871   O     0.42495   0.75000   0.69989   0.00000  Uiso   1.00
O872   O     0.57505   0.75000   0.80012   0.00000  Uiso   1.00
N873   N     0.58228   0.61590   0.80236   0.00000  Uiso   1.00
H874   H     0.59785   0.59998   0.83386   0.00000  Uiso   1.00
C875   C     0.62154   0.62847   0.77302   0.00000  Uiso   1.00
H876   H     0.63941   0.59844   0.75894   0.00000  Uiso   1.00
H877   H     0.65203   0.64792   0.79562   0.00000  Uiso   1.00
H878   H     0.60483   0.64936   0.74191   0.00000  Uiso   1.00
N879   N     0.56665   0.88572   0.69826   0.00000  Uiso   1.00
H880   H     0.60380   0.89756   0.70655   0.00000  Uiso   1.00
C881   C     0.55058   0.88405   0.64618   0.00000  Uiso   1.00
H882   H     0.54942   0.91797   0.63065   0.00000  Uiso   1.00
H883   H     0.51182   0.86866   0.63780   0.00000  Uiso   1.00
H884   H     0.57848   0.86378   0.62870   0.00000  Uiso   1.00
N885   N     0.41625   0.61975   0.69577   0.00000  Uiso   1.00
H886   H     0.37996   0.61234   0.70390   0.00000  Uiso   1.00
C887   C     0.41845   0.62372   0.64406   0.00000  Uiso   1.00
H888   H     0.41125   0.59118   0.62550   0.00000  Uiso   1.00
H889   H     0.45675   0.63625   0.63747   0.00000  Uiso   1.00
H890   H     0.38844   0.64746   0.62802   0.00000  Uiso   1.00
N891   N     0.42980   0.88029   0.80327   0.00000  Uiso   1.00
H892   H     0.42548   0.89180   0.83758   0.00000  Uiso   1.00
C893   C     0.38163   0.86789   0.77429   0.00000  Uiso   1.00
H894   H     0.35802   0.89781   0.76371   0.00000  Uiso   1.00
H895   H     0.35962   0.84580   0.79582   0.00000  Uiso   1.00
H896   H     0.38896   0.84976   0.74090   0.00000  Uiso   1.00
C897   C     0.41116   0.52377   0.69370   0.00000  Uiso   1.00
H898   H     0.37434   0.54016   0.68396   0.00000  Uiso   1.00
O899   O     0.41558   0.98584   0.67924   0.00000  Uiso   1.00
C900   C     0.42751   0.97597   0.80922   0.00000  Uiso   1.00
H901   H     0.39226   0.96016   0.81660   0.00000  Uiso   1.00
O902   O     0.43717   0.51296   0.82605   0.00000  Uiso   1.00
C903   C     0.83292   0.66507   0.74975   0.00000  Uiso   1.00
C904   C     0.83294   0.83507   0.75009   0.00000  Uiso   1.00
C905   C     0.87709   0.76311   0.55931   0.00000  Uiso   1.00
C906   C     0.79170   0.76774   0.94104   0.00000  Uiso   1.00
C907   C     0.87613   0.76333   0.61003   0.00000  Uiso   1.00
C908   C     0.79274   0.76787   0.89032   0.00000  Uiso   1.00
C909   C     0.79046   0.73685   0.59879   0.00000  Uiso   1.00
C910   C     0.87394   0.73219   0.90064   0.00000  Uiso   1.00
C911   C     0.78948   0.73708   0.54780   0.00000  Uiso   1.00
C912   C     0.87493   0.73236   0.95163   0.00000  Uiso   1.00
C913   C     0.83329   0.75007   0.52717   0.00000  Uiso   1.00
C914   C     0.83330   0.75005   0.97272   0.00000  Uiso   1.00
C915   C     0.73455   0.74981   0.73755   0.00000  Uiso   1.00
C916   C     0.93211   0.75005   0.76245   0.00000  Uiso   1.00
C917   C     0.67930   0.74968   0.73066   0.00000  Uiso   1.00
C918   C     0.98737   0.74999   0.76933   0.00000  Uiso   1.00
C919   C     0.87085   0.54732   0.77670   0.00000  Uiso   1.00
C920   C     0.86419   0.95367   0.72725   0.00000  Uiso   1.00
C921   C     0.87273   0.59333   0.77598   0.00000  Uiso   1.00
C922   C     0.86441   0.90766   0.72481   0.00000  Uiso   1.00
C923   C     0.83216   0.61685   0.74901   0.00000  Uiso   1.00
C924   C     0.83099   0.88351   0.75041   0.00000  Uiso   1.00
C925   C     0.79027   0.59445   0.72199   0.00000  Uiso   1.00
C926   C     0.79684   0.90566   0.77791   0.00000  Uiso   1.00
C927   C     0.78858   0.54762   0.72253   0.00000  Uiso   1.00
C928   C     0.79675   0.95247   0.78025   0.00000  Uiso   1.00
C929   C     0.82948   0.52449   0.75059   0.00000  Uiso   1.00
C930   C     0.83037   0.97606   0.75377   0.00000  Uiso   1.00
Cu931  Cu    0.83333   0.74999   0.79822   0.00000  Uiso   1.00
Cu932  Cu    0.83333   0.75000   0.70179   0.00000  Uiso   1.00
H933   H     0.99268   0.74941   0.69356   0.00000  Uiso   1.00
H934   H     0.67401   0.75022   0.80643   0.00000  Uiso   1.00
H935   H     0.90199   0.52907   0.79768   0.00000  Uiso   1.00
H936   H     0.88991   0.97224   0.70739   0.00000  Uiso   1.00
H937   H     0.91164   0.77387   0.54529   0.00000  Uiso   1.00
H938   H     0.75893   0.78213   0.95544   0.00000  Uiso   1.00
H939   H     0.90995   0.77445   0.63374   0.00000  Uiso   1.00
H940   H     0.76083   0.78248   0.86678   0.00000  Uiso   1.00
H941   H     0.75656   0.72599   0.61362   0.00000  Uiso   1.00
H942   H     0.90590   0.71766   0.88519   0.00000  Uiso   1.00
H943   H     0.75488   0.72641   0.52469   0.00000  Uiso   1.00
H944   H     0.90771   0.71801   0.97437   0.00000  Uiso   1.00
N945   N     0.83333   0.75001   0.62935   0.00000  Uiso   1.00
N946   N     0.83333   0.74999   0.87066   0.00000  Uiso   1.00
O947   O     0.83334   0.68572   0.79072   0.00000  Uiso   1.00
O948   O     0.83333   0.81427   0.70929   0.00000  Uiso   1.00
O949   O     0.83334   0.68573   0.70928   0.00000  Uiso   1.00
O950   O     0.83333   0.81427   0.79072   0.00000  Uiso   1.00
O951   O     0.75828   0.74999   0.78132   0.00000  Uiso   1.00
O952   O     0.90839   0.75000   0.71868   0.00000  Uiso   1.00
O953   O     0.75828   0.75000   0.69989   0.00000  Uiso   1.00
O954   O     0.90839   0.75000   0.80012   0.00000  Uiso   1.00
N955   N     0.91562   0.61590   0.80236   0.00000  Uiso   1.00
H956   H     0.93118   0.59998   0.83386   0.00000  Uiso   1.00
C957   C     0.95487   0.62847   0.77302   0.00000  Uiso   1.00
H958   H     0.97275   0.59844   0.75894   0.00000  Uiso   1.00
H959   H     0.98536   0.64792   0.79562   0.00000  Uiso   1.00
H960   H     0.93816   0.64936   0.74191   0.00000  Uiso   1.00
N961   N     0.89999   0.88572   0.69826   0.00000  Uiso   1.00
H962   H     0.93714   0.89756   0.70655   0.00000  Uiso   1.00
C963   C     0.88392   0.88405   0.64618   0.00000  Uiso   1.00
H964   H     0.88275   0.91797   0.63065   0.00000  Uiso   1.00
H965   H     0.84516   0.86866   0.63780   0.00000  Uiso   1.00
H966   H     0.91182   0.86378   0.62870   0.00000  Uiso   1.00
N967   N     0.74958   0.61975   0.69577   0.00000  Uiso   1.00
H968   H     0.71330   0.61234   0.70390   0.00000  Uiso   1.00
C969   C     0.75178   0.62372   0.64406   0.00000  Uiso   1.00
H970   H     0.74458   0.59118   0.62550   0.00000  Uiso   1.00
H971   H     0.79008   0.63625   0.63747   0.00000  Uiso   1.00
H972   H     0.72178   0.64746   0.62802   0.00000  Uiso   1.00
N973   N     0.76313   0.88029   0.80327   0.00000  Uiso   1.00
H974   H     0.75881   0.89180   0.83758   0.00000  Uiso   1.00
C975   C     0.71497   0.86789   0.77429   0.00000  Uiso   1.00
H976   H     0.69135   0.89781   0.76371   0.00000  Uiso   1.00
H977   H     0.69295   0.84580   0.79582   0.00000  Uiso   1.00
H978   H     0.72229   0.84976   0.74090   0.00000  Uiso   1.00
C979   C     0.74449   0.52377   0.69370   0.00000  Uiso   1.00
H980   H     0.70767   0.54016   0.68396   0.00000  Uiso   1.00
O981   O     0.74892   0.98584   0.67924   0.00000  Uiso   1.00
C982   C     0.76084   0.97597   0.80922   0.00000  Uiso   1.00
H983   H     0.72560   0.96016   0.81660   0.00000  Uiso   1.00
O984   O     0.77051   0.51296   0.82605   0.00000  Uiso   1.00
loop_
_geom_bond_atom_site_label_1
_geom_bond_atom_site_label_2
_geom_bond_distance
_geom_bond_site_symmetry_2
_ccdc_geom_bond_type
C1     C21     1.455   .     S
C1     O47     1.288   .     A
C1     O45     1.290   .     A
C2     O46     1.291   .     A
C2     C22     1.463   .     S
C2     O48     1.291   .     A
C3     H35     1.083   .     S
C3     C5      1.409   .     A
C3     C11     1.406   .     A
C4     H36     1.083   .     S
C4     C12     1.407   .     A
C4     C6      1.409   .     A
C5     H37     1.080   .     S
C5     N43     1.367   .     A
C6     H38     1.081   .     S
C6     N44     1.367   .     A
C7     N43     1.367   .     A
C7     C9      1.409   .     A
C7     H39     1.080   .     S
C8     N44     1.366   .     A
C8     C10     1.409   .     A
C8     H40     1.081   .     S
C9     C11     1.407   .     A
C9     H41     1.083   .     S
C10    H42     1.083   .     S
C10    C12     1.407   .     A
C11    C504    1.509   1_554 S
C12    C503    1.509   .     S
C13    O51     1.285   .     A
C13    O49     1.284   .     A
C13    C15     1.432   .     S
C14    O52     1.285   .     A
C14    C16     1.432   .     S
C14    O50     1.284   .     A
C15    C180    1.334   1_455 S
C15    H195    1.087   1_455 S
C16    C97     1.334   .     S
C16    H114    1.087   .     S
C17    H33     1.085   .     S
C17    C27     1.397   .     A
C17    C19     1.390   .     A
C18    C28     1.396   .     A
C18    H34     1.085   .     S
C18    C20     1.390   .     A
C19    C21     1.405   .     A
C19    N53     1.425   .     S
C20    N59     1.423   .     S
C20    C22     1.406   .     A
C21    C23     1.411   .     A
C22    C24     1.415   .     A
C23    N65     1.426   .     S
C23    C25     1.414   .     A
C24    C26     1.414   .     A
C24    N71     1.427   .     S
C25    C77     1.493   .     S
C25    C27     1.418   .     A
C26    C80     1.492   .     S
C26    C28     1.416   .     A
C27    C274    1.465   1_545 S
C28    C273    1.465   .     S
Cu29   O49     1.955   .     S
Cu29   O48     1.952   .     S
Cu29   O45     1.949   .     S
Cu29   Cu30    2.672   .     S
Cu29   N44     2.007   .     S
Cu29   O52     1.957   .     S
Cu30   O51     1.957   .     S
Cu30   O50     1.955   .     S
Cu30   O47     1.952   .     S
Cu30   N43     2.007   .     S
Cu30   O46     1.949   .     S
H31    C97     1.087   .     S
H32    C180    1.087   1_455 S
N53    C55     1.447   .     S
N53    H54     1.032   .     S
C55    H56     1.112   .     S
C55    H57     1.110   .     S
C55    H58     1.111   .     S
N59    H60     1.032   .     S
N59    C61     1.447   .     S
C61    H63     1.111   .     S
C61    H64     1.110   .     S
C61    H62     1.112   .     S
N65    C67     1.447   .     S
N65    H66     1.030   .     S
C67    H68     1.110   .     S
C67    H69     1.110   .     S
C67    H70     1.110   .     S
N71    C73     1.447   .     S
N71    H72     1.031   .     S
C73    H74     1.111   .     S
C73    H75     1.110   .     S
C73    H76     1.111   .     S
C77    H78     1.083   .     S
C77    O325    1.221   1_545 S
O79    C323    1.221   .     S
C80    H81     1.084   .     S
C80    O328    1.221   .     S
O82    C326    1.221   1_545 S
C83    C103    1.455   .     S
C83    O129    1.288   .     A
C83    O127    1.290   .     A
C84    O128    1.291   .     A
C84    C104    1.463   .     S
C84    O130    1.291   .     A
C85    H117    1.083   .     S
C85    C87     1.409   .     A
C85    C93     1.406   .     A
C86    H118    1.083   .     S
C86    C94     1.407   .     A
C86    C88     1.409   .     A
C87    H119    1.080   .     S
C87    N125    1.367   .     A
C88    H120    1.081   .     S
C88    N126    1.367   .     A
C89    N125    1.367   .     A
C89    C91     1.409   .     A
C89    H121    1.080   .     S
C90    N126    1.366   .     A
C90    C92     1.409   .     A
C90    H122    1.081   .     S
C91    C93     1.407   .     A
C91    H123    1.083   .     S
C92    H124    1.083   .     S
C92    C94     1.407   .     A
C93    C586    1.509   1_554 S
C94    C585    1.509   .     S
C95    O133    1.285   .     A
C95    O131    1.284   .     A
C95    C97     1.432   .     S
C96    O134    1.285   .     A
C96    C98     1.432   .     S
C96    O132    1.284   .     A
C98    C179    1.334   .     S
C98    H196    1.087   .     S
C99    H115    1.085   .     S
C99    C109    1.397   .     A
C99    C101    1.390   .     A
C100   C110    1.396   .     A
C100   H116    1.085   .     S
C100   C102    1.390   .     A
C101   C103    1.405   .     A
C101   N135    1.425   .     S
C102   N141    1.423   .     S
C102   C104    1.406   .     A
C103   C105    1.411   .     A
C104   C106    1.415   .     A
C105   N147    1.426   .     S
C105   C107    1.414   .     A
C106   C108    1.414   .     A
C106   N153    1.427   .     S
C107   C159    1.493   .     S
C107   C109    1.418   .     A
C108   C162    1.492   .     S
C108   C110    1.416   .     A
C109   C356    1.465   1_545 S
C110   C355    1.465   .     S
Cu111  O131    1.955   .     S
Cu111  O130    1.952   .     S
Cu111  O127    1.949   .     S
Cu111  Cu112   2.672   .     S
Cu111  N126    2.007   .     S
Cu111  O134    1.957   .     S
Cu112  O133    1.957   .     S
Cu112  O132    1.955   .     S
Cu112  O129    1.952   .     S
Cu112  N125    2.007   .     S
Cu112  O128    1.949   .     S
H113   C179    1.087   .     S
N135   C137    1.447   .     S
N135   H136    1.032   .     S
C137   H138    1.112   .     S
C137   H139    1.110   .     S
C137   H140    1.111   .     S
N141   H142    1.032   .     S
N141   C143    1.447   .     S
C143   H145    1.111   .     S
C143   H146    1.110   .     S
C143   H144    1.112   .     S
N147   C149    1.447   .     S
N147   H148    1.030   .     S
C149   H150    1.110   .     S
C149   H151    1.110   .     S
C149   H152    1.110   .     S
N153   C155    1.447   .     S
N153   H154    1.031   .     S
C155   H156    1.111   .     S
C155   H157    1.110   .     S
C155   H158    1.111   .     S
C159   H160    1.083   .     S
C159   O407    1.221   1_545 S
O161   C405    1.221   .     S
C162   H163    1.084   .     S
C162   O410    1.221   .     S
O164   C408    1.221   1_545 S
C165   C185    1.455   .     S
C165   O211    1.288   .     A
C165   O209    1.290   .     A
C166   O210    1.291   .     A
C166   C186    1.463   .     S
C166   O212    1.291   .     A
C167   H199    1.083   .     S
C167   C169    1.409   .     A
C167   C175    1.406   .     A
C168   H200    1.083   .     S
C168   C176    1.407   .     A
C168   C170    1.409   .     A
C169   H201    1.080   .     S
C169   N207    1.367   .     A
C170   H202    1.081   .     S
C170   N208    1.367   .     A
C171   N207    1.367   .     A
C171   C173    1.409   .     A
C171   H203    1.080   .     S
C172   N208    1.366   .     A
C172   C174    1.409   .     A
C172   H204    1.081   .     S
C173   C175    1.407   .     A
C173   H205    1.083   .     S
C174   H206    1.083   .     S
C174   C176    1.407   .     A
C175   C668    1.509   1_554 S
C176   C667    1.509   .     S
C177   O215    1.285   .     A
C177   O213    1.284   .     A
C177   C179    1.432   .     S
C178   O216    1.285   .     A
C178   C180    1.432   .     S
C178   O214    1.284   .     A
C180   C15     1.334   1_655 S
C180   H32     1.087   1_655 S
C181   H197    1.085   .     S
C181   C191    1.397   .     A
C181   C183    1.390   .     A
C182   C192    1.396   .     A
C182   H198    1.085   .     S
C182   C184    1.390   .     A
C183   C185    1.405   .     A
C183   N217    1.425   .     S
C184   N223    1.423   .     S
C184   C186    1.406   .     A
C185   C187    1.411   .     A
C186   C188    1.415   .     A
C187   N229    1.426   .     S
C187   C189    1.414   .     A
C188   C190    1.414   .     A
C188   N235    1.427   .     S
C189   C241    1.493   .     S
C189   C191    1.418   .     A
C190   C244    1.492   .     S
C190   C192    1.416   .     A
C191   C438    1.465   1_545 S
C192   C437    1.465   .     S
Cu193  O213    1.955   .     S
Cu193  O212    1.952   .     S
Cu193  O209    1.949   .     S
Cu193  Cu194   2.672   .     S
Cu193  N208    2.007   .     S
Cu193  O216    1.957   .     S
Cu194  O215    1.957   .     S
Cu194  O214    1.955   .     S
Cu194  O211    1.952   .     S
Cu194  N207    2.007   .     S
Cu194  O210    1.949   .     S
H195   C15     1.087   1_655 S
N217   C219    1.447   .     S
N217   H218    1.032   .     S
C219   H220    1.112   .     S
C219   H221    1.110   .     S
C219   H222    1.111   .     S
N223   H224    1.032   .     S
N223   C225    1.447   .     S
C225   H227    1.111   .     S
C225   H228    1.110   .     S
C225   H226    1.112   .     S
N229   C231    1.447   .     S
N229   H230    1.030   .     S
C231   H232    1.110   .     S
C231   H233    1.110   .     S
C231   H234    1.110   .     S
N235   C237    1.447   .     S
N235   H236    1.031   .     S
C237   H238    1.111   .     S
C237   H239    1.110   .     S
C237   H240    1.111   .     S
C241   H242    1.083   .     S
C241   O489    1.221   1_545 S
O243   C487    1.221   .     S
C244   H245    1.084   .     S
C244   O492    1.221   .     S
O246   C490    1.221   1_545 S
C247   C267    1.455   .     S
C247   O293    1.288   .     A
C247   O291    1.290   .     A
C248   O292    1.291   .     A
C248   C268    1.463   .     S
C248   O294    1.291   .     A
C249   H281    1.083   .     S
C249   C251    1.409   .     A
C249   C257    1.406   .     A
C250   H282    1.083   .     S
C250   C258    1.407   .     A
C250   C252    1.409   .     A
C251   H283    1.080   .     S
C251   N289    1.367   .     A
C252   H284    1.081   .     S
C252   N290    1.367   .     A
C253   N289    1.367   .     A
C253   C255    1.409   .     A
C253   H285    1.080   .     S
C254   N290    1.366   .     A
C254   C256    1.409   .     A
C254   H286    1.081   .     S
C255   C257    1.407   .     A
C255   H287    1.083   .     S
C256   H288    1.083   .     S
C256   C258    1.407   .     A
C257   C750    1.509   1_554 S
C258   C749    1.509   .     S
C259   O297    1.285   .     A
C259   O295    1.284   .     A
C259   C261    1.432   .     S
C260   O298    1.285   .     A
C260   C262    1.432   .     S
C260   O296    1.284   .     A
C261   C426    1.334   1_455 S
C261   H441    1.087   1_455 S
C262   C343    1.334   .     S
C262   H360    1.087   .     S
C263   H279    1.085   .     S
C263   C273    1.397   .     A
C263   C265    1.390   .     A
C264   C274    1.396   .     A
C264   H280    1.085   .     S
C264   C266    1.390   .     A
C265   C267    1.405   .     A
C265   N299    1.425   .     S
C266   N305    1.423   .     S
C266   C268    1.406   .     A
C267   C269    1.411   .     A
C268   C270    1.415   .     A
C269   N311    1.426   .     S
C269   C271    1.414   .     A
C270   C272    1.414   .     A
C270   N317    1.427   .     S
C271   C323    1.493   .     S
C271   C273    1.418   .     A
C272   C326    1.492   .     S
C272   C274    1.416   .     A
C274   C27     1.465   1_565 S
Cu275  O295    1.955   .     S
Cu275  O294    1.952   .     S
Cu275  O291    1.949   .     S
Cu275  Cu276   2.672   .     S
Cu275  N290    2.007   .     S
Cu275  O298    1.957   .     S
Cu276  O297    1.957   .     S
Cu276  O296    1.955   .     S
Cu276  O293    1.952   .     S
Cu276  N289    2.007   .     S
Cu276  O292    1.949   .     S
H277   C343    1.087   .     S
H278   C426    1.087   1_455 S
N299   C301    1.447   .     S
N299   H300    1.032   .     S
C301   H302    1.112   .     S
C301   H303    1.110   .     S
C301   H304    1.111   .     S
N305   H306    1.032   .     S
N305   C307    1.447   .     S
C307   H309    1.111   .     S
C307   H310    1.110   .     S
C307   H308    1.112   .     S
N311   C313    1.447   .     S
N311   H312    1.030   .     S
C313   H314    1.110   .     S
C313   H315    1.110   .     S
C313   H316    1.110   .     S
N317   C319    1.447   .     S
N317   H318    1.031   .     S
C319   H320    1.111   .     S
C319   H321    1.110   .     S
C319   H322    1.111   .     S
C323   H324    1.083   .     S
O325   C77     1.221   1_565 S
C326   H327    1.084   .     S
C326   O82     1.221   1_565 S
C329   C349    1.455   .     S
C329   O375    1.288   .     A
C329   O373    1.290   .     A
C330   O374    1.291   .     A
C330   C350    1.463   .     S
C330   O376    1.291   .     A
C331   H363    1.083   .     S
C331   C333    1.409   .     A
C331   C339    1.406   .     A
C332   H364    1.083   .     S
C332   C340    1.407   .     A
C332   C334    1.409   .     A
C333   H365    1.080   .     S
C333   N371    1.367   .     A
C334   H366    1.081   .     S
C334   N372    1.367   .     A
C335   N371    1.367   .     A
C335   C337    1.409   .     A
C335   H367    1.080   .     S
C336   N372    1.366   .     A
C336   C338    1.409   .     A
C336   H368    1.081   .     S
C337   C339    1.407   .     A
C337   H369    1.083   .     S
C338   H370    1.083   .     S
C338   C340    1.407   .     A
C339   C832    1.509   1_554 S
C340   C831    1.509   .     S
C341   O379    1.285   .     A
C341   O377    1.284   .     A
C341   C343    1.432   .     S
C342   O380    1.285   .     A
C342   C344    1.432   .     S
C342   O378    1.284   .     A
C344   C425    1.334   .     S
C344   H442    1.087   .     S
C345   H361    1.085   .     S
C345   C355    1.397   .     A
C345   C347    1.390   .     A
C346   C356    1.396   .     A
C346   H362    1.085   .     S
C346   C348    1.390   .     A
C347   C349    1.405   .     A
C347   N381    1.425   .     S
C348   N387    1.423   .     S
C348   C350    1.406   .     A
C349   C351    1.411   .     A
C350   C352    1.415   .     A
C351   N393    1.426   .     S
C351   C353    1.414   .     A
C352   C354    1.414   .     A
C352   N399    1.427   .     S
C353   C405    1.493   .     S
C353   C355    1.418   .     A
C354   C408    1.492   .     S
C354   C356    1.416   .     A
C356   C109    1.465   1_565 S
Cu357  O377    1.955   .     S
Cu357  O376    1.952   .     S
Cu357  O373    1.949   .     S
Cu357  Cu358   2.672   .     S
Cu357  N372    2.007   .     S
Cu357  O380    1.957   .     S
Cu358  O379    1.957   .     S
Cu358  O378    1.955   .     S
Cu358  O375    1.952   .     S
Cu358  N371    2.007   .     S
Cu358  O374    1.949   .     S
H359   C425    1.087   .     S
N381   C383    1.447   .     S
N381   H382    1.032   .     S
C383   H384    1.112   .     S
C383   H385    1.110   .     S
C383   H386    1.111   .     S
N387   H388    1.032   .     S
N387   C389    1.447   .     S
C389   H391    1.111   .     S
C389   H392    1.110   .     S
C389   H390    1.112   .     S
N393   C395    1.447   .     S
N393   H394    1.030   .     S
C395   H396    1.110   .     S
C395   H397    1.110   .     S
C395   H398    1.110   .     S
N399   C401    1.447   .     S
N399   H400    1.031   .     S
C401   H402    1.111   .     S
C401   H403    1.110   .     S
C401   H404    1.111   .     S
C405   H406    1.083   .     S
O407   C159    1.221   1_565 S
C408   H409    1.084   .     S
C408   O164    1.221   1_565 S
C411   C431    1.455   .     S
C411   O457    1.288   .     A
C411   O455    1.290   .     A
C412   O456    1.291   .     A
C412   C432    1.463   .     S
C412   O458    1.291   .     A
C413   H445    1.083   .     S
C413   C415    1.409   .     A
C413   C421    1.406   .     A
C414   H446    1.083   .     S
C414   C422    1.407   .     A
C414   C416    1.409   .     A
C415   H447    1.080   .     S
C415   N453    1.367   .     A
C416   H448    1.081   .     S
C416   N454    1.367   .     A
C417   N453    1.367   .     A
C417   C419    1.409   .     A
C417   H449    1.080   .     S
C418   N454    1.366   .     A
C418   C420    1.409   .     A
C418   H450    1.081   .     S
C419   C421    1.407   .     A
C419   H451    1.083   .     S
C420   H452    1.083   .     S
C420   C422    1.407   .     A
C421   C914    1.509   1_554 S
C422   C913    1.509   .     S
C423   O461    1.285   .     A
C423   O459    1.284   .     A
C423   C425    1.432   .     S
C424   O462    1.285   .     A
C424   C426    1.432   .     S
C424   O460    1.284   .     A
C426   C261    1.334   1_655 S
C426   H278    1.087   1_655 S
C427   H443    1.085   .     S
C427   C437    1.397   .     A
C427   C429    1.390   .     A
C428   C438    1.396   .     A
C428   H444    1.085   .     S
C428   C430    1.390   .     A
C429   C431    1.405   .     A
C429   N463    1.425   .     S
C430   N469    1.423   .     S
C430   C432    1.406   .     A
C431   C433    1.411   .     A
C432   C434    1.415   .     A
C433   N475    1.426   .     S
C433   C435    1.414   .     A
C434   C436    1.414   .     A
C434   N481    1.427   .     S
C435   C487    1.493   .     S
C435   C437    1.418   .     A
C436   C490    1.492   .     S
C436   C438    1.416   .     A
C438   C191    1.465   1_565 S
Cu439  O459    1.955   .     S
Cu439  O458    1.952   .     S
Cu439  O455    1.949   .     S
Cu439  Cu440   2.672   .     S
Cu439  N454    2.007   .     S
Cu439  O462    1.957   .     S
Cu440  O461    1.957   .     S
Cu440  O460    1.955   .     S
Cu440  O457    1.952   .     S
Cu440  N453    2.007   .     S
Cu440  O456    1.949   .     S
H441   C261    1.087   1_655 S
N463   C465    1.447   .     S
N463   H464    1.032   .     S
C465   H466    1.112   .     S
C465   H467    1.110   .     S
C465   H468    1.111   .     S
N469   H470    1.032   .     S
N469   C471    1.447   .     S
C471   H473    1.111   .     S
C471   H474    1.110   .     S
C471   H472    1.112   .     S
N475   C477    1.447   .     S
N475   H476    1.030   .     S
C477   H478    1.110   .     S
C477   H479    1.110   .     S
C477   H480    1.110   .     S
N481   C483    1.447   .     S
N481   H482    1.031   .     S
C483   H484    1.111   .     S
C483   H485    1.110   .     S
C483   H486    1.111   .     S
C487   H488    1.083   .     S
O489   C241    1.221   1_565 S
C490   H491    1.084   .     S
C490   O246    1.221   1_565 S
C493   C513    1.455   .     S
C493   O539    1.288   .     A
C493   O537    1.290   .     A
C494   O538    1.291   .     A
C494   C514    1.463   .     S
C494   O540    1.291   .     A
C495   H527    1.083   .     S
C495   C497    1.409   .     A
C495   C503    1.406   .     A
C496   H528    1.083   .     S
C496   C504    1.407   .     A
C496   C498    1.409   .     A
C497   H529    1.080   .     S
C497   N535    1.367   .     A
C498   H530    1.081   .     S
C498   N536    1.367   .     A
C499   N535    1.367   .     A
C499   C501    1.409   .     A
C499   H531    1.080   .     S
C500   N536    1.366   .     A
C500   C502    1.409   .     A
C500   H532    1.081   .     S
C501   C503    1.407   .     A
C501   H533    1.083   .     S
C502   H534    1.083   .     S
C502   C504    1.407   .     A
C504   C11     1.509   1_556 S
C505   O543    1.285   .     A
C505   O541    1.284   .     A
C505   C507    1.432   .     S
C506   O544    1.285   .     A
C506   C508    1.432   .     S
C506   O542    1.284   .     A
C507   C672    1.334   1_455 S
C507   H687    1.087   1_455 S
C508   C589    1.334   .     S
C508   H606    1.087   .     S
C509   H525    1.085   .     S
C509   C519    1.397   .     A
C509   C511    1.390   .     A
C510   C520    1.396   .     A
C510   H526    1.085   .     S
C510   C512    1.390   .     A
C511   C513    1.405   .     A
C511   N545    1.425   .     S
C512   N551    1.423   .     S
C512   C514    1.406   .     A
C513   C515    1.411   .     A
C514   C516    1.415   .     A
C515   N557    1.426   .     S
C515   C517    1.414   .     A
C516   C518    1.414   .     A
C516   N563    1.427   .     S
C517   C569    1.493   .     S
C517   C519    1.418   .     A
C518   C572    1.492   .     S
C518   C520    1.416   .     A
C519   C766    1.465   1_545 S
C520   C765    1.465   .     S
Cu521  O541    1.955   .     S
Cu521  O540    1.952   .     S
Cu521  O537    1.949   .     S
Cu521  Cu522   2.672   .     S
Cu521  N536    2.007   .     S
Cu521  O544    1.957   .     S
Cu522  O543    1.957   .     S
Cu522  O542    1.955   .     S
Cu522  O539    1.952   .     S
Cu522  N535    2.007   .     S
Cu522  O538    1.949   .     S
H523   C589    1.087   .     S
H524   C672    1.087   1_455 S
N545   C547    1.447   .     S
N545   H546    1.032   .     S
C547   H548    1.112   .     S
C547   H549    1.110   .     S
C547   H550    1.111   .     S
N551   H552    1.032   .     S
N551   C553    1.447   .     S
C553   H555    1.111   .     S
C553   H556    1.110   .     S
C553   H554    1.112   .     S
N557   C559    1.447   .     S
N557   H558    1.030   .     S
C559   H560    1.110   .     S
C559   H561    1.110   .     S
C559   H562    1.110   .     S
N563   C565    1.447   .     S
N563   H564    1.031   .     S
C565   H566    1.111   .     S
C565   H567    1.110   .     S
C565   H568    1.111   .     S
C569   H570    1.083   .     S
C569   O817    1.221   1_545 S
O571   C815    1.221   .     S
C572   H573    1.084   .     S
C572   O820    1.221   .     S
O574   C818    1.221   1_545 S
C575   C595    1.455   .     S
C575   O621    1.288   .     A
C575   O619    1.290   .     A
C576   O620    1.291   .     A
C576   C596    1.463   .     S
C576   O622    1.291   .     A
C577   H609    1.083   .     S
C577   C579    1.409   .     A
C577   C585    1.406   .     A
C578   H610    1.083   .     S
C578   C586    1.407   .     A
C578   C580    1.409   .     A
C579   H611    1.080   .     S
C579   N617    1.367   .     A
C580   H612    1.081   .     S
C580   N618    1.367   .     A
C581   N617    1.367   .     A
C581   C583    1.409   .     A
C581   H613    1.080   .     S
C582   N618    1.366   .     A
C582   C584    1.409   .     A
C582   H614    1.081   .     S
C583   C585    1.407   .     A
C583   H615    1.083   .     S
C584   H616    1.083   .     S
C584   C586    1.407   .     A
C586   C93     1.509   1_556 S
C587   O625    1.285   .     A
C587   O623    1.284   .     A
C587   C589    1.432   .     S
C588   O626    1.285   .     A
C588   C590    1.432   .     S
C588   O624    1.284   .     A
C590   C671    1.334   .     S
C590   H688    1.087   .     S
C591   H607    1.085   .     S
C591   C601    1.397   .     A
C591   C593    1.390   .     A
C592   C602    1.396   .     A
C592   H608    1.085   .     S
C592   C594    1.390   .     A
C593   C595    1.405   .     A
C593   N627    1.425   .     S
C594   N633    1.423   .     S
C594   C596    1.406   .     A
C595   C597    1.411   .     A
C596   C598    1.415   .     A
C597   N639    1.426   .     S
C597   C599    1.414   .     A
C598   C600    1.414   .     A
C598   N645    1.427   .     S
C599   C651    1.493   .     S
C599   C601    1.418   .     A
C600   C654    1.492   .     S
C600   C602    1.416   .     A
C601   C848    1.465   1_545 S
C602   C847    1.465   .     S
Cu603  O623    1.955   .     S
Cu603  O622    1.952   .     S
Cu603  O619    1.949   .     S
Cu603  Cu604   2.672   .     S
Cu603  N618    2.007   .     S
Cu603  O626    1.957   .     S
Cu604  O625    1.957   .     S
Cu604  O624    1.955   .     S
Cu604  O621    1.952   .     S
Cu604  N617    2.007   .     S
Cu604  O620    1.949   .     S
H605   C671    1.087   .     S
N627   C629    1.447   .     S
N627   H628    1.032   .     S
C629   H630    1.112   .     S
C629   H631    1.110   .     S
C629   H632    1.111   .     S
N633   H634    1.032   .     S
N633   C635    1.447   .     S
C635   H637    1.111   .     S
C635   H638    1.110   .     S
C635   H636    1.112   .     S
N639   C641    1.447   .     S
N639   H640    1.030   .     S
C641   H642    1.110   .     S
C641   H643    1.110   .     S
C641   H644    1.110   .     S
N645   C647    1.447   .     S
N645   H646    1.031   .     S
C647   H648    1.111   .     S
C647   H649    1.110   .     S
C647   H650    1.111   .     S
C651   H652    1.083   .     S
C651   O899    1.221   1_545 S
O653   C897    1.221   .     S
C654   H655    1.084   .     S
C654   O902    1.221   .     S
O656   C900    1.221   1_545 S
C657   C677    1.455   .     S
C657   O703    1.288   .     A
C657   O701    1.290   .     A
C658   O702    1.291   .     A
C658   C678    1.463   .     S
C658   O704    1.291   .     A
C659   H691    1.083   .     S
C659   C661    1.409   .     A
C659   C667    1.406   .     A
C660   H692    1.083   .     S
C660   C668    1.407   .     A
C660   C662    1.409   .     A
C661   H693    1.080   .     S
C661   N699    1.367   .     A
C662   H694    1.081   .     S
C662   N700    1.367   .     A
C663   N699    1.367   .     A
C663   C665    1.409   .     A
C663   H695    1.080   .     S
C664   N700    1.366   .     A
C664   C666    1.409   .     A
C664   H696    1.081   .     S
C665   C667    1.407   .     A
C665   H697    1.083   .     S
C666   H698    1.083   .     S
C666   C668    1.407   .     A
C668   C175    1.509   1_556 S
C669   O707    1.285   .     A
C669   O705    1.284   .     A
C669   C671    1.432   .     S
C670   O708    1.285   .     A
C670   C672    1.432   .     S
C670   O706    1.284   .     A
C672   C507    1.334   1_655 S
C672   H524    1.087   1_655 S
C673   H689    1.085   .     S
C673   C683    1.397   .     A
C673   C675    1.390   .     A
C674   C684    1.396   .     A
C674   H690    1.085   .     S
C674   C676    1.390   .     A
C675   C677    1.405   .     A
C675   N709    1.425   .     S
C676   N715    1.423   .     S
C676   C678    1.406   .     A
C677   C679    1.411   .     A
C678   C680    1.415   .     A
C679   N721    1.426   .     S
C679   C681    1.414   .     A
C680   C682    1.414   .     A
C680   N727    1.427   .     S
C681   C733    1.493   .     S
C681   C683    1.418   .     A
C682   C736    1.492   .     S
C682   C684    1.416   .     A
C683   C930    1.465   1_545 S
C684   C929    1.465   .     S
Cu685  O705    1.955   .     S
Cu685  O704    1.952   .     S
Cu685  O701    1.949   .     S
Cu685  Cu686   2.672   .     S
Cu685  N700    2.007   .     S
Cu685  O708    1.957   .     S
Cu686  O707    1.957   .     S
Cu686  O706    1.955   .     S
Cu686  O703    1.952   .     S
Cu686  N699    2.007   .     S
Cu686  O702    1.949   .     S
H687   C507    1.087   1_655 S
N709   C711    1.447   .     S
N709   H710    1.032   .     S
C711   H712    1.112   .     S
C711   H713    1.110   .     S
C711   H714    1.111   .     S
N715   H716    1.032   .     S
N715   C717    1.447   .     S
C717   H719    1.111   .     S
C717   H720    1.110   .     S
C717   H718    1.112   .     S
N721   C723    1.447   .     S
N721   H722    1.030   .     S
C723   H724    1.110   .     S
C723   H725    1.110   .     S
C723   H726    1.110   .     S
N727   C729    1.447   .     S
N727   H728    1.031   .     S
C729   H730    1.111   .     S
C729   H731    1.110   .     S
C729   H732    1.111   .     S
C733   H734    1.083   .     S
C733   O981    1.221   1_545 S
O735   C979    1.221   .     S
C736   H737    1.084   .     S
C736   O984    1.221   .     S
O738   C982    1.221   1_545 S
C739   C759    1.455   .     S
C739   O785    1.288   .     A
C739   O783    1.290   .     A
C740   O784    1.291   .     A
C740   C760    1.463   .     S
C740   O786    1.291   .     A
C741   H773    1.083   .     S
C741   C743    1.409   .     A
C741   C749    1.406   .     A
C742   H774    1.083   .     S
C742   C750    1.407   .     A
C742   C744    1.409   .     A
C743   H775    1.080   .     S
C743   N781    1.367   .     A
C744   H776    1.081   .     S
C744   N782    1.367   .     A
C745   N781    1.367   .     A
C745   C747    1.409   .     A
C745   H777    1.080   .     S
C746   N782    1.366   .     A
C746   C748    1.409   .     A
C746   H778    1.081   .     S
C747   C749    1.407   .     A
C747   H779    1.083   .     S
C748   H780    1.083   .     S
C748   C750    1.407   .     A
C750   C257    1.509   1_556 S
C751   O789    1.285   .     A
C751   O787    1.284   .     A
C751   C753    1.432   .     S
C752   O790    1.285   .     A
C752   C754    1.432   .     S
C752   O788    1.284   .     A
C753   C918    1.334   1_455 S
C753   H933    1.087   1_455 S
C754   C835    1.334   .     S
C754   H852    1.087   .     S
C755   H771    1.085   .     S
C755   C765    1.397   .     A
C755   C757    1.390   .     A
C756   C766    1.396   .     A
C756   H772    1.085   .     S
C756   C758    1.390   .     A
C757   C759    1.405   .     A
C757   N791    1.425   .     S
C758   N797    1.423   .     S
C758   C760    1.406   .     A
C759   C761    1.411   .     A
C760   C762    1.415   .     A
C761   N803    1.426   .     S
C761   C763    1.414   .     A
C762   C764    1.414   .     A
C762   N809    1.427   .     S
C763   C815    1.493   .     S
C763   C765    1.418   .     A
C764   C818    1.492   .     S
C764   C766    1.416   .     A
C766   C519    1.465   1_565 S
Cu767  O787    1.955   .     S
Cu767  O786    1.952   .     S
Cu767  O783    1.949   .     S
Cu767  Cu768   2.672   .     S
Cu767  N782    2.007   .     S
Cu767  O790    1.957   .     S
Cu768  O789    1.957   .     S
Cu768  O788    1.955   .     S
Cu768  O785    1.952   .     S
Cu768  N781    2.007   .     S
Cu768  O784    1.949   .     S
H769   C835    1.087   .     S
H770   C918    1.087   1_455 S
N791   C793    1.447   .     S
N791   H792    1.032   .     S
C793   H794    1.112   .     S
C793   H795    1.110   .     S
C793   H796    1.111   .     S
N797   H798    1.032   .     S
N797   C799    1.447   .     S
C799   H801    1.111   .     S
C799   H802    1.110   .     S
C799   H800    1.112   .     S
N803   C805    1.447   .     S
N803   H804    1.030   .     S
C805   H806    1.110   .     S
C805   H807    1.110   .     S
C805   H808    1.110   .     S
N809   C811    1.447   .     S
N809   H810    1.031   .     S
C811   H812    1.111   .     S
C811   H813    1.110   .     S
C811   H814    1.111   .     S
C815   H816    1.083   .     S
O817   C569    1.221   1_565 S
C818   H819    1.084   .     S
C818   O574    1.221   1_565 S
C821   C841    1.455   .     S
C821   O867    1.288   .     A
C821   O865    1.290   .     A
C822   O866    1.291   .     A
C822   C842    1.463   .     S
C822   O868    1.291   .     A
C823   H855    1.083   .     S
C823   C825    1.409   .     A
C823   C831    1.406   .     A
C824   H856    1.083   .     S
C824   C832    1.407   .     A
C824   C826    1.409   .     A
C825   H857    1.080   .     S
C825   N863    1.367   .     A
C826   H858    1.081   .     S
C826   N864    1.367   .     A
C827   N863    1.367   .     A
C827   C829    1.409   .     A
C827   H859    1.080   .     S
C828   N864    1.366   .     A
C828   C830    1.409   .     A
C828   H860    1.081   .     S
C829   C831    1.407   .     A
C829   H861    1.083   .     S
C830   H862    1.083   .     S
C830   C832    1.407   .     A
C832   C339    1.509   1_556 S
C833   O871    1.285   .     A
C833   O869    1.284   .     A
C833   C835    1.432   .     S
C834   O872    1.285   .     A
C834   C836    1.432   .     S
C834   O870    1.284   .     A
C836   C917    1.334   .     S
C836   H934    1.087   .     S
C837   H853    1.085   .     S
C837   C847    1.397   .     A
C837   C839    1.390   .     A
C838   C848    1.396   .     A
C838   H854    1.085   .     S
C838   C840    1.390   .     A
C839   C841    1.405   .     A
C839   N873    1.425   .     S
C840   N879    1.423   .     S
C840   C842    1.406   .     A
C841   C843    1.411   .     A
C842   C844    1.415   .     A
C843   N885    1.426   .     S
C843   C845    1.414   .     A
C844   C846    1.414   .     A
C844   N891    1.427   .     S
C845   C897    1.493   .     S
C845   C847    1.418   .     A
C846   C900    1.492   .     S
C846   C848    1.416   .     A
C848   C601    1.465   1_565 S
Cu849  O869    1.955   .     S
Cu849  O868    1.952   .     S
Cu849  O865    1.949   .     S
Cu849  Cu850   2.672   .     S
Cu849  N864    2.007   .     S
Cu849  O872    1.957   .     S
Cu850  O871    1.957   .     S
Cu850  O870    1.955   .     S
Cu850  O867    1.952   .     S
Cu850  N863    2.007   .     S
Cu850  O866    1.949   .     S
H851   C917    1.087   .     S
N873   C875    1.447   .     S
N873   H874    1.032   .     S
C875   H876    1.112   .     S
C875   H877    1.110   .     S
C875   H878    1.111   .     S
N879   H880    1.032   .     S
N879   C881    1.447   .     S
C881   H883    1.111   .     S
C881   H884    1.110   .     S
C881   H882    1.112   .     S
N885   C887    1.447   .     S
N885   H886    1.030   .     S
C887   H888    1.110   .     S
C887   H889    1.110   .     S
C887   H890    1.110   .     S
N891   C893    1.447   .     S
N891   H892    1.031   .     S
C893   H894    1.111   .     S
C893   H895    1.110   .     S
C893   H896    1.111   .     S
C897   H898    1.083   .     S
O899   C651    1.221   1_565 S
C900   H901    1.084   .     S
C900   O656    1.221   1_565 S
C903   C923    1.455   .     S
C903   O949    1.288   .     A
C903   O947    1.290   .     A
C904   O948    1.291   .     A
C904   C924    1.463   .     S
C904   O950    1.291   .     A
C905   H937    1.083   .     S
C905   C907    1.409   .     A
C905   C913    1.406   .     A
C906   H938    1.083   .     S
C906   C914    1.407   .     A
C906   C908    1.409   .     A
C907   H939    1.080   .     S
C907   N945    1.367   .     A
C908   H940    1.081   .     S
C908   N946    1.367   .     A
C909   N945    1.367   .     A
C909   C911    1.409   .     A
C909   H941    1.080   .     S
C910   N946    1.366   .     A
C910   C912    1.409   .     A
C910   H942    1.081   .     S
C911   C913    1.407   .     A
C911   H943    1.083   .     S
C912   H944    1.083   .     S
C912   C914    1.407   .     A
C914   C421    1.509   1_556 S
C915   O953    1.285   .     A
C915   O951    1.284   .     A
C915   C917    1.432   .     S
C916   O954    1.285   .     A
C916   C918    1.432   .     S
C916   O952    1.284   .     A
C918   C753    1.334   1_655 S
C918   H770    1.087   1_655 S
C919   H935    1.085   .     S
C919   C929    1.397   .     A
C919   C921    1.390   .     A
C920   C930    1.396   .     A
C920   H936    1.085   .     S
C920   C922    1.390   .     A
C921   C923    1.405   .     A
C921   N955    1.425   .     S
C922   N961    1.423   .     S
C922   C924    1.406   .     A
C923   C925    1.411   .     A
C924   C926    1.415   .     A
C925   N967    1.426   .     S
C925   C927    1.414   .     A
C926   C928    1.414   .     A
C926   N973    1.427   .     S
C927   C979    1.493   .     S
C927   C929    1.418   .     A
C928   C982    1.492   .     S
C928   C930    1.416   .     A
C930   C683    1.465   1_565 S
Cu931  O951    1.955   .     S
Cu931  O950    1.952   .     S
Cu931  O947    1.949   .     S
Cu931  Cu932   2.672   .     S
Cu931  N946    2.007   .     S
Cu931  O954    1.957   .     S
Cu932  O953    1.957   .     S
Cu932  O952    1.955   .     S
Cu932  O949    1.952   .     S
Cu932  N945    2.007   .     S
Cu932  O948    1.949   .     S
H933   C753    1.087   1_655 S
N955   C957    1.447   .     S
N955   H956    1.032   .     S
C957   H958    1.112   .     S
C957   H959    1.110   .     S
C957   H960    1.111   .     S
N961   H962    1.032   .     S
N961   C963    1.447   .     S
C963   H965    1.111   .     S
C963   H966    1.110   .     S
C963   H964    1.112   .     S
N967   C969    1.447   .     S
N967   H968    1.030   .     S
C969   H970    1.110   .     S
C969   H971    1.110   .     S
C969   H972    1.110   .     S
N973   C975    1.447   .     S
N973   H974    1.031   .     S
C975   H976    1.111   .     S
C975   H977    1.110   .     S
C975   H978    1.111   .     S
C979   H980    1.083   .     S
O981   C733    1.221   1_565 S
C982   H983    1.084   .     S
C982   O738    1.221   1_565 S
