data_str_m2_o1_o10_pcu_sym.132
_audit_creation_date              2020-01-03
_audit_creation_method            'Materials Studio'
_symmetry_space_group_name_H-M    'P1'
_symmetry_Int_Tables_number       1
_symmetry_cell_setting            triclinic
loop_
_symmetry_equiv_pos_as_xyz
  x,y,z
_cell_length_a                    26.1538
_cell_length_b                    32.5071
_cell_length_c                    28.8613
_cell_angle_alpha                 89.9552
_cell_angle_beta                  97.2324
_cell_angle_gamma                 91.7495
loop_
_atom_site_label
_atom_site_type_symbol
_atom_site_fract_x
_atom_site_fract_y
_atom_site_fract_z
_atom_site_U_iso_or_equiv
_atom_site_adp_type
_atom_site_occupancy
O1     O     0.16666   0.10655   0.20625   0.00000  Uiso   1.00
O2     O     0.16667   0.22678   0.12709   0.00000  Uiso   1.00
O3     O     0.16666   0.10654   0.12706   0.00000  Uiso   1.00
O4     O     0.16667   0.22679   0.20628   0.00000  Uiso   1.00
C5     C     0.16699   0.08747   0.16670   0.00000  Uiso   1.00
C6     C     0.16634   0.24587   0.16663   0.00000  Uiso   1.00
O7     O     0.09161   0.16667   0.19712   0.00000  Uiso   1.00
O8     O     0.24172   0.16666   0.13621   0.00000  Uiso   1.00
O9     O     0.09161   0.16666   0.11793   0.00000  Uiso   1.00
O10    O     0.24172   0.16667   0.21540   0.00000  Uiso   1.00
C11    C     0.06817   0.16506   0.15520   0.00000  Uiso   1.00
C12    C     0.26516   0.16827   0.17813   0.00000  Uiso   1.00
Cu13   Cu    0.16667   0.16667   0.21355   0.00000  Uiso   1.00
Cu14   Cu    0.16667   0.16666   0.11978   0.00000  Uiso   1.00
N15    N     0.16668   0.16668   0.28403   0.00000  Uiso   1.00
N16    N     0.16665   0.16666   0.04931   0.00000  Uiso   1.00
C17    C     0.01363   0.15699   0.15186   0.00000  Uiso   1.00
C18    C     0.31970   0.17634   0.18147   0.00000  Uiso   1.00
C19    C     0.16567   0.02127   0.12451   0.00000  Uiso   1.00
C20    C     0.16767   0.31206   0.20882   0.00000  Uiso   1.00
H21    H     0.16525   0.03716   0.09153   0.00000  Uiso   1.00
H22    H     0.16809   0.29617   0.24181   0.00000  Uiso   1.00
C23    C     0.16457   0.31204   0.12441   0.00000  Uiso   1.00
C24    C     0.16877   0.02129   0.20892   0.00000  Uiso   1.00
H25    H     0.16242   0.29613   0.09129   0.00000  Uiso   1.00
H26    H     0.17092   0.03720   0.24204   0.00000  Uiso   1.00
C27    C     0.16603   0.29053   0.16660   0.00000  Uiso   1.00
C28    C     0.16731   0.04280   0.16673   0.00000  Uiso   1.00
C29    C     0.12973   0.14484   0.02034   0.00000  Uiso   1.00
C30    C     0.20360   0.18850   0.31299   0.00000  Uiso   1.00
C31    C     0.12994   0.14463   0.30435   0.00000  Uiso   1.00
C32    C     0.20339   0.18870   0.02898   0.00000  Uiso   1.00
Br33   Br    0.32090   0.10850   0.11683   0.00000  Uiso   1.00
Br34   Br    0.01243   0.22484   0.21650   0.00000  Uiso   1.00
N35    N     0.08917   0.12277   0.03919   0.00000  Uiso   1.00
O36    O     0.04283   0.13685   0.03196   0.00000  Uiso   1.00
O37    O     0.09495   0.08433   0.05043   0.00000  Uiso   1.00
N38    N     0.24417   0.21056   0.29414   0.00000  Uiso   1.00
O39    O     0.29050   0.19649   0.30138   0.00000  Uiso   1.00
O40    O     0.23838   0.24900   0.28290   0.00000  Uiso   1.00
N41    N     0.09183   0.12003   0.27618   0.00000  Uiso   1.00
O42    O     0.04479   0.13261   0.26867   0.00000  Uiso   1.00
O43    O     0.09987   0.08116   0.27078   0.00000  Uiso   1.00
N44    N     0.24150   0.21331   0.05715   0.00000  Uiso   1.00
O45    O     0.28853   0.20073   0.06468   0.00000  Uiso   1.00
O46    O     0.23346   0.25218   0.06253   0.00000  Uiso   1.00
O47    O     0.50000   0.10655   0.20625   0.00000  Uiso   1.00
O48    O     0.50000   0.22678   0.12709   0.00000  Uiso   1.00
O49    O     0.50000   0.10654   0.12706   0.00000  Uiso   1.00
O50    O     0.50000   0.22679   0.20628   0.00000  Uiso   1.00
C51    C     0.50033   0.08747   0.16670   0.00000  Uiso   1.00
C52    C     0.49967   0.24587   0.16663   0.00000  Uiso   1.00
O53    O     0.42495   0.16667   0.19712   0.00000  Uiso   1.00
O54    O     0.57505   0.16666   0.13621   0.00000  Uiso   1.00
O55    O     0.42494   0.16666   0.11793   0.00000  Uiso   1.00
O56    O     0.57506   0.16667   0.21540   0.00000  Uiso   1.00
C57    C     0.40151   0.16506   0.15520   0.00000  Uiso   1.00
C58    C     0.59849   0.16827   0.17813   0.00000  Uiso   1.00
Cu59   Cu    0.50000   0.16667   0.21355   0.00000  Uiso   1.00
Cu60   Cu    0.50000   0.16666   0.11978   0.00000  Uiso   1.00
N61    N     0.50001   0.16668   0.28403   0.00000  Uiso   1.00
N62    N     0.49999   0.16666   0.04931   0.00000  Uiso   1.00
C63    C     0.34697   0.15699   0.15186   0.00000  Uiso   1.00
C64    C     0.65303   0.17634   0.18147   0.00000  Uiso   1.00
C65    C     0.49900   0.02127   0.12451   0.00000  Uiso   1.00
C66    C     0.50100   0.31206   0.20882   0.00000  Uiso   1.00
H67    H     0.49858   0.03716   0.09153   0.00000  Uiso   1.00
H68    H     0.50142   0.29617   0.24181   0.00000  Uiso   1.00
C69    C     0.49790   0.31204   0.12441   0.00000  Uiso   1.00
C70    C     0.50210   0.02129   0.20892   0.00000  Uiso   1.00
H71    H     0.49575   0.29613   0.09129   0.00000  Uiso   1.00
H72    H     0.50425   0.03720   0.24204   0.00000  Uiso   1.00
C73    C     0.49936   0.29053   0.16660   0.00000  Uiso   1.00
C74    C     0.50064   0.04280   0.16673   0.00000  Uiso   1.00
C75    C     0.46306   0.14484   0.02034   0.00000  Uiso   1.00
C76    C     0.53694   0.18850   0.31299   0.00000  Uiso   1.00
C77    C     0.46327   0.14463   0.30435   0.00000  Uiso   1.00
C78    C     0.53673   0.18870   0.02898   0.00000  Uiso   1.00
Br79   Br    0.65424   0.10850   0.11683   0.00000  Uiso   1.00
Br80   Br    0.34576   0.22484   0.21650   0.00000  Uiso   1.00
N81    N     0.42250   0.12277   0.03919   0.00000  Uiso   1.00
O82    O     0.37617   0.13685   0.03196   0.00000  Uiso   1.00
O83    O     0.42828   0.08433   0.05043   0.00000  Uiso   1.00
N84    N     0.57750   0.21056   0.29414   0.00000  Uiso   1.00
O85    O     0.62384   0.19649   0.30138   0.00000  Uiso   1.00
O86    O     0.57172   0.24900   0.28290   0.00000  Uiso   1.00
N87    N     0.42516   0.12003   0.27618   0.00000  Uiso   1.00
O88    O     0.37813   0.13261   0.26867   0.00000  Uiso   1.00
O89    O     0.43320   0.08116   0.27078   0.00000  Uiso   1.00
N90    N     0.57483   0.21331   0.05715   0.00000  Uiso   1.00
O91    O     0.62187   0.20073   0.06468   0.00000  Uiso   1.00
O92    O     0.56679   0.25218   0.06253   0.00000  Uiso   1.00
O93    O     0.83333   0.10655   0.20625   0.00000  Uiso   1.00
O94    O     0.83334   0.22678   0.12709   0.00000  Uiso   1.00
O95    O     0.83333   0.10654   0.12706   0.00000  Uiso   1.00
O96    O     0.83334   0.22679   0.20628   0.00000  Uiso   1.00
C97    C     0.83366   0.08747   0.16670   0.00000  Uiso   1.00
C98    C     0.83301   0.24587   0.16663   0.00000  Uiso   1.00
O99    O     0.75828   0.16667   0.19712   0.00000  Uiso   1.00
O100   O     0.90839   0.16666   0.13621   0.00000  Uiso   1.00
O101   O     0.75828   0.16666   0.11793   0.00000  Uiso   1.00
O102   O     0.90839   0.16667   0.21540   0.00000  Uiso   1.00
C103   C     0.73484   0.16506   0.15520   0.00000  Uiso   1.00
C104   C     0.93183   0.16827   0.17813   0.00000  Uiso   1.00
Cu105  Cu    0.83333   0.16667   0.21355   0.00000  Uiso   1.00
Cu106  Cu    0.83333   0.16666   0.11978   0.00000  Uiso   1.00
N107   N     0.83335   0.16668   0.28403   0.00000  Uiso   1.00
N108   N     0.83332   0.16666   0.04931   0.00000  Uiso   1.00
C109   C     0.68030   0.15699   0.15186   0.00000  Uiso   1.00
C110   C     0.98637   0.17634   0.18147   0.00000  Uiso   1.00
C111   C     0.83233   0.02127   0.12451   0.00000  Uiso   1.00
C112   C     0.83433   0.31206   0.20882   0.00000  Uiso   1.00
H113   H     0.83191   0.03716   0.09153   0.00000  Uiso   1.00
H114   H     0.83475   0.29617   0.24181   0.00000  Uiso   1.00
C115   C     0.83124   0.31204   0.12441   0.00000  Uiso   1.00
C116   C     0.83543   0.02129   0.20892   0.00000  Uiso   1.00
H117   H     0.82908   0.29613   0.09129   0.00000  Uiso   1.00
H118   H     0.83758   0.03720   0.24204   0.00000  Uiso   1.00
C119   C     0.83270   0.29053   0.16660   0.00000  Uiso   1.00
C120   C     0.83397   0.04280   0.16673   0.00000  Uiso   1.00
C121   C     0.79640   0.14484   0.02034   0.00000  Uiso   1.00
C122   C     0.87027   0.18850   0.31299   0.00000  Uiso   1.00
C123   C     0.79661   0.14463   0.30435   0.00000  Uiso   1.00
C124   C     0.87006   0.18870   0.02898   0.00000  Uiso   1.00
Br125  Br    0.98757   0.10850   0.11683   0.00000  Uiso   1.00
Br126  Br    0.67910   0.22484   0.21650   0.00000  Uiso   1.00
N127   N     0.75584   0.12277   0.03919   0.00000  Uiso   1.00
O128   O     0.70950   0.13685   0.03196   0.00000  Uiso   1.00
O129   O     0.76162   0.08433   0.05043   0.00000  Uiso   1.00
N130   N     0.91083   0.21056   0.29414   0.00000  Uiso   1.00
O131   O     0.95717   0.19649   0.30138   0.00000  Uiso   1.00
O132   O     0.90505   0.24900   0.28290   0.00000  Uiso   1.00
N133   N     0.75850   0.12003   0.27618   0.00000  Uiso   1.00
O134   O     0.71146   0.13261   0.26867   0.00000  Uiso   1.00
O135   O     0.76654   0.08116   0.27078   0.00000  Uiso   1.00
N136   N     0.90816   0.21331   0.05715   0.00000  Uiso   1.00
O137   O     0.95520   0.20073   0.06468   0.00000  Uiso   1.00
O138   O     0.90013   0.25218   0.06253   0.00000  Uiso   1.00
O139   O     0.16666   0.43989   0.20625   0.00000  Uiso   1.00
O140   O     0.16667   0.56011   0.12709   0.00000  Uiso   1.00
O141   O     0.16666   0.43988   0.12706   0.00000  Uiso   1.00
O142   O     0.16667   0.56012   0.20628   0.00000  Uiso   1.00
C143   C     0.16699   0.42080   0.16670   0.00000  Uiso   1.00
C144   C     0.16634   0.57920   0.16663   0.00000  Uiso   1.00
O145   O     0.09161   0.50000   0.19712   0.00000  Uiso   1.00
O146   O     0.24172   0.50000   0.13621   0.00000  Uiso   1.00
O147   O     0.09161   0.49999   0.11793   0.00000  Uiso   1.00
O148   O     0.24172   0.50001   0.21540   0.00000  Uiso   1.00
C149   C     0.06817   0.49840   0.15520   0.00000  Uiso   1.00
C150   C     0.26516   0.50160   0.17813   0.00000  Uiso   1.00
Cu151  Cu    0.16667   0.50001   0.21355   0.00000  Uiso   1.00
Cu152  Cu    0.16667   0.49999   0.11978   0.00000  Uiso   1.00
N153   N     0.16668   0.50001   0.28403   0.00000  Uiso   1.00
N154   N     0.16665   0.49999   0.04931   0.00000  Uiso   1.00
C155   C     0.01363   0.49033   0.15186   0.00000  Uiso   1.00
C156   C     0.31970   0.50967   0.18147   0.00000  Uiso   1.00
C157   C     0.16567   0.35461   0.12451   0.00000  Uiso   1.00
C158   C     0.16767   0.64539   0.20882   0.00000  Uiso   1.00
H159   H     0.16525   0.37050   0.09153   0.00000  Uiso   1.00
H160   H     0.16809   0.62950   0.24181   0.00000  Uiso   1.00
C161   C     0.16457   0.64537   0.12441   0.00000  Uiso   1.00
C162   C     0.16877   0.35463   0.20892   0.00000  Uiso   1.00
H163   H     0.16242   0.62946   0.09129   0.00000  Uiso   1.00
H164   H     0.17092   0.37054   0.24204   0.00000  Uiso   1.00
C165   C     0.16603   0.62387   0.16660   0.00000  Uiso   1.00
C166   C     0.16731   0.37613   0.16673   0.00000  Uiso   1.00
C167   C     0.12973   0.47817   0.02034   0.00000  Uiso   1.00
C168   C     0.20360   0.52183   0.31299   0.00000  Uiso   1.00
C169   C     0.12994   0.47797   0.30435   0.00000  Uiso   1.00
C170   C     0.20339   0.52203   0.02898   0.00000  Uiso   1.00
Br171  Br    0.32090   0.44183   0.11683   0.00000  Uiso   1.00
Br172  Br    0.01243   0.55817   0.21650   0.00000  Uiso   1.00
N173   N     0.08917   0.45611   0.03919   0.00000  Uiso   1.00
O174   O     0.04283   0.47018   0.03196   0.00000  Uiso   1.00
O175   O     0.09495   0.41766   0.05043   0.00000  Uiso   1.00
N176   N     0.24417   0.54389   0.29414   0.00000  Uiso   1.00
O177   O     0.29050   0.52982   0.30138   0.00000  Uiso   1.00
O178   O     0.23838   0.58233   0.28290   0.00000  Uiso   1.00
N179   N     0.09183   0.45336   0.27618   0.00000  Uiso   1.00
O180   O     0.04479   0.46594   0.26867   0.00000  Uiso   1.00
O181   O     0.09987   0.41450   0.27078   0.00000  Uiso   1.00
N182   N     0.24150   0.54665   0.05715   0.00000  Uiso   1.00
O183   O     0.28853   0.53406   0.06468   0.00000  Uiso   1.00
O184   O     0.23346   0.58551   0.06253   0.00000  Uiso   1.00
O185   O     0.50000   0.43989   0.20625   0.00000  Uiso   1.00
O186   O     0.50000   0.56011   0.12709   0.00000  Uiso   1.00
O187   O     0.50000   0.43988   0.12706   0.00000  Uiso   1.00
O188   O     0.50000   0.56012   0.20628   0.00000  Uiso   1.00
C189   C     0.50033   0.42080   0.16670   0.00000  Uiso   1.00
C190   C     0.49967   0.57920   0.16663   0.00000  Uiso   1.00
O191   O     0.42495   0.50000   0.19712   0.00000  Uiso   1.00
O192   O     0.57505   0.50000   0.13621   0.00000  Uiso   1.00
O193   O     0.42494   0.49999   0.11793   0.00000  Uiso   1.00
O194   O     0.57506   0.50001   0.21540   0.00000  Uiso   1.00
C195   C     0.40151   0.49840   0.15520   0.00000  Uiso   1.00
C196   C     0.59849   0.50160   0.17813   0.00000  Uiso   1.00
Cu197  Cu    0.50000   0.50001   0.21355   0.00000  Uiso   1.00
Cu198  Cu    0.50000   0.49999   0.11978   0.00000  Uiso   1.00
N199   N     0.50001   0.50001   0.28403   0.00000  Uiso   1.00
N200   N     0.49999   0.49999   0.04931   0.00000  Uiso   1.00
C201   C     0.34697   0.49033   0.15186   0.00000  Uiso   1.00
C202   C     0.65303   0.50967   0.18147   0.00000  Uiso   1.00
C203   C     0.49900   0.35461   0.12451   0.00000  Uiso   1.00
C204   C     0.50100   0.64539   0.20882   0.00000  Uiso   1.00
H205   H     0.49858   0.37050   0.09153   0.00000  Uiso   1.00
H206   H     0.50142   0.62950   0.24181   0.00000  Uiso   1.00
C207   C     0.49790   0.64537   0.12441   0.00000  Uiso   1.00
C208   C     0.50210   0.35463   0.20892   0.00000  Uiso   1.00
H209   H     0.49575   0.62946   0.09129   0.00000  Uiso   1.00
H210   H     0.50425   0.37054   0.24204   0.00000  Uiso   1.00
C211   C     0.49936   0.62387   0.16660   0.00000  Uiso   1.00
C212   C     0.50064   0.37613   0.16673   0.00000  Uiso   1.00
C213   C     0.46306   0.47817   0.02034   0.00000  Uiso   1.00
C214   C     0.53694   0.52183   0.31299   0.00000  Uiso   1.00
C215   C     0.46327   0.47797   0.30435   0.00000  Uiso   1.00
C216   C     0.53673   0.52203   0.02898   0.00000  Uiso   1.00
Br217  Br    0.65424   0.44183   0.11683   0.00000  Uiso   1.00
Br218  Br    0.34576   0.55817   0.21650   0.00000  Uiso   1.00
N219   N     0.42250   0.45611   0.03919   0.00000  Uiso   1.00
O220   O     0.37617   0.47018   0.03196   0.00000  Uiso   1.00
O221   O     0.42828   0.41766   0.05043   0.00000  Uiso   1.00
N222   N     0.57750   0.54389   0.29414   0.00000  Uiso   1.00
O223   O     0.62384   0.52982   0.30138   0.00000  Uiso   1.00
O224   O     0.57172   0.58233   0.28290   0.00000  Uiso   1.00
N225   N     0.42516   0.45336   0.27618   0.00000  Uiso   1.00
O226   O     0.37813   0.46594   0.26867   0.00000  Uiso   1.00
O227   O     0.43320   0.41450   0.27078   0.00000  Uiso   1.00
N228   N     0.57483   0.54665   0.05715   0.00000  Uiso   1.00
O229   O     0.62187   0.53406   0.06468   0.00000  Uiso   1.00
O230   O     0.56679   0.58551   0.06253   0.00000  Uiso   1.00
O231   O     0.83333   0.43989   0.20625   0.00000  Uiso   1.00
O232   O     0.83334   0.56011   0.12709   0.00000  Uiso   1.00
O233   O     0.83333   0.43988   0.12706   0.00000  Uiso   1.00
O234   O     0.83334   0.56012   0.20628   0.00000  Uiso   1.00
C235   C     0.83366   0.42080   0.16670   0.00000  Uiso   1.00
C236   C     0.83301   0.57920   0.16663   0.00000  Uiso   1.00
O237   O     0.75828   0.50000   0.19712   0.00000  Uiso   1.00
O238   O     0.90839   0.50000   0.13621   0.00000  Uiso   1.00
O239   O     0.75828   0.49999   0.11793   0.00000  Uiso   1.00
O240   O     0.90839   0.50001   0.21540   0.00000  Uiso   1.00
C241   C     0.73484   0.49840   0.15520   0.00000  Uiso   1.00
C242   C     0.93183   0.50160   0.17813   0.00000  Uiso   1.00
Cu243  Cu    0.83333   0.50001   0.21355   0.00000  Uiso   1.00
Cu244  Cu    0.83333   0.49999   0.11978   0.00000  Uiso   1.00
N245   N     0.83335   0.50001   0.28403   0.00000  Uiso   1.00
N246   N     0.83332   0.49999   0.04931   0.00000  Uiso   1.00
C247   C     0.68030   0.49033   0.15186   0.00000  Uiso   1.00
C248   C     0.98637   0.50967   0.18147   0.00000  Uiso   1.00
C249   C     0.83233   0.35461   0.12451   0.00000  Uiso   1.00
C250   C     0.83433   0.64539   0.20882   0.00000  Uiso   1.00
H251   H     0.83191   0.37050   0.09153   0.00000  Uiso   1.00
H252   H     0.83475   0.62950   0.24181   0.00000  Uiso   1.00
C253   C     0.83124   0.64537   0.12441   0.00000  Uiso   1.00
C254   C     0.83543   0.35463   0.20892   0.00000  Uiso   1.00
H255   H     0.82908   0.62946   0.09129   0.00000  Uiso   1.00
H256   H     0.83758   0.37054   0.24204   0.00000  Uiso   1.00
C257   C     0.83270   0.62387   0.16660   0.00000  Uiso   1.00
C258   C     0.83397   0.37613   0.16673   0.00000  Uiso   1.00
C259   C     0.79640   0.47817   0.02034   0.00000  Uiso   1.00
C260   C     0.87027   0.52183   0.31299   0.00000  Uiso   1.00
C261   C     0.79661   0.47797   0.30435   0.00000  Uiso   1.00
C262   C     0.87006   0.52203   0.02898   0.00000  Uiso   1.00
Br263  Br    0.98757   0.44183   0.11683   0.00000  Uiso   1.00
Br264  Br    0.67910   0.55817   0.21650   0.00000  Uiso   1.00
N265   N     0.75584   0.45611   0.03919   0.00000  Uiso   1.00
O266   O     0.70950   0.47018   0.03196   0.00000  Uiso   1.00
O267   O     0.76162   0.41766   0.05043   0.00000  Uiso   1.00
N268   N     0.91083   0.54389   0.29414   0.00000  Uiso   1.00
O269   O     0.95717   0.52982   0.30138   0.00000  Uiso   1.00
O270   O     0.90505   0.58233   0.28290   0.00000  Uiso   1.00
N271   N     0.75850   0.45336   0.27618   0.00000  Uiso   1.00
O272   O     0.71146   0.46594   0.26867   0.00000  Uiso   1.00
O273   O     0.76654   0.41450   0.27078   0.00000  Uiso   1.00
N274   N     0.90816   0.54665   0.05715   0.00000  Uiso   1.00
O275   O     0.95520   0.53406   0.06468   0.00000  Uiso   1.00
O276   O     0.90013   0.58551   0.06253   0.00000  Uiso   1.00
O277   O     0.16666   0.77322   0.20625   0.00000  Uiso   1.00
O278   O     0.16667   0.89345   0.12709   0.00000  Uiso   1.00
O279   O     0.16666   0.77321   0.12706   0.00000  Uiso   1.00
O280   O     0.16667   0.89346   0.20628   0.00000  Uiso   1.00
C281   C     0.16699   0.75413   0.16670   0.00000  Uiso   1.00
C282   C     0.16634   0.91253   0.16663   0.00000  Uiso   1.00
O283   O     0.09161   0.83334   0.19712   0.00000  Uiso   1.00
O284   O     0.24172   0.83333   0.13621   0.00000  Uiso   1.00
O285   O     0.09161   0.83333   0.11793   0.00000  Uiso   1.00
O286   O     0.24172   0.83334   0.21540   0.00000  Uiso   1.00
C287   C     0.06817   0.83173   0.15520   0.00000  Uiso   1.00
C288   C     0.26516   0.83494   0.17813   0.00000  Uiso   1.00
Cu289  Cu    0.16667   0.83334   0.21355   0.00000  Uiso   1.00
Cu290  Cu    0.16667   0.83333   0.11978   0.00000  Uiso   1.00
N291   N     0.16668   0.83334   0.28403   0.00000  Uiso   1.00
N292   N     0.16665   0.83332   0.04931   0.00000  Uiso   1.00
C293   C     0.01363   0.82366   0.15186   0.00000  Uiso   1.00
C294   C     0.31970   0.84301   0.18147   0.00000  Uiso   1.00
C295   C     0.16567   0.68794   0.12451   0.00000  Uiso   1.00
C296   C     0.16767   0.97873   0.20882   0.00000  Uiso   1.00
H297   H     0.16525   0.70383   0.09153   0.00000  Uiso   1.00
H298   H     0.16809   0.96284   0.24181   0.00000  Uiso   1.00
C299   C     0.16457   0.97871   0.12441   0.00000  Uiso   1.00
C300   C     0.16877   0.68796   0.20892   0.00000  Uiso   1.00
H301   H     0.16242   0.96280   0.09129   0.00000  Uiso   1.00
H302   H     0.17092   0.70387   0.24204   0.00000  Uiso   1.00
C303   C     0.16603   0.95720   0.16660   0.00000  Uiso   1.00
C304   C     0.16731   0.70947   0.16673   0.00000  Uiso   1.00
C305   C     0.12973   0.81150   0.02034   0.00000  Uiso   1.00
C306   C     0.20360   0.85516   0.31299   0.00000  Uiso   1.00
C307   C     0.12994   0.81130   0.30435   0.00000  Uiso   1.00
C308   C     0.20339   0.85537   0.02898   0.00000  Uiso   1.00
Br309  Br    0.32090   0.77516   0.11683   0.00000  Uiso   1.00
Br310  Br    0.01243   0.89150   0.21650   0.00000  Uiso   1.00
N311   N     0.08917   0.78944   0.03919   0.00000  Uiso   1.00
O312   O     0.04283   0.80351   0.03196   0.00000  Uiso   1.00
O313   O     0.09495   0.75100   0.05043   0.00000  Uiso   1.00
N314   N     0.24417   0.87722   0.29414   0.00000  Uiso   1.00
O315   O     0.29050   0.86316   0.30138   0.00000  Uiso   1.00
O316   O     0.23838   0.91567   0.28290   0.00000  Uiso   1.00
N317   N     0.09183   0.78669   0.27618   0.00000  Uiso   1.00
O318   O     0.04479   0.79927   0.26867   0.00000  Uiso   1.00
O319   O     0.09987   0.74783   0.27078   0.00000  Uiso   1.00
N320   N     0.24150   0.87998   0.05715   0.00000  Uiso   1.00
O321   O     0.28853   0.86740   0.06468   0.00000  Uiso   1.00
O322   O     0.23346   0.91885   0.06253   0.00000  Uiso   1.00
O323   O     0.50000   0.77322   0.20625   0.00000  Uiso   1.00
O324   O     0.50000   0.89345   0.12709   0.00000  Uiso   1.00
O325   O     0.50000   0.77321   0.12706   0.00000  Uiso   1.00
O326   O     0.50000   0.89346   0.20628   0.00000  Uiso   1.00
C327   C     0.50033   0.75413   0.16670   0.00000  Uiso   1.00
C328   C     0.49967   0.91253   0.16663   0.00000  Uiso   1.00
O329   O     0.42495   0.83334   0.19712   0.00000  Uiso   1.00
O330   O     0.57505   0.83333   0.13621   0.00000  Uiso   1.00
O331   O     0.42494   0.83333   0.11793   0.00000  Uiso   1.00
O332   O     0.57506   0.83334   0.21540   0.00000  Uiso   1.00
C333   C     0.40151   0.83173   0.15520   0.00000  Uiso   1.00
C334   C     0.59849   0.83494   0.17813   0.00000  Uiso   1.00
Cu335  Cu    0.50000   0.83334   0.21355   0.00000  Uiso   1.00
Cu336  Cu    0.50000   0.83333   0.11978   0.00000  Uiso   1.00
N337   N     0.50001   0.83334   0.28403   0.00000  Uiso   1.00
N338   N     0.49999   0.83332   0.04931   0.00000  Uiso   1.00
C339   C     0.34697   0.82366   0.15186   0.00000  Uiso   1.00
C340   C     0.65303   0.84301   0.18147   0.00000  Uiso   1.00
C341   C     0.49900   0.68794   0.12451   0.00000  Uiso   1.00
C342   C     0.50100   0.97873   0.20882   0.00000  Uiso   1.00
H343   H     0.49858   0.70383   0.09153   0.00000  Uiso   1.00
H344   H     0.50142   0.96284   0.24181   0.00000  Uiso   1.00
C345   C     0.49790   0.97871   0.12441   0.00000  Uiso   1.00
C346   C     0.50210   0.68796   0.20892   0.00000  Uiso   1.00
H347   H     0.49575   0.96280   0.09129   0.00000  Uiso   1.00
H348   H     0.50425   0.70387   0.24204   0.00000  Uiso   1.00
C349   C     0.49936   0.95720   0.16660   0.00000  Uiso   1.00
C350   C     0.50064   0.70947   0.16673   0.00000  Uiso   1.00
C351   C     0.46306   0.81150   0.02034   0.00000  Uiso   1.00
C352   C     0.53694   0.85516   0.31299   0.00000  Uiso   1.00
C353   C     0.46327   0.81130   0.30435   0.00000  Uiso   1.00
C354   C     0.53673   0.85537   0.02898   0.00000  Uiso   1.00
Br355  Br    0.65424   0.77516   0.11683   0.00000  Uiso   1.00
Br356  Br    0.34576   0.89150   0.21650   0.00000  Uiso   1.00
N357   N     0.42250   0.78944   0.03919   0.00000  Uiso   1.00
O358   O     0.37617   0.80351   0.03196   0.00000  Uiso   1.00
O359   O     0.42828   0.75100   0.05043   0.00000  Uiso   1.00
N360   N     0.57750   0.87722   0.29414   0.00000  Uiso   1.00
O361   O     0.62384   0.86316   0.30138   0.00000  Uiso   1.00
O362   O     0.57172   0.91567   0.28290   0.00000  Uiso   1.00
N363   N     0.42516   0.78669   0.27618   0.00000  Uiso   1.00
O364   O     0.37813   0.79927   0.26867   0.00000  Uiso   1.00
O365   O     0.43320   0.74783   0.27078   0.00000  Uiso   1.00
N366   N     0.57483   0.87998   0.05715   0.00000  Uiso   1.00
O367   O     0.62187   0.86740   0.06468   0.00000  Uiso   1.00
O368   O     0.56679   0.91885   0.06253   0.00000  Uiso   1.00
O369   O     0.83333   0.77322   0.20625   0.00000  Uiso   1.00
O370   O     0.83334   0.89345   0.12709   0.00000  Uiso   1.00
O371   O     0.83333   0.77321   0.12706   0.00000  Uiso   1.00
O372   O     0.83334   0.89346   0.20628   0.00000  Uiso   1.00
C373   C     0.83366   0.75413   0.16670   0.00000  Uiso   1.00
C374   C     0.83301   0.91253   0.16663   0.00000  Uiso   1.00
O375   O     0.75828   0.83334   0.19712   0.00000  Uiso   1.00
O376   O     0.90839   0.83333   0.13621   0.00000  Uiso   1.00
O377   O     0.75828   0.83333   0.11793   0.00000  Uiso   1.00
O378   O     0.90839   0.83334   0.21540   0.00000  Uiso   1.00
C379   C     0.73484   0.83173   0.15520   0.00000  Uiso   1.00
C380   C     0.93183   0.83494   0.17813   0.00000  Uiso   1.00
Cu381  Cu    0.83333   0.83334   0.21355   0.00000  Uiso   1.00
Cu382  Cu    0.83333   0.83333   0.11978   0.00000  Uiso   1.00
N383   N     0.83335   0.83334   0.28403   0.00000  Uiso   1.00
N384   N     0.83332   0.83332   0.04931   0.00000  Uiso   1.00
C385   C     0.68030   0.82366   0.15186   0.00000  Uiso   1.00
C386   C     0.98637   0.84301   0.18147   0.00000  Uiso   1.00
C387   C     0.83233   0.68794   0.12451   0.00000  Uiso   1.00
C388   C     0.83433   0.97873   0.20882   0.00000  Uiso   1.00
H389   H     0.83191   0.70383   0.09153   0.00000  Uiso   1.00
H390   H     0.83475   0.96284   0.24181   0.00000  Uiso   1.00
C391   C     0.83124   0.97871   0.12441   0.00000  Uiso   1.00
C392   C     0.83543   0.68796   0.20892   0.00000  Uiso   1.00
H393   H     0.82908   0.96280   0.09129   0.00000  Uiso   1.00
H394   H     0.83758   0.70387   0.24204   0.00000  Uiso   1.00
C395   C     0.83270   0.95720   0.16660   0.00000  Uiso   1.00
C396   C     0.83397   0.70947   0.16673   0.00000  Uiso   1.00
C397   C     0.79640   0.81150   0.02034   0.00000  Uiso   1.00
C398   C     0.87027   0.85516   0.31299   0.00000  Uiso   1.00
C399   C     0.79661   0.81130   0.30435   0.00000  Uiso   1.00
C400   C     0.87006   0.85537   0.02898   0.00000  Uiso   1.00
Br401  Br    0.98757   0.77516   0.11683   0.00000  Uiso   1.00
Br402  Br    0.67910   0.89150   0.21650   0.00000  Uiso   1.00
N403   N     0.75584   0.78944   0.03919   0.00000  Uiso   1.00
O404   O     0.70950   0.80351   0.03196   0.00000  Uiso   1.00
O405   O     0.76162   0.75100   0.05043   0.00000  Uiso   1.00
N406   N     0.91083   0.87722   0.29414   0.00000  Uiso   1.00
O407   O     0.95717   0.86316   0.30138   0.00000  Uiso   1.00
O408   O     0.90505   0.91567   0.28290   0.00000  Uiso   1.00
N409   N     0.75850   0.78669   0.27618   0.00000  Uiso   1.00
O410   O     0.71146   0.79927   0.26867   0.00000  Uiso   1.00
O411   O     0.76654   0.74783   0.27078   0.00000  Uiso   1.00
N412   N     0.90816   0.87998   0.05715   0.00000  Uiso   1.00
O413   O     0.95520   0.86740   0.06468   0.00000  Uiso   1.00
O414   O     0.90013   0.91885   0.06253   0.00000  Uiso   1.00
O415   O     0.16666   0.10655   0.53958   0.00000  Uiso   1.00
O416   O     0.16667   0.22678   0.46042   0.00000  Uiso   1.00
O417   O     0.16666   0.10654   0.46039   0.00000  Uiso   1.00
O418   O     0.16667   0.22679   0.53961   0.00000  Uiso   1.00
C419   C     0.16699   0.08747   0.50003   0.00000  Uiso   1.00
C420   C     0.16634   0.24587   0.49997   0.00000  Uiso   1.00
O421   O     0.09161   0.16667   0.53046   0.00000  Uiso   1.00
O422   O     0.24172   0.16666   0.46954   0.00000  Uiso   1.00
O423   O     0.09161   0.16666   0.45127   0.00000  Uiso   1.00
O424   O     0.24172   0.16667   0.54873   0.00000  Uiso   1.00
C425   C     0.06817   0.16506   0.48853   0.00000  Uiso   1.00
C426   C     0.26516   0.16827   0.51147   0.00000  Uiso   1.00
Cu427  Cu    0.16667   0.16667   0.54689   0.00000  Uiso   1.00
Cu428  Cu    0.16667   0.16666   0.45311   0.00000  Uiso   1.00
N429   N     0.16668   0.16668   0.61736   0.00000  Uiso   1.00
N430   N     0.16665   0.16666   0.38264   0.00000  Uiso   1.00
C431   C     0.01363   0.15699   0.48520   0.00000  Uiso   1.00
C432   C     0.31970   0.17634   0.51480   0.00000  Uiso   1.00
C433   C     0.16567   0.02127   0.45784   0.00000  Uiso   1.00
C434   C     0.16767   0.31206   0.54216   0.00000  Uiso   1.00
H435   H     0.16525   0.03716   0.42486   0.00000  Uiso   1.00
H436   H     0.16809   0.29617   0.57514   0.00000  Uiso   1.00
C437   C     0.16457   0.31204   0.45775   0.00000  Uiso   1.00
C438   C     0.16877   0.02129   0.54225   0.00000  Uiso   1.00
H439   H     0.16242   0.29613   0.42462   0.00000  Uiso   1.00
H440   H     0.17092   0.03720   0.57538   0.00000  Uiso   1.00
C441   C     0.16603   0.29053   0.49994   0.00000  Uiso   1.00
C442   C     0.16731   0.04280   0.50006   0.00000  Uiso   1.00
C443   C     0.12973   0.14484   0.35368   0.00000  Uiso   1.00
C444   C     0.20360   0.18850   0.64632   0.00000  Uiso   1.00
C445   C     0.12994   0.14463   0.63769   0.00000  Uiso   1.00
C446   C     0.20339   0.18870   0.36231   0.00000  Uiso   1.00
Br447  Br    0.32090   0.10850   0.45017   0.00000  Uiso   1.00
Br448  Br    0.01243   0.22484   0.54984   0.00000  Uiso   1.00
N449   N     0.08917   0.12277   0.37253   0.00000  Uiso   1.00
O450   O     0.04283   0.13685   0.36530   0.00000  Uiso   1.00
O451   O     0.09495   0.08433   0.38377   0.00000  Uiso   1.00
N452   N     0.24417   0.21056   0.62747   0.00000  Uiso   1.00
O453   O     0.29050   0.19649   0.63471   0.00000  Uiso   1.00
O454   O     0.23838   0.24900   0.61623   0.00000  Uiso   1.00
N455   N     0.09183   0.12003   0.60952   0.00000  Uiso   1.00
O456   O     0.04479   0.13261   0.60200   0.00000  Uiso   1.00
O457   O     0.09987   0.08116   0.60412   0.00000  Uiso   1.00
N458   N     0.24150   0.21331   0.39048   0.00000  Uiso   1.00
O459   O     0.28853   0.20073   0.39801   0.00000  Uiso   1.00
O460   O     0.23346   0.25218   0.39586   0.00000  Uiso   1.00
O461   O     0.50000   0.10655   0.53958   0.00000  Uiso   1.00
O462   O     0.50000   0.22678   0.46042   0.00000  Uiso   1.00
O463   O     0.50000   0.10654   0.46039   0.00000  Uiso   1.00
O464   O     0.50000   0.22679   0.53961   0.00000  Uiso   1.00
C465   C     0.50033   0.08747   0.50003   0.00000  Uiso   1.00
C466   C     0.49967   0.24587   0.49997   0.00000  Uiso   1.00
O467   O     0.42495   0.16667   0.53046   0.00000  Uiso   1.00
O468   O     0.57505   0.16666   0.46954   0.00000  Uiso   1.00
O469   O     0.42494   0.16666   0.45127   0.00000  Uiso   1.00
O470   O     0.57506   0.16667   0.54873   0.00000  Uiso   1.00
C471   C     0.40151   0.16506   0.48853   0.00000  Uiso   1.00
C472   C     0.59849   0.16827   0.51147   0.00000  Uiso   1.00
Cu473  Cu    0.50000   0.16667   0.54689   0.00000  Uiso   1.00
Cu474  Cu    0.50000   0.16666   0.45311   0.00000  Uiso   1.00
N475   N     0.50001   0.16668   0.61736   0.00000  Uiso   1.00
N476   N     0.49999   0.16666   0.38264   0.00000  Uiso   1.00
C477   C     0.34697   0.15699   0.48520   0.00000  Uiso   1.00
C478   C     0.65303   0.17634   0.51480   0.00000  Uiso   1.00
C479   C     0.49900   0.02127   0.45784   0.00000  Uiso   1.00
C480   C     0.50100   0.31206   0.54216   0.00000  Uiso   1.00
H481   H     0.49858   0.03716   0.42486   0.00000  Uiso   1.00
H482   H     0.50142   0.29617   0.57514   0.00000  Uiso   1.00
C483   C     0.49790   0.31204   0.45775   0.00000  Uiso   1.00
C484   C     0.50210   0.02129   0.54225   0.00000  Uiso   1.00
H485   H     0.49575   0.29613   0.42462   0.00000  Uiso   1.00
H486   H     0.50425   0.03720   0.57538   0.00000  Uiso   1.00
C487   C     0.49936   0.29053   0.49994   0.00000  Uiso   1.00
C488   C     0.50064   0.04280   0.50006   0.00000  Uiso   1.00
C489   C     0.46306   0.14484   0.35368   0.00000  Uiso   1.00
C490   C     0.53694   0.18850   0.64632   0.00000  Uiso   1.00
C491   C     0.46327   0.14463   0.63769   0.00000  Uiso   1.00
C492   C     0.53673   0.18870   0.36231   0.00000  Uiso   1.00
Br493  Br    0.65424   0.10850   0.45017   0.00000  Uiso   1.00
Br494  Br    0.34576   0.22484   0.54984   0.00000  Uiso   1.00
N495   N     0.42250   0.12277   0.37253   0.00000  Uiso   1.00
O496   O     0.37617   0.13685   0.36530   0.00000  Uiso   1.00
O497   O     0.42828   0.08433   0.38377   0.00000  Uiso   1.00
N498   N     0.57750   0.21056   0.62747   0.00000  Uiso   1.00
O499   O     0.62384   0.19649   0.63471   0.00000  Uiso   1.00
O500   O     0.57172   0.24900   0.61623   0.00000  Uiso   1.00
N501   N     0.42516   0.12003   0.60952   0.00000  Uiso   1.00
O502   O     0.37813   0.13261   0.60200   0.00000  Uiso   1.00
O503   O     0.43320   0.08116   0.60412   0.00000  Uiso   1.00
N504   N     0.57483   0.21331   0.39048   0.00000  Uiso   1.00
O505   O     0.62187   0.20073   0.39801   0.00000  Uiso   1.00
O506   O     0.56679   0.25218   0.39586   0.00000  Uiso   1.00
O507   O     0.83333   0.10655   0.53958   0.00000  Uiso   1.00
O508   O     0.83334   0.22678   0.46042   0.00000  Uiso   1.00
O509   O     0.83333   0.10654   0.46039   0.00000  Uiso   1.00
O510   O     0.83334   0.22679   0.53961   0.00000  Uiso   1.00
C511   C     0.83366   0.08747   0.50003   0.00000  Uiso   1.00
C512   C     0.83301   0.24587   0.49997   0.00000  Uiso   1.00
O513   O     0.75828   0.16667   0.53046   0.00000  Uiso   1.00
O514   O     0.90839   0.16666   0.46954   0.00000  Uiso   1.00
O515   O     0.75828   0.16666   0.45127   0.00000  Uiso   1.00
O516   O     0.90839   0.16667   0.54873   0.00000  Uiso   1.00
C517   C     0.73484   0.16506   0.48853   0.00000  Uiso   1.00
C518   C     0.93183   0.16827   0.51147   0.00000  Uiso   1.00
Cu519  Cu    0.83333   0.16667   0.54689   0.00000  Uiso   1.00
Cu520  Cu    0.83333   0.16666   0.45311   0.00000  Uiso   1.00
N521   N     0.83335   0.16668   0.61736   0.00000  Uiso   1.00
N522   N     0.83332   0.16666   0.38264   0.00000  Uiso   1.00
C523   C     0.68030   0.15699   0.48520   0.00000  Uiso   1.00
C524   C     0.98637   0.17634   0.51480   0.00000  Uiso   1.00
C525   C     0.83233   0.02127   0.45784   0.00000  Uiso   1.00
C526   C     0.83433   0.31206   0.54216   0.00000  Uiso   1.00
H527   H     0.83191   0.03716   0.42486   0.00000  Uiso   1.00
H528   H     0.83475   0.29617   0.57514   0.00000  Uiso   1.00
C529   C     0.83124   0.31204   0.45775   0.00000  Uiso   1.00
C530   C     0.83543   0.02129   0.54225   0.00000  Uiso   1.00
H531   H     0.82908   0.29613   0.42462   0.00000  Uiso   1.00
H532   H     0.83758   0.03720   0.57538   0.00000  Uiso   1.00
C533   C     0.83270   0.29053   0.49994   0.00000  Uiso   1.00
C534   C     0.83397   0.04280   0.50006   0.00000  Uiso   1.00
C535   C     0.79640   0.14484   0.35368   0.00000  Uiso   1.00
C536   C     0.87027   0.18850   0.64632   0.00000  Uiso   1.00
C537   C     0.79661   0.14463   0.63769   0.00000  Uiso   1.00
C538   C     0.87006   0.18870   0.36231   0.00000  Uiso   1.00
Br539  Br    0.98757   0.10850   0.45017   0.00000  Uiso   1.00
Br540  Br    0.67910   0.22484   0.54984   0.00000  Uiso   1.00
N541   N     0.75584   0.12277   0.37253   0.00000  Uiso   1.00
O542   O     0.70950   0.13685   0.36530   0.00000  Uiso   1.00
O543   O     0.76162   0.08433   0.38377   0.00000  Uiso   1.00
N544   N     0.91083   0.21056   0.62747   0.00000  Uiso   1.00
O545   O     0.95717   0.19649   0.63471   0.00000  Uiso   1.00
O546   O     0.90505   0.24900   0.61623   0.00000  Uiso   1.00
N547   N     0.75850   0.12003   0.60952   0.00000  Uiso   1.00
O548   O     0.71146   0.13261   0.60200   0.00000  Uiso   1.00
O549   O     0.76654   0.08116   0.60412   0.00000  Uiso   1.00
N550   N     0.90816   0.21331   0.39048   0.00000  Uiso   1.00
O551   O     0.95520   0.20073   0.39801   0.00000  Uiso   1.00
O552   O     0.90013   0.25218   0.39586   0.00000  Uiso   1.00
O553   O     0.16666   0.43989   0.53958   0.00000  Uiso   1.00
O554   O     0.16667   0.56011   0.46042   0.00000  Uiso   1.00
O555   O     0.16666   0.43988   0.46039   0.00000  Uiso   1.00
O556   O     0.16667   0.56012   0.53961   0.00000  Uiso   1.00
C557   C     0.16699   0.42080   0.50003   0.00000  Uiso   1.00
C558   C     0.16634   0.57920   0.49997   0.00000  Uiso   1.00
O559   O     0.09161   0.50000   0.53046   0.00000  Uiso   1.00
O560   O     0.24172   0.50000   0.46954   0.00000  Uiso   1.00
O561   O     0.09161   0.49999   0.45127   0.00000  Uiso   1.00
O562   O     0.24172   0.50001   0.54873   0.00000  Uiso   1.00
C563   C     0.06817   0.49840   0.48853   0.00000  Uiso   1.00
C564   C     0.26516   0.50160   0.51147   0.00000  Uiso   1.00
Cu565  Cu    0.16667   0.50001   0.54689   0.00000  Uiso   1.00
Cu566  Cu    0.16667   0.49999   0.45311   0.00000  Uiso   1.00
N567   N     0.16668   0.50001   0.61736   0.00000  Uiso   1.00
N568   N     0.16665   0.49999   0.38264   0.00000  Uiso   1.00
C569   C     0.01363   0.49033   0.48520   0.00000  Uiso   1.00
C570   C     0.31970   0.50967   0.51480   0.00000  Uiso   1.00
C571   C     0.16567   0.35461   0.45784   0.00000  Uiso   1.00
C572   C     0.16767   0.64539   0.54216   0.00000  Uiso   1.00
H573   H     0.16525   0.37050   0.42486   0.00000  Uiso   1.00
H574   H     0.16809   0.62950   0.57514   0.00000  Uiso   1.00
C575   C     0.16457   0.64537   0.45775   0.00000  Uiso   1.00
C576   C     0.16877   0.35463   0.54225   0.00000  Uiso   1.00
H577   H     0.16242   0.62946   0.42462   0.00000  Uiso   1.00
H578   H     0.17092   0.37054   0.57538   0.00000  Uiso   1.00
C579   C     0.16603   0.62387   0.49994   0.00000  Uiso   1.00
C580   C     0.16731   0.37613   0.50006   0.00000  Uiso   1.00
C581   C     0.12973   0.47817   0.35368   0.00000  Uiso   1.00
C582   C     0.20360   0.52183   0.64632   0.00000  Uiso   1.00
C583   C     0.12994   0.47797   0.63769   0.00000  Uiso   1.00
C584   C     0.20339   0.52203   0.36231   0.00000  Uiso   1.00
Br585  Br    0.32090   0.44183   0.45017   0.00000  Uiso   1.00
Br586  Br    0.01243   0.55817   0.54984   0.00000  Uiso   1.00
N587   N     0.08917   0.45611   0.37253   0.00000  Uiso   1.00
O588   O     0.04283   0.47018   0.36530   0.00000  Uiso   1.00
O589   O     0.09495   0.41766   0.38377   0.00000  Uiso   1.00
N590   N     0.24417   0.54389   0.62747   0.00000  Uiso   1.00
O591   O     0.29050   0.52982   0.63471   0.00000  Uiso   1.00
O592   O     0.23838   0.58233   0.61623   0.00000  Uiso   1.00
N593   N     0.09183   0.45336   0.60952   0.00000  Uiso   1.00
O594   O     0.04479   0.46594   0.60200   0.00000  Uiso   1.00
O595   O     0.09987   0.41450   0.60412   0.00000  Uiso   1.00
N596   N     0.24150   0.54665   0.39048   0.00000  Uiso   1.00
O597   O     0.28853   0.53406   0.39801   0.00000  Uiso   1.00
O598   O     0.23346   0.58551   0.39586   0.00000  Uiso   1.00
O599   O     0.50000   0.43989   0.53958   0.00000  Uiso   1.00
O600   O     0.50000   0.56011   0.46042   0.00000  Uiso   1.00
O601   O     0.50000   0.43988   0.46039   0.00000  Uiso   1.00
O602   O     0.50000   0.56012   0.53961   0.00000  Uiso   1.00
C603   C     0.50033   0.42080   0.50003   0.00000  Uiso   1.00
C604   C     0.49967   0.57920   0.49997   0.00000  Uiso   1.00
O605   O     0.42495   0.50000   0.53046   0.00000  Uiso   1.00
O606   O     0.57505   0.50000   0.46954   0.00000  Uiso   1.00
O607   O     0.42494   0.49999   0.45127   0.00000  Uiso   1.00
O608   O     0.57506   0.50001   0.54873   0.00000  Uiso   1.00
C609   C     0.40151   0.49840   0.48853   0.00000  Uiso   1.00
C610   C     0.59849   0.50160   0.51147   0.00000  Uiso   1.00
Cu611  Cu    0.50000   0.50001   0.54689   0.00000  Uiso   1.00
Cu612  Cu    0.50000   0.49999   0.45311   0.00000  Uiso   1.00
N613   N     0.50001   0.50001   0.61736   0.00000  Uiso   1.00
N614   N     0.49999   0.49999   0.38264   0.00000  Uiso   1.00
C615   C     0.34697   0.49033   0.48520   0.00000  Uiso   1.00
C616   C     0.65303   0.50967   0.51480   0.00000  Uiso   1.00
C617   C     0.49900   0.35461   0.45784   0.00000  Uiso   1.00
C618   C     0.50100   0.64539   0.54216   0.00000  Uiso   1.00
H619   H     0.49858   0.37050   0.42486   0.00000  Uiso   1.00
H620   H     0.50142   0.62950   0.57514   0.00000  Uiso   1.00
C621   C     0.49790   0.64537   0.45775   0.00000  Uiso   1.00
C622   C     0.50210   0.35463   0.54225   0.00000  Uiso   1.00
H623   H     0.49575   0.62946   0.42462   0.00000  Uiso   1.00
H624   H     0.50425   0.37054   0.57538   0.00000  Uiso   1.00
C625   C     0.49936   0.62387   0.49994   0.00000  Uiso   1.00
C626   C     0.50064   0.37613   0.50006   0.00000  Uiso   1.00
C627   C     0.46306   0.47817   0.35368   0.00000  Uiso   1.00
C628   C     0.53694   0.52183   0.64632   0.00000  Uiso   1.00
C629   C     0.46327   0.47797   0.63769   0.00000  Uiso   1.00
C630   C     0.53673   0.52203   0.36231   0.00000  Uiso   1.00
Br631  Br    0.65424   0.44183   0.45017   0.00000  Uiso   1.00
Br632  Br    0.34576   0.55817   0.54984   0.00000  Uiso   1.00
N633   N     0.42250   0.45611   0.37253   0.00000  Uiso   1.00
O634   O     0.37617   0.47018   0.36530   0.00000  Uiso   1.00
O635   O     0.42828   0.41766   0.38377   0.00000  Uiso   1.00
N636   N     0.57750   0.54389   0.62747   0.00000  Uiso   1.00
O637   O     0.62384   0.52982   0.63471   0.00000  Uiso   1.00
O638   O     0.57172   0.58233   0.61623   0.00000  Uiso   1.00
N639   N     0.42516   0.45336   0.60952   0.00000  Uiso   1.00
O640   O     0.37813   0.46594   0.60200   0.00000  Uiso   1.00
O641   O     0.43320   0.41450   0.60412   0.00000  Uiso   1.00
N642   N     0.57483   0.54665   0.39048   0.00000  Uiso   1.00
O643   O     0.62187   0.53406   0.39801   0.00000  Uiso   1.00
O644   O     0.56679   0.58551   0.39586   0.00000  Uiso   1.00
O645   O     0.83333   0.43989   0.53958   0.00000  Uiso   1.00
O646   O     0.83334   0.56011   0.46042   0.00000  Uiso   1.00
O647   O     0.83333   0.43988   0.46039   0.00000  Uiso   1.00
O648   O     0.83334   0.56012   0.53961   0.00000  Uiso   1.00
C649   C     0.83366   0.42080   0.50003   0.00000  Uiso   1.00
C650   C     0.83301   0.57920   0.49997   0.00000  Uiso   1.00
O651   O     0.75828   0.50000   0.53046   0.00000  Uiso   1.00
O652   O     0.90839   0.50000   0.46954   0.00000  Uiso   1.00
O653   O     0.75828   0.49999   0.45127   0.00000  Uiso   1.00
O654   O     0.90839   0.50001   0.54873   0.00000  Uiso   1.00
C655   C     0.73484   0.49840   0.48853   0.00000  Uiso   1.00
C656   C     0.93183   0.50160   0.51147   0.00000  Uiso   1.00
Cu657  Cu    0.83333   0.50001   0.54689   0.00000  Uiso   1.00
Cu658  Cu    0.83333   0.49999   0.45311   0.00000  Uiso   1.00
N659   N     0.83335   0.50001   0.61736   0.00000  Uiso   1.00
N660   N     0.83332   0.49999   0.38264   0.00000  Uiso   1.00
C661   C     0.68030   0.49033   0.48520   0.00000  Uiso   1.00
C662   C     0.98637   0.50967   0.51480   0.00000  Uiso   1.00
C663   C     0.83233   0.35461   0.45784   0.00000  Uiso   1.00
C664   C     0.83433   0.64539   0.54216   0.00000  Uiso   1.00
H665   H     0.83191   0.37050   0.42486   0.00000  Uiso   1.00
H666   H     0.83475   0.62950   0.57514   0.00000  Uiso   1.00
C667   C     0.83124   0.64537   0.45775   0.00000  Uiso   1.00
C668   C     0.83543   0.35463   0.54225   0.00000  Uiso   1.00
H669   H     0.82908   0.62946   0.42462   0.00000  Uiso   1.00
H670   H     0.83758   0.37054   0.57538   0.00000  Uiso   1.00
C671   C     0.83270   0.62387   0.49994   0.00000  Uiso   1.00
C672   C     0.83397   0.37613   0.50006   0.00000  Uiso   1.00
C673   C     0.79640   0.47817   0.35368   0.00000  Uiso   1.00
C674   C     0.87027   0.52183   0.64632   0.00000  Uiso   1.00
C675   C     0.79661   0.47797   0.63769   0.00000  Uiso   1.00
C676   C     0.87006   0.52203   0.36231   0.00000  Uiso   1.00
Br677  Br    0.98757   0.44183   0.45017   0.00000  Uiso   1.00
Br678  Br    0.67910   0.55817   0.54984   0.00000  Uiso   1.00
N679   N     0.75584   0.45611   0.37253   0.00000  Uiso   1.00
O680   O     0.70950   0.47018   0.36530   0.00000  Uiso   1.00
O681   O     0.76162   0.41766   0.38377   0.00000  Uiso   1.00
N682   N     0.91083   0.54389   0.62747   0.00000  Uiso   1.00
O683   O     0.95717   0.52982   0.63471   0.00000  Uiso   1.00
O684   O     0.90505   0.58233   0.61623   0.00000  Uiso   1.00
N685   N     0.75850   0.45336   0.60952   0.00000  Uiso   1.00
O686   O     0.71146   0.46594   0.60200   0.00000  Uiso   1.00
O687   O     0.76654   0.41450   0.60412   0.00000  Uiso   1.00
N688   N     0.90816   0.54665   0.39048   0.00000  Uiso   1.00
O689   O     0.95520   0.53406   0.39801   0.00000  Uiso   1.00
O690   O     0.90013   0.58551   0.39586   0.00000  Uiso   1.00
O691   O     0.16666   0.77322   0.53958   0.00000  Uiso   1.00
O692   O     0.16667   0.89345   0.46042   0.00000  Uiso   1.00
O693   O     0.16666   0.77321   0.46039   0.00000  Uiso   1.00
O694   O     0.16667   0.89346   0.53961   0.00000  Uiso   1.00
C695   C     0.16699   0.75413   0.50003   0.00000  Uiso   1.00
C696   C     0.16634   0.91253   0.49997   0.00000  Uiso   1.00
O697   O     0.09161   0.83334   0.53046   0.00000  Uiso   1.00
O698   O     0.24172   0.83333   0.46954   0.00000  Uiso   1.00
O699   O     0.09161   0.83333   0.45127   0.00000  Uiso   1.00
O700   O     0.24172   0.83334   0.54873   0.00000  Uiso   1.00
C701   C     0.06817   0.83173   0.48853   0.00000  Uiso   1.00
C702   C     0.26516   0.83494   0.51147   0.00000  Uiso   1.00
Cu703  Cu    0.16667   0.83334   0.54689   0.00000  Uiso   1.00
Cu704  Cu    0.16667   0.83333   0.45311   0.00000  Uiso   1.00
N705   N     0.16668   0.83334   0.61736   0.00000  Uiso   1.00
N706   N     0.16665   0.83332   0.38264   0.00000  Uiso   1.00
C707   C     0.01363   0.82366   0.48520   0.00000  Uiso   1.00
C708   C     0.31970   0.84301   0.51480   0.00000  Uiso   1.00
C709   C     0.16567   0.68794   0.45784   0.00000  Uiso   1.00
C710   C     0.16767   0.97873   0.54216   0.00000  Uiso   1.00
H711   H     0.16525   0.70383   0.42486   0.00000  Uiso   1.00
H712   H     0.16809   0.96284   0.57514   0.00000  Uiso   1.00
C713   C     0.16457   0.97871   0.45775   0.00000  Uiso   1.00
C714   C     0.16877   0.68796   0.54225   0.00000  Uiso   1.00
H715   H     0.16242   0.96280   0.42462   0.00000  Uiso   1.00
H716   H     0.17092   0.70387   0.57538   0.00000  Uiso   1.00
C717   C     0.16603   0.95720   0.49994   0.00000  Uiso   1.00
C718   C     0.16731   0.70947   0.50006   0.00000  Uiso   1.00
C719   C     0.12973   0.81150   0.35368   0.00000  Uiso   1.00
C720   C     0.20360   0.85516   0.64632   0.00000  Uiso   1.00
C721   C     0.12994   0.81130   0.63769   0.00000  Uiso   1.00
C722   C     0.20339   0.85537   0.36231   0.00000  Uiso   1.00
Br723  Br    0.32090   0.77516   0.45017   0.00000  Uiso   1.00
Br724  Br    0.01243   0.89150   0.54984   0.00000  Uiso   1.00
N725   N     0.08917   0.78944   0.37253   0.00000  Uiso   1.00
O726   O     0.04283   0.80351   0.36530   0.00000  Uiso   1.00
O727   O     0.09495   0.75100   0.38377   0.00000  Uiso   1.00
N728   N     0.24417   0.87722   0.62747   0.00000  Uiso   1.00
O729   O     0.29050   0.86316   0.63471   0.00000  Uiso   1.00
O730   O     0.23838   0.91567   0.61623   0.00000  Uiso   1.00
N731   N     0.09183   0.78669   0.60952   0.00000  Uiso   1.00
O732   O     0.04479   0.79927   0.60200   0.00000  Uiso   1.00
O733   O     0.09987   0.74783   0.60412   0.00000  Uiso   1.00
N734   N     0.24150   0.87998   0.39048   0.00000  Uiso   1.00
O735   O     0.28853   0.86740   0.39801   0.00000  Uiso   1.00
O736   O     0.23346   0.91885   0.39586   0.00000  Uiso   1.00
O737   O     0.50000   0.77322   0.53958   0.00000  Uiso   1.00
O738   O     0.50000   0.89345   0.46042   0.00000  Uiso   1.00
O739   O     0.50000   0.77321   0.46039   0.00000  Uiso   1.00
O740   O     0.50000   0.89346   0.53961   0.00000  Uiso   1.00
C741   C     0.50033   0.75413   0.50003   0.00000  Uiso   1.00
C742   C     0.49967   0.91253   0.49997   0.00000  Uiso   1.00
O743   O     0.42495   0.83334   0.53046   0.00000  Uiso   1.00
O744   O     0.57505   0.83333   0.46954   0.00000  Uiso   1.00
O745   O     0.42494   0.83333   0.45127   0.00000  Uiso   1.00
O746   O     0.57506   0.83334   0.54873   0.00000  Uiso   1.00
C747   C     0.40151   0.83173   0.48853   0.00000  Uiso   1.00
C748   C     0.59849   0.83494   0.51147   0.00000  Uiso   1.00
Cu749  Cu    0.50000   0.83334   0.54689   0.00000  Uiso   1.00
Cu750  Cu    0.50000   0.83333   0.45311   0.00000  Uiso   1.00
N751   N     0.50001   0.83334   0.61736   0.00000  Uiso   1.00
N752   N     0.49999   0.83332   0.38264   0.00000  Uiso   1.00
C753   C     0.34697   0.82366   0.48520   0.00000  Uiso   1.00
C754   C     0.65303   0.84301   0.51480   0.00000  Uiso   1.00
C755   C     0.49900   0.68794   0.45784   0.00000  Uiso   1.00
C756   C     0.50100   0.97873   0.54216   0.00000  Uiso   1.00
H757   H     0.49858   0.70383   0.42486   0.00000  Uiso   1.00
H758   H     0.50142   0.96284   0.57514   0.00000  Uiso   1.00
C759   C     0.49790   0.97871   0.45775   0.00000  Uiso   1.00
C760   C     0.50210   0.68796   0.54225   0.00000  Uiso   1.00
H761   H     0.49575   0.96280   0.42462   0.00000  Uiso   1.00
H762   H     0.50425   0.70387   0.57538   0.00000  Uiso   1.00
C763   C     0.49936   0.95720   0.49994   0.00000  Uiso   1.00
C764   C     0.50064   0.70947   0.50006   0.00000  Uiso   1.00
C765   C     0.46306   0.81150   0.35368   0.00000  Uiso   1.00
C766   C     0.53694   0.85516   0.64632   0.00000  Uiso   1.00
C767   C     0.46327   0.81130   0.63769   0.00000  Uiso   1.00
C768   C     0.53673   0.85537   0.36231   0.00000  Uiso   1.00
Br769  Br    0.65424   0.77516   0.45017   0.00000  Uiso   1.00
Br770  Br    0.34576   0.89150   0.54984   0.00000  Uiso   1.00
N771   N     0.42250   0.78944   0.37253   0.00000  Uiso   1.00
O772   O     0.37617   0.80351   0.36530   0.00000  Uiso   1.00
O773   O     0.42828   0.75100   0.38377   0.00000  Uiso   1.00
N774   N     0.57750   0.87722   0.62747   0.00000  Uiso   1.00
O775   O     0.62384   0.86316   0.63471   0.00000  Uiso   1.00
O776   O     0.57172   0.91567   0.61623   0.00000  Uiso   1.00
N777   N     0.42516   0.78669   0.60952   0.00000  Uiso   1.00
O778   O     0.37813   0.79927   0.60200   0.00000  Uiso   1.00
O779   O     0.43320   0.74783   0.60412   0.00000  Uiso   1.00
N780   N     0.57483   0.87998   0.39048   0.00000  Uiso   1.00
O781   O     0.62187   0.86740   0.39801   0.00000  Uiso   1.00
O782   O     0.56679   0.91885   0.39586   0.00000  Uiso   1.00
O783   O     0.83333   0.77322   0.53958   0.00000  Uiso   1.00
O784   O     0.83334   0.89345   0.46042   0.00000  Uiso   1.00
O785   O     0.83333   0.77321   0.46039   0.00000  Uiso   1.00
O786   O     0.83334   0.89346   0.53961   0.00000  Uiso   1.00
C787   C     0.83366   0.75413   0.50003   0.00000  Uiso   1.00
C788   C     0.83301   0.91253   0.49997   0.00000  Uiso   1.00
O789   O     0.75828   0.83334   0.53046   0.00000  Uiso   1.00
O790   O     0.90839   0.83333   0.46954   0.00000  Uiso   1.00
O791   O     0.75828   0.83333   0.45127   0.00000  Uiso   1.00
O792   O     0.90839   0.83334   0.54873   0.00000  Uiso   1.00
C793   C     0.73484   0.83173   0.48853   0.00000  Uiso   1.00
C794   C     0.93183   0.83494   0.51147   0.00000  Uiso   1.00
Cu795  Cu    0.83333   0.83334   0.54689   0.00000  Uiso   1.00
Cu796  Cu    0.83333   0.83333   0.45311   0.00000  Uiso   1.00
N797   N     0.83335   0.83334   0.61736   0.00000  Uiso   1.00
N798   N     0.83332   0.83332   0.38264   0.00000  Uiso   1.00
C799   C     0.68030   0.82366   0.48520   0.00000  Uiso   1.00
C800   C     0.98637   0.84301   0.51480   0.00000  Uiso   1.00
C801   C     0.83233   0.68794   0.45784   0.00000  Uiso   1.00
C802   C     0.83433   0.97873   0.54216   0.00000  Uiso   1.00
H803   H     0.83191   0.70383   0.42486   0.00000  Uiso   1.00
H804   H     0.83475   0.96284   0.57514   0.00000  Uiso   1.00
C805   C     0.83124   0.97871   0.45775   0.00000  Uiso   1.00
C806   C     0.83543   0.68796   0.54225   0.00000  Uiso   1.00
H807   H     0.82908   0.96280   0.42462   0.00000  Uiso   1.00
H808   H     0.83758   0.70387   0.57538   0.00000  Uiso   1.00
C809   C     0.83270   0.95720   0.49994   0.00000  Uiso   1.00
C810   C     0.83397   0.70947   0.50006   0.00000  Uiso   1.00
C811   C     0.79640   0.81150   0.35368   0.00000  Uiso   1.00
C812   C     0.87027   0.85516   0.64632   0.00000  Uiso   1.00
C813   C     0.79661   0.81130   0.63769   0.00000  Uiso   1.00
C814   C     0.87006   0.85537   0.36231   0.00000  Uiso   1.00
Br815  Br    0.98757   0.77516   0.45017   0.00000  Uiso   1.00
Br816  Br    0.67910   0.89150   0.54984   0.00000  Uiso   1.00
N817   N     0.75584   0.78944   0.37253   0.00000  Uiso   1.00
O818   O     0.70950   0.80351   0.36530   0.00000  Uiso   1.00
O819   O     0.76162   0.75100   0.38377   0.00000  Uiso   1.00
N820   N     0.91083   0.87722   0.62747   0.00000  Uiso   1.00
O821   O     0.95717   0.86316   0.63471   0.00000  Uiso   1.00
O822   O     0.90505   0.91567   0.61623   0.00000  Uiso   1.00
N823   N     0.75850   0.78669   0.60952   0.00000  Uiso   1.00
O824   O     0.71146   0.79927   0.60200   0.00000  Uiso   1.00
O825   O     0.76654   0.74783   0.60412   0.00000  Uiso   1.00
N826   N     0.90816   0.87998   0.39048   0.00000  Uiso   1.00
O827   O     0.95520   0.86740   0.39801   0.00000  Uiso   1.00
O828   O     0.90013   0.91885   0.39586   0.00000  Uiso   1.00
O829   O     0.16666   0.10655   0.87291   0.00000  Uiso   1.00
O830   O     0.16667   0.22678   0.79375   0.00000  Uiso   1.00
O831   O     0.16666   0.10654   0.79372   0.00000  Uiso   1.00
O832   O     0.16667   0.22679   0.87294   0.00000  Uiso   1.00
C833   C     0.16699   0.08747   0.83337   0.00000  Uiso   1.00
C834   C     0.16634   0.24587   0.83330   0.00000  Uiso   1.00
O835   O     0.09161   0.16667   0.86379   0.00000  Uiso   1.00
O836   O     0.24172   0.16666   0.80288   0.00000  Uiso   1.00
O837   O     0.09161   0.16666   0.78460   0.00000  Uiso   1.00
O838   O     0.24172   0.16667   0.88207   0.00000  Uiso   1.00
C839   C     0.06817   0.16506   0.82187   0.00000  Uiso   1.00
C840   C     0.26516   0.16827   0.84480   0.00000  Uiso   1.00
Cu841  Cu    0.16667   0.16667   0.88022   0.00000  Uiso   1.00
Cu842  Cu    0.16667   0.16666   0.78645   0.00000  Uiso   1.00
N843   N     0.16668   0.16668   0.95069   0.00000  Uiso   1.00
N844   N     0.16665   0.16666   0.71597   0.00000  Uiso   1.00
C845   C     0.01363   0.15699   0.81853   0.00000  Uiso   1.00
C846   C     0.31970   0.17634   0.84814   0.00000  Uiso   1.00
C847   C     0.16567   0.02127   0.79118   0.00000  Uiso   1.00
C848   C     0.16767   0.31206   0.87549   0.00000  Uiso   1.00
H849   H     0.16525   0.03716   0.75819   0.00000  Uiso   1.00
H850   H     0.16809   0.29617   0.90847   0.00000  Uiso   1.00
C851   C     0.16457   0.31204   0.79108   0.00000  Uiso   1.00
C852   C     0.16877   0.02129   0.87559   0.00000  Uiso   1.00
H853   H     0.16242   0.29613   0.75796   0.00000  Uiso   1.00
H854   H     0.17092   0.03720   0.90871   0.00000  Uiso   1.00
C855   C     0.16603   0.29053   0.83327   0.00000  Uiso   1.00
C856   C     0.16731   0.04280   0.83340   0.00000  Uiso   1.00
C857   C     0.12973   0.14484   0.68701   0.00000  Uiso   1.00
C858   C     0.20360   0.18850   0.97966   0.00000  Uiso   1.00
C859   C     0.12994   0.14463   0.97102   0.00000  Uiso   1.00
C860   C     0.20339   0.18870   0.69564   0.00000  Uiso   1.00
Br861  Br    0.32090   0.10850   0.78350   0.00000  Uiso   1.00
Br862  Br    0.01243   0.22484   0.88317   0.00000  Uiso   1.00
N863   N     0.08917   0.12277   0.70586   0.00000  Uiso   1.00
O864   O     0.04283   0.13685   0.69863   0.00000  Uiso   1.00
O865   O     0.09495   0.08433   0.71710   0.00000  Uiso   1.00
N866   N     0.24417   0.21056   0.96081   0.00000  Uiso   1.00
O867   O     0.29050   0.19649   0.96804   0.00000  Uiso   1.00
O868   O     0.23838   0.24900   0.94956   0.00000  Uiso   1.00
N869   N     0.09183   0.12003   0.94285   0.00000  Uiso   1.00
O870   O     0.04479   0.13261   0.93534   0.00000  Uiso   1.00
O871   O     0.09987   0.08116   0.93745   0.00000  Uiso   1.00
N872   N     0.24150   0.21331   0.72382   0.00000  Uiso   1.00
O873   O     0.28853   0.20073   0.73134   0.00000  Uiso   1.00
O874   O     0.23346   0.25218   0.72920   0.00000  Uiso   1.00
O875   O     0.50000   0.10655   0.87291   0.00000  Uiso   1.00
O876   O     0.50000   0.22678   0.79375   0.00000  Uiso   1.00
O877   O     0.50000   0.10654   0.79372   0.00000  Uiso   1.00
O878   O     0.50000   0.22679   0.87294   0.00000  Uiso   1.00
C879   C     0.50033   0.08747   0.83337   0.00000  Uiso   1.00
C880   C     0.49967   0.24587   0.83330   0.00000  Uiso   1.00
O881   O     0.42495   0.16667   0.86379   0.00000  Uiso   1.00
O882   O     0.57505   0.16666   0.80288   0.00000  Uiso   1.00
O883   O     0.42494   0.16666   0.78460   0.00000  Uiso   1.00
O884   O     0.57506   0.16667   0.88207   0.00000  Uiso   1.00
C885   C     0.40151   0.16506   0.82187   0.00000  Uiso   1.00
C886   C     0.59849   0.16827   0.84480   0.00000  Uiso   1.00
Cu887  Cu    0.50000   0.16667   0.88022   0.00000  Uiso   1.00
Cu888  Cu    0.50000   0.16666   0.78645   0.00000  Uiso   1.00
N889   N     0.50001   0.16668   0.95069   0.00000  Uiso   1.00
N890   N     0.49999   0.16666   0.71597   0.00000  Uiso   1.00
C891   C     0.34697   0.15699   0.81853   0.00000  Uiso   1.00
C892   C     0.65303   0.17634   0.84814   0.00000  Uiso   1.00
C893   C     0.49900   0.02127   0.79118   0.00000  Uiso   1.00
C894   C     0.50100   0.31206   0.87549   0.00000  Uiso   1.00
H895   H     0.49858   0.03716   0.75819   0.00000  Uiso   1.00
H896   H     0.50142   0.29617   0.90847   0.00000  Uiso   1.00
C897   C     0.49790   0.31204   0.79108   0.00000  Uiso   1.00
C898   C     0.50210   0.02129   0.87559   0.00000  Uiso   1.00
H899   H     0.49575   0.29613   0.75796   0.00000  Uiso   1.00
H900   H     0.50425   0.03720   0.90871   0.00000  Uiso   1.00
C901   C     0.49936   0.29053   0.83327   0.00000  Uiso   1.00
C902   C     0.50064   0.04280   0.83340   0.00000  Uiso   1.00
C903   C     0.46306   0.14484   0.68701   0.00000  Uiso   1.00
C904   C     0.53694   0.18850   0.97966   0.00000  Uiso   1.00
C905   C     0.46327   0.14463   0.97102   0.00000  Uiso   1.00
C906   C     0.53673   0.18870   0.69564   0.00000  Uiso   1.00
Br907  Br    0.65424   0.10850   0.78350   0.00000  Uiso   1.00
Br908  Br    0.34576   0.22484   0.88317   0.00000  Uiso   1.00
N909   N     0.42250   0.12277   0.70586   0.00000  Uiso   1.00
O910   O     0.37617   0.13685   0.69863   0.00000  Uiso   1.00
O911   O     0.42828   0.08433   0.71710   0.00000  Uiso   1.00
N912   N     0.57750   0.21056   0.96081   0.00000  Uiso   1.00
O913   O     0.62384   0.19649   0.96804   0.00000  Uiso   1.00
O914   O     0.57172   0.24900   0.94956   0.00000  Uiso   1.00
N915   N     0.42516   0.12003   0.94285   0.00000  Uiso   1.00
O916   O     0.37813   0.13261   0.93534   0.00000  Uiso   1.00
O917   O     0.43320   0.08116   0.93745   0.00000  Uiso   1.00
N918   N     0.57483   0.21331   0.72382   0.00000  Uiso   1.00
O919   O     0.62187   0.20073   0.73134   0.00000  Uiso   1.00
O920   O     0.56679   0.25218   0.72920   0.00000  Uiso   1.00
O921   O     0.83333   0.10655   0.87291   0.00000  Uiso   1.00
O922   O     0.83334   0.22678   0.79375   0.00000  Uiso   1.00
O923   O     0.83333   0.10654   0.79372   0.00000  Uiso   1.00
O924   O     0.83334   0.22679   0.87294   0.00000  Uiso   1.00
C925   C     0.83366   0.08747   0.83337   0.00000  Uiso   1.00
C926   C     0.83301   0.24587   0.83330   0.00000  Uiso   1.00
O927   O     0.75828   0.16667   0.86379   0.00000  Uiso   1.00
O928   O     0.90839   0.16666   0.80288   0.00000  Uiso   1.00
O929   O     0.75828   0.16666   0.78460   0.00000  Uiso   1.00
O930   O     0.90839   0.16667   0.88207   0.00000  Uiso   1.00
C931   C     0.73484   0.16506   0.82187   0.00000  Uiso   1.00
C932   C     0.93183   0.16827   0.84480   0.00000  Uiso   1.00
Cu933  Cu    0.83333   0.16667   0.88022   0.00000  Uiso   1.00
Cu934  Cu    0.83333   0.16666   0.78645   0.00000  Uiso   1.00
N935   N     0.83335   0.16668   0.95069   0.00000  Uiso   1.00
N936   N     0.83332   0.16666   0.71597   0.00000  Uiso   1.00
C937   C     0.68030   0.15699   0.81853   0.00000  Uiso   1.00
C938   C     0.98637   0.17634   0.84814   0.00000  Uiso   1.00
C939   C     0.83233   0.02127   0.79118   0.00000  Uiso   1.00
C940   C     0.83433   0.31206   0.87549   0.00000  Uiso   1.00
H941   H     0.83191   0.03716   0.75819   0.00000  Uiso   1.00
H942   H     0.83475   0.29617   0.90847   0.00000  Uiso   1.00
C943   C     0.83124   0.31204   0.79108   0.00000  Uiso   1.00
C944   C     0.83543   0.02129   0.87559   0.00000  Uiso   1.00
H945   H     0.82908   0.29613   0.75796   0.00000  Uiso   1.00
H946   H     0.83758   0.03720   0.90871   0.00000  Uiso   1.00
C947   C     0.83270   0.29053   0.83327   0.00000  Uiso   1.00
C948   C     0.83397   0.04280   0.83340   0.00000  Uiso   1.00
C949   C     0.79640   0.14484   0.68701   0.00000  Uiso   1.00
C950   C     0.87027   0.18850   0.97966   0.00000  Uiso   1.00
C951   C     0.79661   0.14463   0.97102   0.00000  Uiso   1.00
C952   C     0.87006   0.18870   0.69564   0.00000  Uiso   1.00
Br953  Br    0.98757   0.10850   0.78350   0.00000  Uiso   1.00
Br954  Br    0.67910   0.22484   0.88317   0.00000  Uiso   1.00
N955   N     0.75584   0.12277   0.70586   0.00000  Uiso   1.00
O956   O     0.70950   0.13685   0.69863   0.00000  Uiso   1.00
O957   O     0.76162   0.08433   0.71710   0.00000  Uiso   1.00
N958   N     0.91083   0.21056   0.96081   0.00000  Uiso   1.00
O959   O     0.95717   0.19649   0.96804   0.00000  Uiso   1.00
O960   O     0.90505   0.24900   0.94956   0.00000  Uiso   1.00
N961   N     0.75850   0.12003   0.94285   0.00000  Uiso   1.00
O962   O     0.71146   0.13261   0.93534   0.00000  Uiso   1.00
O963   O     0.76654   0.08116   0.93745   0.00000  Uiso   1.00
N964   N     0.90816   0.21331   0.72382   0.00000  Uiso   1.00
O965   O     0.95520   0.20073   0.73134   0.00000  Uiso   1.00
O966   O     0.90013   0.25218   0.72920   0.00000  Uiso   1.00
O967   O     0.16666   0.43989   0.87291   0.00000  Uiso   1.00
O968   O     0.16667   0.56011   0.79375   0.00000  Uiso   1.00
O969   O     0.16666   0.43988   0.79372   0.00000  Uiso   1.00
O970   O     0.16667   0.56012   0.87294   0.00000  Uiso   1.00
C971   C     0.16699   0.42080   0.83337   0.00000  Uiso   1.00
C972   C     0.16634   0.57920   0.83330   0.00000  Uiso   1.00
O973   O     0.09161   0.50000   0.86379   0.00000  Uiso   1.00
O974   O     0.24172   0.50000   0.80288   0.00000  Uiso   1.00
O975   O     0.09161   0.49999   0.78460   0.00000  Uiso   1.00
O976   O     0.24172   0.50001   0.88207   0.00000  Uiso   1.00
C977   C     0.06817   0.49840   0.82187   0.00000  Uiso   1.00
C978   C     0.26516   0.50160   0.84480   0.00000  Uiso   1.00
Cu979  Cu    0.16667   0.50001   0.88022   0.00000  Uiso   1.00
Cu980  Cu    0.16667   0.49999   0.78645   0.00000  Uiso   1.00
N981   N     0.16668   0.50001   0.95069   0.00000  Uiso   1.00
N982   N     0.16665   0.49999   0.71597   0.00000  Uiso   1.00
C983   C     0.01363   0.49033   0.81853   0.00000  Uiso   1.00
C984   C     0.31970   0.50967   0.84814   0.00000  Uiso   1.00
C985   C     0.16567   0.35461   0.79118   0.00000  Uiso   1.00
C986   C     0.16767   0.64539   0.87549   0.00000  Uiso   1.00
H987   H     0.16525   0.37050   0.75819   0.00000  Uiso   1.00
H988   H     0.16809   0.62950   0.90847   0.00000  Uiso   1.00
C989   C     0.16457   0.64537   0.79108   0.00000  Uiso   1.00
C990   C     0.16877   0.35463   0.87559   0.00000  Uiso   1.00
H991   H     0.16242   0.62946   0.75796   0.00000  Uiso   1.00
H992   H     0.17092   0.37054   0.90871   0.00000  Uiso   1.00
C993   C     0.16603   0.62387   0.83327   0.00000  Uiso   1.00
C994   C     0.16731   0.37613   0.83340   0.00000  Uiso   1.00
C995   C     0.12973   0.47817   0.68701   0.00000  Uiso   1.00
C996   C     0.20360   0.52183   0.97966   0.00000  Uiso   1.00
C997   C     0.12994   0.47797   0.97102   0.00000  Uiso   1.00
C998   C     0.20339   0.52203   0.69564   0.00000  Uiso   1.00
Br999  Br    0.32090   0.44183   0.78350   0.00000  Uiso   1.00
Br1000 Br    0.01243   0.55817   0.88317   0.00000  Uiso   1.00
N1001  N     0.08917   0.45611   0.70586   0.00000  Uiso   1.00
O1002  O     0.04283   0.47018   0.69863   0.00000  Uiso   1.00
O1003  O     0.09495   0.41766   0.71710   0.00000  Uiso   1.00
N1004  N     0.24417   0.54389   0.96081   0.00000  Uiso   1.00
O1005  O     0.29050   0.52982   0.96804   0.00000  Uiso   1.00
O1006  O     0.23838   0.58233   0.94956   0.00000  Uiso   1.00
N1007  N     0.09183   0.45336   0.94285   0.00000  Uiso   1.00
O1008  O     0.04479   0.46594   0.93534   0.00000  Uiso   1.00
O1009  O     0.09987   0.41450   0.93745   0.00000  Uiso   1.00
N1010  N     0.24150   0.54665   0.72382   0.00000  Uiso   1.00
O1011  O     0.28853   0.53406   0.73134   0.00000  Uiso   1.00
O1012  O     0.23346   0.58551   0.72920   0.00000  Uiso   1.00
O1013  O     0.50000   0.43989   0.87291   0.00000  Uiso   1.00
O1014  O     0.50000   0.56011   0.79375   0.00000  Uiso   1.00
O1015  O     0.50000   0.43988   0.79372   0.00000  Uiso   1.00
O1016  O     0.50000   0.56012   0.87294   0.00000  Uiso   1.00
C1017  C     0.50033   0.42080   0.83337   0.00000  Uiso   1.00
C1018  C     0.49967   0.57920   0.83330   0.00000  Uiso   1.00
O1019  O     0.42495   0.50000   0.86379   0.00000  Uiso   1.00
O1020  O     0.57505   0.50000   0.80288   0.00000  Uiso   1.00
O1021  O     0.42494   0.49999   0.78460   0.00000  Uiso   1.00
O1022  O     0.57506   0.50001   0.88207   0.00000  Uiso   1.00
C1023  C     0.40151   0.49840   0.82187   0.00000  Uiso   1.00
C1024  C     0.59849   0.50160   0.84480   0.00000  Uiso   1.00
Cu1025 Cu    0.50000   0.50001   0.88022   0.00000  Uiso   1.00
Cu1026 Cu    0.50000   0.49999   0.78645   0.00000  Uiso   1.00
N1027  N     0.50001   0.50001   0.95069   0.00000  Uiso   1.00
N1028  N     0.49999   0.49999   0.71597   0.00000  Uiso   1.00
C1029  C     0.34697   0.49033   0.81853   0.00000  Uiso   1.00
C1030  C     0.65303   0.50967   0.84814   0.00000  Uiso   1.00
C1031  C     0.49900   0.35461   0.79118   0.00000  Uiso   1.00
C1032  C     0.50100   0.64539   0.87549   0.00000  Uiso   1.00
H1033  H     0.49858   0.37050   0.75819   0.00000  Uiso   1.00
H1034  H     0.50142   0.62950   0.90847   0.00000  Uiso   1.00
C1035  C     0.49790   0.64537   0.79108   0.00000  Uiso   1.00
C1036  C     0.50210   0.35463   0.87559   0.00000  Uiso   1.00
H1037  H     0.49575   0.62946   0.75796   0.00000  Uiso   1.00
H1038  H     0.50425   0.37054   0.90871   0.00000  Uiso   1.00
C1039  C     0.49936   0.62387   0.83327   0.00000  Uiso   1.00
C1040  C     0.50064   0.37613   0.83340   0.00000  Uiso   1.00
C1041  C     0.46306   0.47817   0.68701   0.00000  Uiso   1.00
C1042  C     0.53694   0.52183   0.97966   0.00000  Uiso   1.00
C1043  C     0.46327   0.47797   0.97102   0.00000  Uiso   1.00
C1044  C     0.53673   0.52203   0.69564   0.00000  Uiso   1.00
Br1045 Br    0.65424   0.44183   0.78350   0.00000  Uiso   1.00
Br1046 Br    0.34576   0.55817   0.88317   0.00000  Uiso   1.00
N1047  N     0.42250   0.45611   0.70586   0.00000  Uiso   1.00
O1048  O     0.37617   0.47018   0.69863   0.00000  Uiso   1.00
O1049  O     0.42828   0.41766   0.71710   0.00000  Uiso   1.00
N1050  N     0.57750   0.54389   0.96081   0.00000  Uiso   1.00
O1051  O     0.62384   0.52982   0.96804   0.00000  Uiso   1.00
O1052  O     0.57172   0.58233   0.94956   0.00000  Uiso   1.00
N1053  N     0.42516   0.45336   0.94285   0.00000  Uiso   1.00
O1054  O     0.37813   0.46594   0.93534   0.00000  Uiso   1.00
O1055  O     0.43320   0.41450   0.93745   0.00000  Uiso   1.00
N1056  N     0.57483   0.54665   0.72382   0.00000  Uiso   1.00
O1057  O     0.62187   0.53406   0.73134   0.00000  Uiso   1.00
O1058  O     0.56679   0.58551   0.72920   0.00000  Uiso   1.00
O1059  O     0.83333   0.43989   0.87291   0.00000  Uiso   1.00
O1060  O     0.83334   0.56011   0.79375   0.00000  Uiso   1.00
O1061  O     0.83333   0.43988   0.79372   0.00000  Uiso   1.00
O1062  O     0.83334   0.56012   0.87294   0.00000  Uiso   1.00
C1063  C     0.83366   0.42080   0.83337   0.00000  Uiso   1.00
C1064  C     0.83301   0.57920   0.83330   0.00000  Uiso   1.00
O1065  O     0.75828   0.50000   0.86379   0.00000  Uiso   1.00
O1066  O     0.90839   0.50000   0.80288   0.00000  Uiso   1.00
O1067  O     0.75828   0.49999   0.78460   0.00000  Uiso   1.00
O1068  O     0.90839   0.50001   0.88207   0.00000  Uiso   1.00
C1069  C     0.73484   0.49840   0.82187   0.00000  Uiso   1.00
C1070  C     0.93183   0.50160   0.84480   0.00000  Uiso   1.00
Cu1071 Cu    0.83333   0.50001   0.88022   0.00000  Uiso   1.00
Cu1072 Cu    0.83333   0.49999   0.78645   0.00000  Uiso   1.00
N1073  N     0.83335   0.50001   0.95069   0.00000  Uiso   1.00
N1074  N     0.83332   0.49999   0.71597   0.00000  Uiso   1.00
C1075  C     0.68030   0.49033   0.81853   0.00000  Uiso   1.00
C1076  C     0.98637   0.50967   0.84814   0.00000  Uiso   1.00
C1077  C     0.83233   0.35461   0.79118   0.00000  Uiso   1.00
C1078  C     0.83433   0.64539   0.87549   0.00000  Uiso   1.00
H1079  H     0.83191   0.37050   0.75819   0.00000  Uiso   1.00
H1080  H     0.83475   0.62950   0.90847   0.00000  Uiso   1.00
C1081  C     0.83124   0.64537   0.79108   0.00000  Uiso   1.00
C1082  C     0.83543   0.35463   0.87559   0.00000  Uiso   1.00
H1083  H     0.82908   0.62946   0.75796   0.00000  Uiso   1.00
H1084  H     0.83758   0.37054   0.90871   0.00000  Uiso   1.00
C1085  C     0.83270   0.62387   0.83327   0.00000  Uiso   1.00
C1086  C     0.83397   0.37613   0.83340   0.00000  Uiso   1.00
C1087  C     0.79640   0.47817   0.68701   0.00000  Uiso   1.00
C1088  C     0.87027   0.52183   0.97966   0.00000  Uiso   1.00
C1089  C     0.79661   0.47797   0.97102   0.00000  Uiso   1.00
C1090  C     0.87006   0.52203   0.69564   0.00000  Uiso   1.00
Br1091 Br    0.98757   0.44183   0.78350   0.00000  Uiso   1.00
Br1092 Br    0.67910   0.55817   0.88317   0.00000  Uiso   1.00
N1093  N     0.75584   0.45611   0.70586   0.00000  Uiso   1.00
O1094  O     0.70950   0.47018   0.69863   0.00000  Uiso   1.00
O1095  O     0.76162   0.41766   0.71710   0.00000  Uiso   1.00
N1096  N     0.91083   0.54389   0.96081   0.00000  Uiso   1.00
O1097  O     0.95717   0.52982   0.96804   0.00000  Uiso   1.00
O1098  O     0.90505   0.58233   0.94956   0.00000  Uiso   1.00
N1099  N     0.75850   0.45336   0.94285   0.00000  Uiso   1.00
O1100  O     0.71146   0.46594   0.93534   0.00000  Uiso   1.00
O1101  O     0.76654   0.41450   0.93745   0.00000  Uiso   1.00
N1102  N     0.90816   0.54665   0.72382   0.00000  Uiso   1.00
O1103  O     0.95520   0.53406   0.73134   0.00000  Uiso   1.00
O1104  O     0.90013   0.58551   0.72920   0.00000  Uiso   1.00
O1105  O     0.16666   0.77322   0.87291   0.00000  Uiso   1.00
O1106  O     0.16667   0.89345   0.79375   0.00000  Uiso   1.00
O1107  O     0.16666   0.77321   0.79372   0.00000  Uiso   1.00
O1108  O     0.16667   0.89346   0.87294   0.00000  Uiso   1.00
C1109  C     0.16699   0.75413   0.83337   0.00000  Uiso   1.00
C1110  C     0.16634   0.91253   0.83330   0.00000  Uiso   1.00
O1111  O     0.09161   0.83334   0.86379   0.00000  Uiso   1.00
O1112  O     0.24172   0.83333   0.80288   0.00000  Uiso   1.00
O1113  O     0.09161   0.83333   0.78460   0.00000  Uiso   1.00
O1114  O     0.24172   0.83334   0.88207   0.00000  Uiso   1.00
C1115  C     0.06817   0.83173   0.82187   0.00000  Uiso   1.00
C1116  C     0.26516   0.83494   0.84480   0.00000  Uiso   1.00
Cu1117 Cu    0.16667   0.83334   0.88022   0.00000  Uiso   1.00
Cu1118 Cu    0.16667   0.83333   0.78645   0.00000  Uiso   1.00
N1119  N     0.16668   0.83334   0.95069   0.00000  Uiso   1.00
N1120  N     0.16665   0.83332   0.71597   0.00000  Uiso   1.00
C1121  C     0.01363   0.82366   0.81853   0.00000  Uiso   1.00
C1122  C     0.31970   0.84301   0.84814   0.00000  Uiso   1.00
C1123  C     0.16567   0.68794   0.79118   0.00000  Uiso   1.00
C1124  C     0.16767   0.97873   0.87549   0.00000  Uiso   1.00
H1125  H     0.16525   0.70383   0.75819   0.00000  Uiso   1.00
H1126  H     0.16809   0.96284   0.90847   0.00000  Uiso   1.00
C1127  C     0.16457   0.97871   0.79108   0.00000  Uiso   1.00
C1128  C     0.16877   0.68796   0.87559   0.00000  Uiso   1.00
H1129  H     0.16242   0.96280   0.75796   0.00000  Uiso   1.00
H1130  H     0.17092   0.70387   0.90871   0.00000  Uiso   1.00
C1131  C     0.16603   0.95720   0.83327   0.00000  Uiso   1.00
C1132  C     0.16731   0.70947   0.83340   0.00000  Uiso   1.00
C1133  C     0.12973   0.81150   0.68701   0.00000  Uiso   1.00
C1134  C     0.20360   0.85516   0.97966   0.00000  Uiso   1.00
C1135  C     0.12994   0.81130   0.97102   0.00000  Uiso   1.00
C1136  C     0.20339   0.85537   0.69564   0.00000  Uiso   1.00
Br1137 Br    0.32090   0.77516   0.78350   0.00000  Uiso   1.00
Br1138 Br    0.01243   0.89150   0.88317   0.00000  Uiso   1.00
N1139  N     0.08917   0.78944   0.70586   0.00000  Uiso   1.00
O1140  O     0.04283   0.80351   0.69863   0.00000  Uiso   1.00
O1141  O     0.09495   0.75100   0.71710   0.00000  Uiso   1.00
N1142  N     0.24417   0.87722   0.96081   0.00000  Uiso   1.00
O1143  O     0.29050   0.86316   0.96804   0.00000  Uiso   1.00
O1144  O     0.23838   0.91567   0.94956   0.00000  Uiso   1.00
N1145  N     0.09183   0.78669   0.94285   0.00000  Uiso   1.00
O1146  O     0.04479   0.79927   0.93534   0.00000  Uiso   1.00
O1147  O     0.09987   0.74783   0.93745   0.00000  Uiso   1.00
N1148  N     0.24150   0.87998   0.72382   0.00000  Uiso   1.00
O1149  O     0.28853   0.86740   0.73134   0.00000  Uiso   1.00
O1150  O     0.23346   0.91885   0.72920   0.00000  Uiso   1.00
O1151  O     0.50000   0.77322   0.87291   0.00000  Uiso   1.00
O1152  O     0.50000   0.89345   0.79375   0.00000  Uiso   1.00
O1153  O     0.50000   0.77321   0.79372   0.00000  Uiso   1.00
O1154  O     0.50000   0.89346   0.87294   0.00000  Uiso   1.00
C1155  C     0.50033   0.75413   0.83337   0.00000  Uiso   1.00
C1156  C     0.49967   0.91253   0.83330   0.00000  Uiso   1.00
O1157  O     0.42495   0.83334   0.86379   0.00000  Uiso   1.00
O1158  O     0.57505   0.83333   0.80288   0.00000  Uiso   1.00
O1159  O     0.42494   0.83333   0.78460   0.00000  Uiso   1.00
O1160  O     0.57506   0.83334   0.88207   0.00000  Uiso   1.00
C1161  C     0.40151   0.83173   0.82187   0.00000  Uiso   1.00
C1162  C     0.59849   0.83494   0.84480   0.00000  Uiso   1.00
Cu1163 Cu    0.50000   0.83334   0.88022   0.00000  Uiso   1.00
Cu1164 Cu    0.50000   0.83333   0.78645   0.00000  Uiso   1.00
N1165  N     0.50001   0.83334   0.95069   0.00000  Uiso   1.00
N1166  N     0.49999   0.83332   0.71597   0.00000  Uiso   1.00
C1167  C     0.34697   0.82366   0.81853   0.00000  Uiso   1.00
C1168  C     0.65303   0.84301   0.84814   0.00000  Uiso   1.00
C1169  C     0.49900   0.68794   0.79118   0.00000  Uiso   1.00
C1170  C     0.50100   0.97873   0.87549   0.00000  Uiso   1.00
H1171  H     0.49858   0.70383   0.75819   0.00000  Uiso   1.00
H1172  H     0.50142   0.96284   0.90847   0.00000  Uiso   1.00
C1173  C     0.49790   0.97871   0.79108   0.00000  Uiso   1.00
C1174  C     0.50210   0.68796   0.87559   0.00000  Uiso   1.00
H1175  H     0.49575   0.96280   0.75796   0.00000  Uiso   1.00
H1176  H     0.50425   0.70387   0.90871   0.00000  Uiso   1.00
C1177  C     0.49936   0.95720   0.83327   0.00000  Uiso   1.00
C1178  C     0.50064   0.70947   0.83340   0.00000  Uiso   1.00
C1179  C     0.46306   0.81150   0.68701   0.00000  Uiso   1.00
C1180  C     0.53694   0.85516   0.97966   0.00000  Uiso   1.00
C1181  C     0.46327   0.81130   0.97102   0.00000  Uiso   1.00
C1182  C     0.53673   0.85537   0.69564   0.00000  Uiso   1.00
Br1183 Br    0.65424   0.77516   0.78350   0.00000  Uiso   1.00
Br1184 Br    0.34576   0.89150   0.88317   0.00000  Uiso   1.00
N1185  N     0.42250   0.78944   0.70586   0.00000  Uiso   1.00
O1186  O     0.37617   0.80351   0.69863   0.00000  Uiso   1.00
O1187  O     0.42828   0.75100   0.71710   0.00000  Uiso   1.00
N1188  N     0.57750   0.87722   0.96081   0.00000  Uiso   1.00
O1189  O     0.62384   0.86316   0.96804   0.00000  Uiso   1.00
O1190  O     0.57172   0.91567   0.94956   0.00000  Uiso   1.00
N1191  N     0.42516   0.78669   0.94285   0.00000  Uiso   1.00
O1192  O     0.37813   0.79927   0.93534   0.00000  Uiso   1.00
O1193  O     0.43320   0.74783   0.93745   0.00000  Uiso   1.00
N1194  N     0.57483   0.87998   0.72382   0.00000  Uiso   1.00
O1195  O     0.62187   0.86740   0.73134   0.00000  Uiso   1.00
O1196  O     0.56679   0.91885   0.72920   0.00000  Uiso   1.00
O1197  O     0.83333   0.77322   0.87291   0.00000  Uiso   1.00
O1198  O     0.83334   0.89345   0.79375   0.00000  Uiso   1.00
O1199  O     0.83333   0.77321   0.79372   0.00000  Uiso   1.00
O1200  O     0.83334   0.89346   0.87294   0.00000  Uiso   1.00
C1201  C     0.83366   0.75413   0.83337   0.00000  Uiso   1.00
C1202  C     0.83301   0.91253   0.83330   0.00000  Uiso   1.00
O1203  O     0.75828   0.83334   0.86379   0.00000  Uiso   1.00
O1204  O     0.90839   0.83333   0.80288   0.00000  Uiso   1.00
O1205  O     0.75828   0.83333   0.78460   0.00000  Uiso   1.00
O1206  O     0.90839   0.83334   0.88207   0.00000  Uiso   1.00
C1207  C     0.73484   0.83173   0.82187   0.00000  Uiso   1.00
C1208  C     0.93183   0.83494   0.84480   0.00000  Uiso   1.00
Cu1209 Cu    0.83333   0.83334   0.88022   0.00000  Uiso   1.00
Cu1210 Cu    0.83333   0.83333   0.78645   0.00000  Uiso   1.00
N1211  N     0.83335   0.83334   0.95069   0.00000  Uiso   1.00
N1212  N     0.83332   0.83332   0.71597   0.00000  Uiso   1.00
C1213  C     0.68030   0.82366   0.81853   0.00000  Uiso   1.00
C1214  C     0.98637   0.84301   0.84814   0.00000  Uiso   1.00
C1215  C     0.83233   0.68794   0.79118   0.00000  Uiso   1.00
C1216  C     0.83433   0.97873   0.87549   0.00000  Uiso   1.00
H1217  H     0.83191   0.70383   0.75819   0.00000  Uiso   1.00
H1218  H     0.83475   0.96284   0.90847   0.00000  Uiso   1.00
C1219  C     0.83124   0.97871   0.79108   0.00000  Uiso   1.00
C1220  C     0.83543   0.68796   0.87559   0.00000  Uiso   1.00
H1221  H     0.82908   0.96280   0.75796   0.00000  Uiso   1.00
H1222  H     0.83758   0.70387   0.90871   0.00000  Uiso   1.00
C1223  C     0.83270   0.95720   0.83327   0.00000  Uiso   1.00
C1224  C     0.83397   0.70947   0.83340   0.00000  Uiso   1.00
C1225  C     0.79640   0.81150   0.68701   0.00000  Uiso   1.00
C1226  C     0.87027   0.85516   0.97966   0.00000  Uiso   1.00
C1227  C     0.79661   0.81130   0.97102   0.00000  Uiso   1.00
C1228  C     0.87006   0.85537   0.69564   0.00000  Uiso   1.00
Br1229 Br    0.98757   0.77516   0.78350   0.00000  Uiso   1.00
Br1230 Br    0.67910   0.89150   0.88317   0.00000  Uiso   1.00
N1231  N     0.75584   0.78944   0.70586   0.00000  Uiso   1.00
O1232  O     0.70950   0.80351   0.69863   0.00000  Uiso   1.00
O1233  O     0.76162   0.75100   0.71710   0.00000  Uiso   1.00
N1234  N     0.91083   0.87722   0.96081   0.00000  Uiso   1.00
O1235  O     0.95717   0.86316   0.96804   0.00000  Uiso   1.00
O1236  O     0.90505   0.91567   0.94956   0.00000  Uiso   1.00
N1237  N     0.75850   0.78669   0.94285   0.00000  Uiso   1.00
O1238  O     0.71146   0.79927   0.93534   0.00000  Uiso   1.00
O1239  O     0.76654   0.74783   0.93745   0.00000  Uiso   1.00
N1240  N     0.90816   0.87998   0.72382   0.00000  Uiso   1.00
O1241  O     0.95520   0.86740   0.73134   0.00000  Uiso   1.00
O1242  O     0.90013   0.91885   0.72920   0.00000  Uiso   1.00
loop_
_geom_bond_atom_site_label_1
_geom_bond_atom_site_label_2
_geom_bond_distance
_geom_bond_site_symmetry_2
_ccdc_geom_bond_type
O1     C5      1.301   .     A
O1     Cu13    1.966   .     S
O2     C6      1.301   .     A
O2     Cu14    1.966   .     S
O3     C5      1.300   .     A
O3     Cu14    1.965   .     S
O4     C6      1.300   .     A
O4     Cu13    1.965   .     S
C5     C28     1.452   .     S
C6     C27     1.452   .     S
O7     C11     1.286   .     A
O7     Cu13    1.961   .     S
O8     C12     1.286   .     A
O8     Cu14    1.961   .     S
O9     Cu14    1.957   .     S
O9     C11     1.304   .     A
O10    C12     1.304   .     A
O10    Cu13    1.957   .     S
C11    C17     1.434   .     S
C12    C18     1.434   .     S
Cu13   N15     2.034   .     S
Cu13   Cu14    2.706   .     S
Cu14   N16     2.034   .     S
N15    C31     1.371   .     A
N15    C30     1.375   .     A
N16    C32     1.371   .     A
N16    C29     1.375   .     A
C17    C110    1.348   1_455 S
C17    Br125   1.933   1_455 S
C18    C63     1.348   .     S
C18    Br80    1.933   .     S
C19    C28     1.401   .     A
C19    H21     1.082   .     S
C19    C299    1.383   1_545 S
C20    C27     1.401   .     A
C20    H22     1.082   .     S
C20    C162    1.383   .     S
C23    C27     1.401   .     A
C23    H25     1.082   .     S
C23    C157    1.383   .     S
C24    H26     1.082   .     S
C24    C28     1.401   .     A
C24    C296    1.383   1_545 S
C29    N35     1.426   .     S
C29    C859    1.424   1_554 S
C30    N38     1.426   .     S
C30    C446    1.424   .     S
C31    N41     1.429   .     S
C31    C443    1.424   .     S
C32    N44     1.429   .     S
C32    C858    1.424   1_554 S
Br33   C63     1.933   .     S
Br34   C110    1.933   1_455 S
N35    O36     1.301   .     A
N35    O37     1.299   .     A
N38    O40     1.299   .     A
N38    O39     1.301   .     A
N41    O42     1.300   .     A
N41    O43     1.300   .     A
N44    O45     1.300   .     A
N44    O46     1.300   .     A
O47    C51     1.301   .     A
O47    Cu59    1.966   .     S
O48    C52     1.301   .     A
O48    Cu60    1.966   .     S
O49    C51     1.300   .     A
O49    Cu60    1.965   .     S
O50    C52     1.300   .     A
O50    Cu59    1.965   .     S
C51    C74     1.452   .     S
C52    C73     1.452   .     S
O53    C57     1.286   .     A
O53    Cu59    1.961   .     S
O54    C58     1.286   .     A
O54    Cu60    1.961   .     S
O55    Cu60    1.957   .     S
O55    C57     1.304   .     A
O56    C58     1.304   .     A
O56    Cu59    1.957   .     S
C57    C63     1.434   .     S
C58    C64     1.434   .     S
Cu59   N61     2.034   .     S
Cu59   Cu60    2.706   .     S
Cu60   N62     2.034   .     S
N61    C77     1.371   .     A
N61    C76     1.375   .     A
N62    C78     1.371   .     A
N62    C75     1.375   .     A
C64    C109    1.348   .     S
C64    Br126   1.933   .     S
C65    C74     1.401   .     A
C65    H67     1.082   .     S
C65    C345    1.383   1_545 S
C66    C73     1.401   .     A
C66    H68     1.082   .     S
C66    C208    1.383   .     S
C69    C73     1.401   .     A
C69    H71     1.082   .     S
C69    C203    1.383   .     S
C70    H72     1.082   .     S
C70    C74     1.401   .     A
C70    C342    1.383   1_545 S
C75    N81     1.426   .     S
C75    C905    1.424   1_554 S
C76    N84     1.426   .     S
C76    C492    1.424   .     S
C77    N87     1.429   .     S
C77    C489    1.424   .     S
C78    N90     1.429   .     S
C78    C904    1.424   1_554 S
Br79   C109    1.933   .     S
N81    O82     1.301   .     A
N81    O83     1.299   .     A
N84    O86     1.299   .     A
N84    O85     1.301   .     A
N87    O88     1.300   .     A
N87    O89     1.300   .     A
N90    O91     1.300   .     A
N90    O92     1.300   .     A
O93    C97     1.301   .     A
O93    Cu105   1.966   .     S
O94    C98     1.301   .     A
O94    Cu106   1.966   .     S
O95    C97     1.300   .     A
O95    Cu106   1.965   .     S
O96    C98     1.300   .     A
O96    Cu105   1.965   .     S
C97    C120    1.452   .     S
C98    C119    1.452   .     S
O99    C103    1.286   .     A
O99    Cu105   1.961   .     S
O100   C104    1.286   .     A
O100   Cu106   1.961   .     S
O101   Cu106   1.957   .     S
O101   C103    1.304   .     A
O102   C104    1.304   .     A
O102   Cu105   1.957   .     S
C103   C109    1.434   .     S
C104   C110    1.434   .     S
Cu105  N107    2.034   .     S
Cu105  Cu106   2.706   .     S
Cu106  N108    2.034   .     S
N107   C123    1.371   .     A
N107   C122    1.375   .     A
N108   C124    1.371   .     A
N108   C121    1.375   .     A
C110   C17     1.348   1_655 S
C110   Br34    1.933   1_655 S
C111   C120    1.401   .     A
C111   H113    1.082   .     S
C111   C391    1.383   1_545 S
C112   C119    1.401   .     A
C112   H114    1.082   .     S
C112   C254    1.383   .     S
C115   C119    1.401   .     A
C115   H117    1.082   .     S
C115   C249    1.383   .     S
C116   H118    1.082   .     S
C116   C120    1.401   .     A
C116   C388    1.383   1_545 S
C121   N127    1.426   .     S
C121   C951    1.424   1_554 S
C122   N130    1.426   .     S
C122   C538    1.424   .     S
C123   N133    1.429   .     S
C123   C535    1.424   .     S
C124   N136    1.429   .     S
C124   C950    1.424   1_554 S
Br125  C17     1.933   1_655 S
N127   O128    1.301   .     A
N127   O129    1.299   .     A
N130   O132    1.299   .     A
N130   O131    1.301   .     A
N133   O134    1.300   .     A
N133   O135    1.300   .     A
N136   O137    1.300   .     A
N136   O138    1.300   .     A
O139   C143    1.301   .     A
O139   Cu151   1.966   .     S
O140   C144    1.301   .     A
O140   Cu152   1.966   .     S
O141   C143    1.300   .     A
O141   Cu152   1.965   .     S
O142   C144    1.300   .     A
O142   Cu151   1.965   .     S
C143   C166    1.452   .     S
C144   C165    1.452   .     S
O145   C149    1.286   .     A
O145   Cu151   1.961   .     S
O146   C150    1.286   .     A
O146   Cu152   1.961   .     S
O147   Cu152   1.957   .     S
O147   C149    1.304   .     A
O148   C150    1.304   .     A
O148   Cu151   1.957   .     S
C149   C155    1.434   .     S
C150   C156    1.434   .     S
Cu151  N153    2.034   .     S
Cu151  Cu152   2.706   .     S
Cu152  N154    2.034   .     S
N153   C169    1.371   .     A
N153   C168    1.375   .     A
N154   C170    1.371   .     A
N154   C167    1.375   .     A
C155   C248    1.348   1_455 S
C155   Br263   1.933   1_455 S
C156   C201    1.348   .     S
C156   Br218   1.933   .     S
C157   C166    1.401   .     A
C157   H159    1.082   .     S
C158   C165    1.401   .     A
C158   H160    1.082   .     S
C158   C300    1.383   .     S
C161   C165    1.401   .     A
C161   H163    1.082   .     S
C161   C295    1.383   .     S
C162   H164    1.082   .     S
C162   C166    1.401   .     A
C167   N173    1.426   .     S
C167   C997    1.424   1_554 S
C168   N176    1.426   .     S
C168   C584    1.424   .     S
C169   N179    1.429   .     S
C169   C581    1.424   .     S
C170   N182    1.429   .     S
C170   C996    1.424   1_554 S
Br171  C201    1.933   .     S
Br172  C248    1.933   1_455 S
N173   O174    1.301   .     A
N173   O175    1.299   .     A
N176   O178    1.299   .     A
N176   O177    1.301   .     A
N179   O180    1.300   .     A
N179   O181    1.300   .     A
N182   O183    1.300   .     A
N182   O184    1.300   .     A
O185   C189    1.301   .     A
O185   Cu197   1.966   .     S
O186   C190    1.301   .     A
O186   Cu198   1.966   .     S
O187   C189    1.300   .     A
O187   Cu198   1.965   .     S
O188   C190    1.300   .     A
O188   Cu197   1.965   .     S
C189   C212    1.452   .     S
C190   C211    1.452   .     S
O191   C195    1.286   .     A
O191   Cu197   1.961   .     S
O192   C196    1.286   .     A
O192   Cu198   1.961   .     S
O193   Cu198   1.957   .     S
O193   C195    1.304   .     A
O194   C196    1.304   .     A
O194   Cu197   1.957   .     S
C195   C201    1.434   .     S
C196   C202    1.434   .     S
Cu197  N199    2.034   .     S
Cu197  Cu198   2.706   .     S
Cu198  N200    2.034   .     S
N199   C215    1.371   .     A
N199   C214    1.375   .     A
N200   C216    1.371   .     A
N200   C213    1.375   .     A
C202   C247    1.348   .     S
C202   Br264   1.933   .     S
C203   C212    1.401   .     A
C203   H205    1.082   .     S
C204   C211    1.401   .     A
C204   H206    1.082   .     S
C204   C346    1.383   .     S
C207   C211    1.401   .     A
C207   H209    1.082   .     S
C207   C341    1.383   .     S
C208   H210    1.082   .     S
C208   C212    1.401   .     A
C213   N219    1.426   .     S
C213   C1043   1.424   1_554 S
C214   N222    1.426   .     S
C214   C630    1.424   .     S
C215   N225    1.429   .     S
C215   C627    1.424   .     S
C216   N228    1.429   .     S
C216   C1042   1.424   1_554 S
Br217  C247    1.933   .     S
N219   O220    1.301   .     A
N219   O221    1.299   .     A
N222   O224    1.299   .     A
N222   O223    1.301   .     A
N225   O226    1.300   .     A
N225   O227    1.300   .     A
N228   O229    1.300   .     A
N228   O230    1.300   .     A
O231   C235    1.301   .     A
O231   Cu243   1.966   .     S
O232   C236    1.301   .     A
O232   Cu244   1.966   .     S
O233   C235    1.300   .     A
O233   Cu244   1.965   .     S
O234   C236    1.300   .     A
O234   Cu243   1.965   .     S
C235   C258    1.452   .     S
C236   C257    1.452   .     S
O237   C241    1.286   .     A
O237   Cu243   1.961   .     S
O238   C242    1.286   .     A
O238   Cu244   1.961   .     S
O239   Cu244   1.957   .     S
O239   C241    1.304   .     A
O240   C242    1.304   .     A
O240   Cu243   1.957   .     S
C241   C247    1.434   .     S
C242   C248    1.434   .     S
Cu243  N245    2.034   .     S
Cu243  Cu244   2.706   .     S
Cu244  N246    2.034   .     S
N245   C261    1.371   .     A
N245   C260    1.375   .     A
N246   C262    1.371   .     A
N246   C259    1.375   .     A
C248   C155    1.348   1_655 S
C248   Br172   1.933   1_655 S
C249   C258    1.401   .     A
C249   H251    1.082   .     S
C250   C257    1.401   .     A
C250   H252    1.082   .     S
C250   C392    1.383   .     S
C253   C257    1.401   .     A
C253   H255    1.082   .     S
C253   C387    1.383   .     S
C254   H256    1.082   .     S
C254   C258    1.401   .     A
C259   N265    1.426   .     S
C259   C1089   1.424   1_554 S
C260   N268    1.426   .     S
C260   C676    1.424   .     S
C261   N271    1.429   .     S
C261   C673    1.424   .     S
C262   N274    1.429   .     S
C262   C1088   1.424   1_554 S
Br263  C155    1.933   1_655 S
N265   O266    1.301   .     A
N265   O267    1.299   .     A
N268   O270    1.299   .     A
N268   O269    1.301   .     A
N271   O272    1.300   .     A
N271   O273    1.300   .     A
N274   O275    1.300   .     A
N274   O276    1.300   .     A
O277   C281    1.301   .     A
O277   Cu289   1.966   .     S
O278   C282    1.301   .     A
O278   Cu290   1.966   .     S
O279   C281    1.300   .     A
O279   Cu290   1.965   .     S
O280   C282    1.300   .     A
O280   Cu289   1.965   .     S
C281   C304    1.452   .     S
C282   C303    1.452   .     S
O283   C287    1.286   .     A
O283   Cu289   1.961   .     S
O284   C288    1.286   .     A
O284   Cu290   1.961   .     S
O285   Cu290   1.957   .     S
O285   C287    1.304   .     A
O286   C288    1.304   .     A
O286   Cu289   1.957   .     S
C287   C293    1.434   .     S
C288   C294    1.434   .     S
Cu289  N291    2.034   .     S
Cu289  Cu290   2.706   .     S
Cu290  N292    2.034   .     S
N291   C307    1.371   .     A
N291   C306    1.375   .     A
N292   C308    1.371   .     A
N292   C305    1.375   .     A
C293   C386    1.348   1_455 S
C293   Br401   1.933   1_455 S
C294   C339    1.348   .     S
C294   Br356   1.933   .     S
C295   C304    1.401   .     A
C295   H297    1.082   .     S
C296   C303    1.401   .     A
C296   H298    1.082   .     S
C296   C24     1.383   1_565 S
C299   C303    1.401   .     A
C299   H301    1.082   .     S
C299   C19     1.383   1_565 S
C300   H302    1.082   .     S
C300   C304    1.401   .     A
C305   N311    1.426   .     S
C305   C1135   1.424   1_554 S
C306   N314    1.426   .     S
C306   C722    1.424   .     S
C307   N317    1.429   .     S
C307   C719    1.424   .     S
C308   N320    1.429   .     S
C308   C1134   1.424   1_554 S
Br309  C339    1.933   .     S
Br310  C386    1.933   1_455 S
N311   O312    1.301   .     A
N311   O313    1.299   .     A
N314   O316    1.299   .     A
N314   O315    1.301   .     A
N317   O318    1.300   .     A
N317   O319    1.300   .     A
N320   O321    1.300   .     A
N320   O322    1.300   .     A
O323   C327    1.301   .     A
O323   Cu335   1.966   .     S
O324   C328    1.301   .     A
O324   Cu336   1.966   .     S
O325   C327    1.300   .     A
O325   Cu336   1.965   .     S
O326   C328    1.300   .     A
O326   Cu335   1.965   .     S
C327   C350    1.452   .     S
C328   C349    1.452   .     S
O329   C333    1.286   .     A
O329   Cu335   1.961   .     S
O330   C334    1.286   .     A
O330   Cu336   1.961   .     S
O331   Cu336   1.957   .     S
O331   C333    1.304   .     A
O332   C334    1.304   .     A
O332   Cu335   1.957   .     S
C333   C339    1.434   .     S
C334   C340    1.434   .     S
Cu335  N337    2.034   .     S
Cu335  Cu336   2.706   .     S
Cu336  N338    2.034   .     S
N337   C353    1.371   .     A
N337   C352    1.375   .     A
N338   C354    1.371   .     A
N338   C351    1.375   .     A
C340   C385    1.348   .     S
C340   Br402   1.933   .     S
C341   C350    1.401   .     A
C341   H343    1.082   .     S
C342   C349    1.401   .     A
C342   H344    1.082   .     S
C342   C70     1.383   1_565 S
C345   C349    1.401   .     A
C345   H347    1.082   .     S
C345   C65     1.383   1_565 S
C346   H348    1.082   .     S
C346   C350    1.401   .     A
C351   N357    1.426   .     S
C351   C1181   1.424   1_554 S
C352   N360    1.426   .     S
C352   C768    1.424   .     S
C353   N363    1.429   .     S
C353   C765    1.424   .     S
C354   N366    1.429   .     S
C354   C1180   1.424   1_554 S
Br355  C385    1.933   .     S
N357   O358    1.301   .     A
N357   O359    1.299   .     A
N360   O362    1.299   .     A
N360   O361    1.301   .     A
N363   O364    1.300   .     A
N363   O365    1.300   .     A
N366   O367    1.300   .     A
N366   O368    1.300   .     A
O369   C373    1.301   .     A
O369   Cu381   1.966   .     S
O370   C374    1.301   .     A
O370   Cu382   1.966   .     S
O371   C373    1.300   .     A
O371   Cu382   1.965   .     S
O372   C374    1.300   .     A
O372   Cu381   1.965   .     S
C373   C396    1.452   .     S
C374   C395    1.452   .     S
O375   C379    1.286   .     A
O375   Cu381   1.961   .     S
O376   C380    1.286   .     A
O376   Cu382   1.961   .     S
O377   Cu382   1.957   .     S
O377   C379    1.304   .     A
O378   C380    1.304   .     A
O378   Cu381   1.957   .     S
C379   C385    1.434   .     S
C380   C386    1.434   .     S
Cu381  N383    2.034   .     S
Cu381  Cu382   2.706   .     S
Cu382  N384    2.034   .     S
N383   C399    1.371   .     A
N383   C398    1.375   .     A
N384   C400    1.371   .     A
N384   C397    1.375   .     A
C386   C293    1.348   1_655 S
C386   Br310   1.933   1_655 S
C387   C396    1.401   .     A
C387   H389    1.082   .     S
C388   C395    1.401   .     A
C388   H390    1.082   .     S
C388   C116    1.383   1_565 S
C391   C395    1.401   .     A
C391   H393    1.082   .     S
C391   C111    1.383   1_565 S
C392   H394    1.082   .     S
C392   C396    1.401   .     A
C397   N403    1.426   .     S
C397   C1227   1.424   1_554 S
C398   N406    1.426   .     S
C398   C814    1.424   .     S
C399   N409    1.429   .     S
C399   C811    1.424   .     S
C400   N412    1.429   .     S
C400   C1226   1.424   1_554 S
Br401  C293    1.933   1_655 S
N403   O404    1.301   .     A
N403   O405    1.299   .     A
N406   O408    1.299   .     A
N406   O407    1.301   .     A
N409   O410    1.300   .     A
N409   O411    1.300   .     A
N412   O413    1.300   .     A
N412   O414    1.300   .     A
O415   C419    1.301   .     A
O415   Cu427   1.966   .     S
O416   C420    1.301   .     A
O416   Cu428   1.966   .     S
O417   C419    1.300   .     A
O417   Cu428   1.965   .     S
O418   C420    1.300   .     A
O418   Cu427   1.965   .     S
C419   C442    1.452   .     S
C420   C441    1.452   .     S
O421   C425    1.286   .     A
O421   Cu427   1.961   .     S
O422   C426    1.286   .     A
O422   Cu428   1.961   .     S
O423   Cu428   1.957   .     S
O423   C425    1.304   .     A
O424   C426    1.304   .     A
O424   Cu427   1.957   .     S
C425   C431    1.434   .     S
C426   C432    1.434   .     S
Cu427  N429    2.034   .     S
Cu427  Cu428   2.706   .     S
Cu428  N430    2.034   .     S
N429   C445    1.371   .     A
N429   C444    1.375   .     A
N430   C446    1.371   .     A
N430   C443    1.375   .     A
C431   C524    1.348   1_455 S
C431   Br539   1.933   1_455 S
C432   C477    1.348   .     S
C432   Br494   1.933   .     S
C433   C442    1.401   .     A
C433   H435    1.082   .     S
C433   C713    1.383   1_545 S
C434   C441    1.401   .     A
C434   H436    1.082   .     S
C434   C576    1.383   .     S
C437   C441    1.401   .     A
C437   H439    1.082   .     S
C437   C571    1.383   .     S
C438   H440    1.082   .     S
C438   C442    1.401   .     A
C438   C710    1.383   1_545 S
C443   N449    1.426   .     S
C444   N452    1.426   .     S
C444   C860    1.424   .     S
C445   N455    1.429   .     S
C445   C857    1.424   .     S
C446   N458    1.429   .     S
Br447  C477    1.933   .     S
Br448  C524    1.933   1_455 S
N449   O450    1.301   .     A
N449   O451    1.299   .     A
N452   O454    1.299   .     A
N452   O453    1.301   .     A
N455   O456    1.300   .     A
N455   O457    1.300   .     A
N458   O459    1.300   .     A
N458   O460    1.300   .     A
O461   C465    1.301   .     A
O461   Cu473   1.966   .     S
O462   C466    1.301   .     A
O462   Cu474   1.966   .     S
O463   C465    1.300   .     A
O463   Cu474   1.965   .     S
O464   C466    1.300   .     A
O464   Cu473   1.965   .     S
C465   C488    1.452   .     S
C466   C487    1.452   .     S
O467   C471    1.286   .     A
O467   Cu473   1.961   .     S
O468   C472    1.286   .     A
O468   Cu474   1.961   .     S
O469   Cu474   1.957   .     S
O469   C471    1.304   .     A
O470   C472    1.304   .     A
O470   Cu473   1.957   .     S
C471   C477    1.434   .     S
C472   C478    1.434   .     S
Cu473  N475    2.034   .     S
Cu473  Cu474   2.706   .     S
Cu474  N476    2.034   .     S
N475   C491    1.371   .     A
N475   C490    1.375   .     A
N476   C492    1.371   .     A
N476   C489    1.375   .     A
C478   C523    1.348   .     S
C478   Br540   1.933   .     S
C479   C488    1.401   .     A
C479   H481    1.082   .     S
C479   C759    1.383   1_545 S
C480   C487    1.401   .     A
C480   H482    1.082   .     S
C480   C622    1.383   .     S
C483   C487    1.401   .     A
C483   H485    1.082   .     S
C483   C617    1.383   .     S
C484   H486    1.082   .     S
C484   C488    1.401   .     A
C484   C756    1.383   1_545 S
C489   N495    1.426   .     S
C490   N498    1.426   .     S
C490   C906    1.424   .     S
C491   N501    1.429   .     S
C491   C903    1.424   .     S
C492   N504    1.429   .     S
Br493  C523    1.933   .     S
N495   O496    1.301   .     A
N495   O497    1.299   .     A
N498   O500    1.299   .     A
N498   O499    1.301   .     A
N501   O502    1.300   .     A
N501   O503    1.300   .     A
N504   O505    1.300   .     A
N504   O506    1.300   .     A
O507   C511    1.301   .     A
O507   Cu519   1.966   .     S
O508   C512    1.301   .     A
O508   Cu520   1.966   .     S
O509   C511    1.300   .     A
O509   Cu520   1.965   .     S
O510   C512    1.300   .     A
O510   Cu519   1.965   .     S
C511   C534    1.452   .     S
C512   C533    1.452   .     S
O513   C517    1.286   .     A
O513   Cu519   1.961   .     S
O514   C518    1.286   .     A
O514   Cu520   1.961   .     S
O515   Cu520   1.957   .     S
O515   C517    1.304   .     A
O516   C518    1.304   .     A
O516   Cu519   1.957   .     S
C517   C523    1.434   .     S
C518   C524    1.434   .     S
Cu519  N521    2.034   .     S
Cu519  Cu520   2.706   .     S
Cu520  N522    2.034   .     S
N521   C537    1.371   .     A
N521   C536    1.375   .     A
N522   C538    1.371   .     A
N522   C535    1.375   .     A
C524   C431    1.348   1_655 S
C524   Br448   1.933   1_655 S
C525   C534    1.401   .     A
C525   H527    1.082   .     S
C525   C805    1.383   1_545 S
C526   C533    1.401   .     A
C526   H528    1.082   .     S
C526   C668    1.383   .     S
C529   C533    1.401   .     A
C529   H531    1.082   .     S
C529   C663    1.383   .     S
C530   H532    1.082   .     S
C530   C534    1.401   .     A
C530   C802    1.383   1_545 S
C535   N541    1.426   .     S
C536   N544    1.426   .     S
C536   C952    1.424   .     S
C537   N547    1.429   .     S
C537   C949    1.424   .     S
C538   N550    1.429   .     S
Br539  C431    1.933   1_655 S
N541   O542    1.301   .     A
N541   O543    1.299   .     A
N544   O546    1.299   .     A
N544   O545    1.301   .     A
N547   O548    1.300   .     A
N547   O549    1.300   .     A
N550   O551    1.300   .     A
N550   O552    1.300   .     A
O553   C557    1.301   .     A
O553   Cu565   1.966   .     S
O554   C558    1.301   .     A
O554   Cu566   1.966   .     S
O555   C557    1.300   .     A
O555   Cu566   1.965   .     S
O556   C558    1.300   .     A
O556   Cu565   1.965   .     S
C557   C580    1.452   .     S
C558   C579    1.452   .     S
O559   C563    1.286   .     A
O559   Cu565   1.961   .     S
O560   C564    1.286   .     A
O560   Cu566   1.961   .     S
O561   Cu566   1.957   .     S
O561   C563    1.304   .     A
O562   C564    1.304   .     A
O562   Cu565   1.957   .     S
C563   C569    1.434   .     S
C564   C570    1.434   .     S
Cu565  N567    2.034   .     S
Cu565  Cu566   2.706   .     S
Cu566  N568    2.034   .     S
N567   C583    1.371   .     A
N567   C582    1.375   .     A
N568   C584    1.371   .     A
N568   C581    1.375   .     A
C569   C662    1.348   1_455 S
C569   Br677   1.933   1_455 S
C570   C615    1.348   .     S
C570   Br632   1.933   .     S
C571   C580    1.401   .     A
C571   H573    1.082   .     S
C572   C579    1.401   .     A
C572   H574    1.082   .     S
C572   C714    1.383   .     S
C575   C579    1.401   .     A
C575   H577    1.082   .     S
C575   C709    1.383   .     S
C576   H578    1.082   .     S
C576   C580    1.401   .     A
C581   N587    1.426   .     S
C582   N590    1.426   .     S
C582   C998    1.424   .     S
C583   N593    1.429   .     S
C583   C995    1.424   .     S
C584   N596    1.429   .     S
Br585  C615    1.933   .     S
Br586  C662    1.933   1_455 S
N587   O588    1.301   .     A
N587   O589    1.299   .     A
N590   O592    1.299   .     A
N590   O591    1.301   .     A
N593   O594    1.300   .     A
N593   O595    1.300   .     A
N596   O597    1.300   .     A
N596   O598    1.300   .     A
O599   C603    1.301   .     A
O599   Cu611   1.966   .     S
O600   C604    1.301   .     A
O600   Cu612   1.966   .     S
O601   C603    1.300   .     A
O601   Cu612   1.965   .     S
O602   C604    1.300   .     A
O602   Cu611   1.965   .     S
C603   C626    1.452   .     S
C604   C625    1.452   .     S
O605   C609    1.286   .     A
O605   Cu611   1.961   .     S
O606   C610    1.286   .     A
O606   Cu612   1.961   .     S
O607   Cu612   1.957   .     S
O607   C609    1.304   .     A
O608   C610    1.304   .     A
O608   Cu611   1.957   .     S
C609   C615    1.434   .     S
C610   C616    1.434   .     S
Cu611  N613    2.034   .     S
Cu611  Cu612   2.706   .     S
Cu612  N614    2.034   .     S
N613   C629    1.371   .     A
N613   C628    1.375   .     A
N614   C630    1.371   .     A
N614   C627    1.375   .     A
C616   C661    1.348   .     S
C616   Br678   1.933   .     S
C617   C626    1.401   .     A
C617   H619    1.082   .     S
C618   C625    1.401   .     A
C618   H620    1.082   .     S
C618   C760    1.383   .     S
C621   C625    1.401   .     A
C621   H623    1.082   .     S
C621   C755    1.383   .     S
C622   H624    1.082   .     S
C622   C626    1.401   .     A
C627   N633    1.426   .     S
C628   N636    1.426   .     S
C628   C1044   1.424   .     S
C629   N639    1.429   .     S
C629   C1041   1.424   .     S
C630   N642    1.429   .     S
Br631  C661    1.933   .     S
N633   O634    1.301   .     A
N633   O635    1.299   .     A
N636   O638    1.299   .     A
N636   O637    1.301   .     A
N639   O640    1.300   .     A
N639   O641    1.300   .     A
N642   O643    1.300   .     A
N642   O644    1.300   .     A
O645   C649    1.301   .     A
O645   Cu657   1.966   .     S
O646   C650    1.301   .     A
O646   Cu658   1.966   .     S
O647   C649    1.300   .     A
O647   Cu658   1.965   .     S
O648   C650    1.300   .     A
O648   Cu657   1.965   .     S
C649   C672    1.452   .     S
C650   C671    1.452   .     S
O651   C655    1.286   .     A
O651   Cu657   1.961   .     S
O652   C656    1.286   .     A
O652   Cu658   1.961   .     S
O653   Cu658   1.957   .     S
O653   C655    1.304   .     A
O654   C656    1.304   .     A
O654   Cu657   1.957   .     S
C655   C661    1.434   .     S
C656   C662    1.434   .     S
Cu657  N659    2.034   .     S
Cu657  Cu658   2.706   .     S
Cu658  N660    2.034   .     S
N659   C675    1.371   .     A
N659   C674    1.375   .     A
N660   C676    1.371   .     A
N660   C673    1.375   .     A
C662   C569    1.348   1_655 S
C662   Br586   1.933   1_655 S
C663   C672    1.401   .     A
C663   H665    1.082   .     S
C664   C671    1.401   .     A
C664   H666    1.082   .     S
C664   C806    1.383   .     S
C667   C671    1.401   .     A
C667   H669    1.082   .     S
C667   C801    1.383   .     S
C668   H670    1.082   .     S
C668   C672    1.401   .     A
C673   N679    1.426   .     S
C674   N682    1.426   .     S
C674   C1090   1.424   .     S
C675   N685    1.429   .     S
C675   C1087   1.424   .     S
C676   N688    1.429   .     S
Br677  C569    1.933   1_655 S
N679   O680    1.301   .     A
N679   O681    1.299   .     A
N682   O684    1.299   .     A
N682   O683    1.301   .     A
N685   O686    1.300   .     A
N685   O687    1.300   .     A
N688   O689    1.300   .     A
N688   O690    1.300   .     A
O691   C695    1.301   .     A
O691   Cu703   1.966   .     S
O692   C696    1.301   .     A
O692   Cu704   1.966   .     S
O693   C695    1.300   .     A
O693   Cu704   1.965   .     S
O694   C696    1.300   .     A
O694   Cu703   1.965   .     S
C695   C718    1.452   .     S
C696   C717    1.452   .     S
O697   C701    1.286   .     A
O697   Cu703   1.961   .     S
O698   C702    1.286   .     A
O698   Cu704   1.961   .     S
O699   Cu704   1.957   .     S
O699   C701    1.304   .     A
O700   C702    1.304   .     A
O700   Cu703   1.957   .     S
C701   C707    1.434   .     S
C702   C708    1.434   .     S
Cu703  N705    2.034   .     S
Cu703  Cu704   2.706   .     S
Cu704  N706    2.034   .     S
N705   C721    1.371   .     A
N705   C720    1.375   .     A
N706   C722    1.371   .     A
N706   C719    1.375   .     A
C707   C800    1.348   1_455 S
C707   Br815   1.933   1_455 S
C708   C753    1.348   .     S
C708   Br770   1.933   .     S
C709   C718    1.401   .     A
C709   H711    1.082   .     S
C710   C717    1.401   .     A
C710   H712    1.082   .     S
C710   C438    1.383   1_565 S
C713   C717    1.401   .     A
C713   H715    1.082   .     S
C713   C433    1.383   1_565 S
C714   H716    1.082   .     S
C714   C718    1.401   .     A
C719   N725    1.426   .     S
C720   N728    1.426   .     S
C720   C1136   1.424   .     S
C721   N731    1.429   .     S
C721   C1133   1.424   .     S
C722   N734    1.429   .     S
Br723  C753    1.933   .     S
Br724  C800    1.933   1_455 S
N725   O726    1.301   .     A
N725   O727    1.299   .     A
N728   O730    1.299   .     A
N728   O729    1.301   .     A
N731   O732    1.300   .     A
N731   O733    1.300   .     A
N734   O735    1.300   .     A
N734   O736    1.300   .     A
O737   C741    1.301   .     A
O737   Cu749   1.966   .     S
O738   C742    1.301   .     A
O738   Cu750   1.966   .     S
O739   C741    1.300   .     A
O739   Cu750   1.965   .     S
O740   C742    1.300   .     A
O740   Cu749   1.965   .     S
C741   C764    1.452   .     S
C742   C763    1.452   .     S
O743   C747    1.286   .     A
O743   Cu749   1.961   .     S
O744   C748    1.286   .     A
O744   Cu750   1.961   .     S
O745   Cu750   1.957   .     S
O745   C747    1.304   .     A
O746   C748    1.304   .     A
O746   Cu749   1.957   .     S
C747   C753    1.434   .     S
C748   C754    1.434   .     S
Cu749  N751    2.034   .     S
Cu749  Cu750   2.706   .     S
Cu750  N752    2.034   .     S
N751   C767    1.371   .     A
N751   C766    1.375   .     A
N752   C768    1.371   .     A
N752   C765    1.375   .     A
C754   C799    1.348   .     S
C754   Br816   1.933   .     S
C755   C764    1.401   .     A
C755   H757    1.082   .     S
C756   C763    1.401   .     A
C756   H758    1.082   .     S
C756   C484    1.383   1_565 S
C759   C763    1.401   .     A
C759   H761    1.082   .     S
C759   C479    1.383   1_565 S
C760   H762    1.082   .     S
C760   C764    1.401   .     A
C765   N771    1.426   .     S
C766   N774    1.426   .     S
C766   C1182   1.424   .     S
C767   N777    1.429   .     S
C767   C1179   1.424   .     S
C768   N780    1.429   .     S
Br769  C799    1.933   .     S
N771   O772    1.301   .     A
N771   O773    1.299   .     A
N774   O776    1.299   .     A
N774   O775    1.301   .     A
N777   O778    1.300   .     A
N777   O779    1.300   .     A
N780   O781    1.300   .     A
N780   O782    1.300   .     A
O783   C787    1.301   .     A
O783   Cu795   1.966   .     S
O784   C788    1.301   .     A
O784   Cu796   1.966   .     S
O785   C787    1.300   .     A
O785   Cu796   1.965   .     S
O786   C788    1.300   .     A
O786   Cu795   1.965   .     S
C787   C810    1.452   .     S
C788   C809    1.452   .     S
O789   C793    1.286   .     A
O789   Cu795   1.961   .     S
O790   C794    1.286   .     A
O790   Cu796   1.961   .     S
O791   Cu796   1.957   .     S
O791   C793    1.304   .     A
O792   C794    1.304   .     A
O792   Cu795   1.957   .     S
C793   C799    1.434   .     S
C794   C800    1.434   .     S
Cu795  N797    2.034   .     S
Cu795  Cu796   2.706   .     S
Cu796  N798    2.034   .     S
N797   C813    1.371   .     A
N797   C812    1.375   .     A
N798   C814    1.371   .     A
N798   C811    1.375   .     A
C800   C707    1.348   1_655 S
C800   Br724   1.933   1_655 S
C801   C810    1.401   .     A
C801   H803    1.082   .     S
C802   C809    1.401   .     A
C802   H804    1.082   .     S
C802   C530    1.383   1_565 S
C805   C809    1.401   .     A
C805   H807    1.082   .     S
C805   C525    1.383   1_565 S
C806   H808    1.082   .     S
C806   C810    1.401   .     A
C811   N817    1.426   .     S
C812   N820    1.426   .     S
C812   C1228   1.424   .     S
C813   N823    1.429   .     S
C813   C1225   1.424   .     S
C814   N826    1.429   .     S
Br815  C707    1.933   1_655 S
N817   O818    1.301   .     A
N817   O819    1.299   .     A
N820   O822    1.299   .     A
N820   O821    1.301   .     A
N823   O824    1.300   .     A
N823   O825    1.300   .     A
N826   O827    1.300   .     A
N826   O828    1.300   .     A
O829   C833    1.301   .     A
O829   Cu841   1.966   .     S
O830   C834    1.301   .     A
O830   Cu842   1.966   .     S
O831   C833    1.300   .     A
O831   Cu842   1.965   .     S
O832   C834    1.300   .     A
O832   Cu841   1.965   .     S
C833   C856    1.452   .     S
C834   C855    1.452   .     S
O835   C839    1.286   .     A
O835   Cu841   1.961   .     S
O836   C840    1.286   .     A
O836   Cu842   1.961   .     S
O837   Cu842   1.957   .     S
O837   C839    1.304   .     A
O838   C840    1.304   .     A
O838   Cu841   1.957   .     S
C839   C845    1.434   .     S
C840   C846    1.434   .     S
Cu841  N843    2.034   .     S
Cu841  Cu842   2.706   .     S
Cu842  N844    2.034   .     S
N843   C859    1.371   .     A
N843   C858    1.375   .     A
N844   C860    1.371   .     A
N844   C857    1.375   .     A
C845   C938    1.348   1_455 S
C845   Br953   1.933   1_455 S
C846   C891    1.348   .     S
C846   Br908   1.933   .     S
C847   C856    1.401   .     A
C847   H849    1.082   .     S
C847   C1127   1.383   1_545 S
C848   C855    1.401   .     A
C848   H850    1.082   .     S
C848   C990    1.383   .     S
C851   C855    1.401   .     A
C851   H853    1.082   .     S
C851   C985    1.383   .     S
C852   H854    1.082   .     S
C852   C856    1.401   .     A
C852   C1124   1.383   1_545 S
C857   N863    1.426   .     S
C858   N866    1.426   .     S
C858   C32     1.424   1_556 S
C859   N869    1.429   .     S
C859   C29     1.424   1_556 S
C860   N872    1.429   .     S
Br861  C891    1.933   .     S
Br862  C938    1.933   1_455 S
N863   O864    1.301   .     A
N863   O865    1.299   .     A
N866   O868    1.299   .     A
N866   O867    1.301   .     A
N869   O870    1.300   .     A
N869   O871    1.300   .     A
N872   O873    1.300   .     A
N872   O874    1.300   .     A
O875   C879    1.301   .     A
O875   Cu887   1.966   .     S
O876   C880    1.301   .     A
O876   Cu888   1.966   .     S
O877   C879    1.300   .     A
O877   Cu888   1.965   .     S
O878   C880    1.300   .     A
O878   Cu887   1.965   .     S
C879   C902    1.452   .     S
C880   C901    1.452   .     S
O881   C885    1.286   .     A
O881   Cu887   1.961   .     S
O882   C886    1.286   .     A
O882   Cu888   1.961   .     S
O883   Cu888   1.957   .     S
O883   C885    1.304   .     A
O884   C886    1.304   .     A
O884   Cu887   1.957   .     S
C885   C891    1.434   .     S
C886   C892    1.434   .     S
Cu887  N889    2.034   .     S
Cu887  Cu888   2.706   .     S
Cu888  N890    2.034   .     S
N889   C905    1.371   .     A
N889   C904    1.375   .     A
N890   C906    1.371   .     A
N890   C903    1.375   .     A
C892   C937    1.348   .     S
C892   Br954   1.933   .     S
C893   C902    1.401   .     A
C893   H895    1.082   .     S
C893   C1173   1.383   1_545 S
C894   C901    1.401   .     A
C894   H896    1.082   .     S
C894   C1036   1.383   .     S
C897   C901    1.401   .     A
C897   H899    1.082   .     S
C897   C1031   1.383   .     S
C898   H900    1.082   .     S
C898   C902    1.401   .     A
C898   C1170   1.383   1_545 S
C903   N909    1.426   .     S
C904   N912    1.426   .     S
C904   C78     1.424   1_556 S
C905   N915    1.429   .     S
C905   C75     1.424   1_556 S
C906   N918    1.429   .     S
Br907  C937    1.933   .     S
N909   O910    1.301   .     A
N909   O911    1.299   .     A
N912   O914    1.299   .     A
N912   O913    1.301   .     A
N915   O916    1.300   .     A
N915   O917    1.300   .     A
N918   O919    1.300   .     A
N918   O920    1.300   .     A
O921   C925    1.301   .     A
O921   Cu933   1.966   .     S
O922   C926    1.301   .     A
O922   Cu934   1.966   .     S
O923   C925    1.300   .     A
O923   Cu934   1.965   .     S
O924   C926    1.300   .     A
O924   Cu933   1.965   .     S
C925   C948    1.452   .     S
C926   C947    1.452   .     S
O927   C931    1.286   .     A
O927   Cu933   1.961   .     S
O928   C932    1.286   .     A
O928   Cu934   1.961   .     S
O929   Cu934   1.957   .     S
O929   C931    1.304   .     A
O930   C932    1.304   .     A
O930   Cu933   1.957   .     S
C931   C937    1.434   .     S
C932   C938    1.434   .     S
Cu933  N935    2.034   .     S
Cu933  Cu934   2.706   .     S
Cu934  N936    2.034   .     S
N935   C951    1.371   .     A
N935   C950    1.375   .     A
N936   C952    1.371   .     A
N936   C949    1.375   .     A
C938   C845    1.348   1_655 S
C938   Br862   1.933   1_655 S
C939   C948    1.401   .     A
C939   H941    1.082   .     S
C939   C1219   1.383   1_545 S
C940   C947    1.401   .     A
C940   H942    1.082   .     S
C940   C1082   1.383   .     S
C943   C947    1.401   .     A
C943   H945    1.082   .     S
C943   C1077   1.383   .     S
C944   H946    1.082   .     S
C944   C948    1.401   .     A
C944   C1216   1.383   1_545 S
C949   N955    1.426   .     S
C950   N958    1.426   .     S
C950   C124    1.424   1_556 S
C951   N961    1.429   .     S
C951   C121    1.424   1_556 S
C952   N964    1.429   .     S
Br953  C845    1.933   1_655 S
N955   O956    1.301   .     A
N955   O957    1.299   .     A
N958   O960    1.299   .     A
N958   O959    1.301   .     A
N961   O962    1.300   .     A
N961   O963    1.300   .     A
N964   O965    1.300   .     A
N964   O966    1.300   .     A
O967   C971    1.301   .     A
O967   Cu979   1.966   .     S
O968   C972    1.301   .     A
O968   Cu980   1.966   .     S
O969   C971    1.300   .     A
O969   Cu980   1.965   .     S
O970   C972    1.300   .     A
O970   Cu979   1.965   .     S
C971   C994    1.452   .     S
C972   C993    1.452   .     S
O973   C977    1.286   .     A
O973   Cu979   1.961   .     S
O974   C978    1.286   .     A
O974   Cu980   1.961   .     S
O975   Cu980   1.957   .     S
O975   C977    1.304   .     A
O976   C978    1.304   .     A
O976   Cu979   1.957   .     S
C977   C983    1.434   .     S
C978   C984    1.434   .     S
Cu979  N981    2.034   .     S
Cu979  Cu980   2.706   .     S
Cu980  N982    2.034   .     S
N981   C997    1.371   .     A
N981   C996    1.375   .     A
N982   C998    1.371   .     A
N982   C995    1.375   .     A
C983   C1076   1.348   1_455 S
C983   Br1091  1.933   1_455 S
C984   C1029   1.348   .     S
C984   Br1046  1.933   .     S
C985   C994    1.401   .     A
C985   H987    1.082   .     S
C986   C993    1.401   .     A
C986   H988    1.082   .     S
C986   C1128   1.383   .     S
C989   C993    1.401   .     A
C989   H991    1.082   .     S
C989   C1123   1.383   .     S
C990   H992    1.082   .     S
C990   C994    1.401   .     A
C995   N1001   1.426   .     S
C996   N1004   1.426   .     S
C996   C170    1.424   1_556 S
C997   N1007   1.429   .     S
C997   C167    1.424   1_556 S
C998   N1010   1.429   .     S
Br999  C1029   1.933   .     S
Br1000 C1076   1.933   1_455 S
N1001  O1002   1.301   .     A
N1001  O1003   1.299   .     A
N1004  O1006   1.299   .     A
N1004  O1005   1.301   .     A
N1007  O1008   1.300   .     A
N1007  O1009   1.300   .     A
N1010  O1011   1.300   .     A
N1010  O1012   1.300   .     A
O1013  C1017   1.301   .     A
O1013  Cu1025  1.966   .     S
O1014  C1018   1.301   .     A
O1014  Cu1026  1.966   .     S
O1015  C1017   1.300   .     A
O1015  Cu1026  1.965   .     S
O1016  C1018   1.300   .     A
O1016  Cu1025  1.965   .     S
C1017  C1040   1.452   .     S
C1018  C1039   1.452   .     S
O1019  C1023   1.286   .     A
O1019  Cu1025  1.961   .     S
O1020  C1024   1.286   .     A
O1020  Cu1026  1.961   .     S
O1021  Cu1026  1.957   .     S
O1021  C1023   1.304   .     A
O1022  C1024   1.304   .     A
O1022  Cu1025  1.957   .     S
C1023  C1029   1.434   .     S
C1024  C1030   1.434   .     S
Cu1025 N1027   2.034   .     S
Cu1025 Cu1026  2.706   .     S
Cu1026 N1028   2.034   .     S
N1027  C1043   1.371   .     A
N1027  C1042   1.375   .     A
N1028  C1044   1.371   .     A
N1028  C1041   1.375   .     A
C1030  C1075   1.348   .     S
C1030  Br1092  1.933   .     S
C1031  C1040   1.401   .     A
C1031  H1033   1.082   .     S
C1032  C1039   1.401   .     A
C1032  H1034   1.082   .     S
C1032  C1174   1.383   .     S
C1035  C1039   1.401   .     A
C1035  H1037   1.082   .     S
C1035  C1169   1.383   .     S
C1036  H1038   1.082   .     S
C1036  C1040   1.401   .     A
C1041  N1047   1.426   .     S
C1042  N1050   1.426   .     S
C1042  C216    1.424   1_556 S
C1043  N1053   1.429   .     S
C1043  C213    1.424   1_556 S
C1044  N1056   1.429   .     S
Br1045 C1075   1.933   .     S
N1047  O1048   1.301   .     A
N1047  O1049   1.299   .     A
N1050  O1052   1.299   .     A
N1050  O1051   1.301   .     A
N1053  O1054   1.300   .     A
N1053  O1055   1.300   .     A
N1056  O1057   1.300   .     A
N1056  O1058   1.300   .     A
O1059  C1063   1.301   .     A
O1059  Cu1071  1.966   .     S
O1060  C1064   1.301   .     A
O1060  Cu1072  1.966   .     S
O1061  C1063   1.300   .     A
O1061  Cu1072  1.965   .     S
O1062  C1064   1.300   .     A
O1062  Cu1071  1.965   .     S
C1063  C1086   1.452   .     S
C1064  C1085   1.452   .     S
O1065  C1069   1.286   .     A
O1065  Cu1071  1.961   .     S
O1066  C1070   1.286   .     A
O1066  Cu1072  1.961   .     S
O1067  Cu1072  1.957   .     S
O1067  C1069   1.304   .     A
O1068  C1070   1.304   .     A
O1068  Cu1071  1.957   .     S
C1069  C1075   1.434   .     S
C1070  C1076   1.434   .     S
Cu1071 N1073   2.034   .     S
Cu1071 Cu1072  2.706   .     S
Cu1072 N1074   2.034   .     S
N1073  C1089   1.371   .     A
N1073  C1088   1.375   .     A
N1074  C1090   1.371   .     A
N1074  C1087   1.375   .     A
C1076  C983    1.348   1_655 S
C1076  Br1000  1.933   1_655 S
C1077  C1086   1.401   .     A
C1077  H1079   1.082   .     S
C1078  C1085   1.401   .     A
C1078  H1080   1.082   .     S
C1078  C1220   1.383   .     S
C1081  C1085   1.401   .     A
C1081  H1083   1.082   .     S
C1081  C1215   1.383   .     S
C1082  H1084   1.082   .     S
C1082  C1086   1.401   .     A
C1087  N1093   1.426   .     S
C1088  N1096   1.426   .     S
C1088  C262    1.424   1_556 S
C1089  N1099   1.429   .     S
C1089  C259    1.424   1_556 S
C1090  N1102   1.429   .     S
Br1091 C983    1.933   1_655 S
N1093  O1094   1.301   .     A
N1093  O1095   1.299   .     A
N1096  O1098   1.299   .     A
N1096  O1097   1.301   .     A
N1099  O1100   1.300   .     A
N1099  O1101   1.300   .     A
N1102  O1103   1.300   .     A
N1102  O1104   1.300   .     A
O1105  C1109   1.301   .     A
O1105  Cu1117  1.966   .     S
O1106  C1110   1.301   .     A
O1106  Cu1118  1.966   .     S
O1107  C1109   1.300   .     A
O1107  Cu1118  1.965   .     S
O1108  C1110   1.300   .     A
O1108  Cu1117  1.965   .     S
C1109  C1132   1.452   .     S
C1110  C1131   1.452   .     S
O1111  C1115   1.286   .     A
O1111  Cu1117  1.961   .     S
O1112  C1116   1.286   .     A
O1112  Cu1118  1.961   .     S
O1113  Cu1118  1.957   .     S
O1113  C1115   1.304   .     A
O1114  C1116   1.304   .     A
O1114  Cu1117  1.957   .     S
C1115  C1121   1.434   .     S
C1116  C1122   1.434   .     S
Cu1117 N1119   2.034   .     S
Cu1117 Cu1118  2.706   .     S
Cu1118 N1120   2.034   .     S
N1119  C1135   1.371   .     A
N1119  C1134   1.375   .     A
N1120  C1136   1.371   .     A
N1120  C1133   1.375   .     A
C1121  C1214   1.348   1_455 S
C1121  Br1229  1.933   1_455 S
C1122  C1167   1.348   .     S
C1122  Br1184  1.933   .     S
C1123  C1132   1.401   .     A
C1123  H1125   1.082   .     S
C1124  C1131   1.401   .     A
C1124  H1126   1.082   .     S
C1124  C852    1.383   1_565 S
C1127  C1131   1.401   .     A
C1127  H1129   1.082   .     S
C1127  C847    1.383   1_565 S
C1128  H1130   1.082   .     S
C1128  C1132   1.401   .     A
C1133  N1139   1.426   .     S
C1134  N1142   1.426   .     S
C1134  C308    1.424   1_556 S
C1135  N1145   1.429   .     S
C1135  C305    1.424   1_556 S
C1136  N1148   1.429   .     S
Br1137 C1167   1.933   .     S
Br1138 C1214   1.933   1_455 S
N1139  O1140   1.301   .     A
N1139  O1141   1.299   .     A
N1142  O1144   1.299   .     A
N1142  O1143   1.301   .     A
N1145  O1146   1.300   .     A
N1145  O1147   1.300   .     A
N1148  O1149   1.300   .     A
N1148  O1150   1.300   .     A
O1151  C1155   1.301   .     A
O1151  Cu1163  1.966   .     S
O1152  C1156   1.301   .     A
O1152  Cu1164  1.966   .     S
O1153  C1155   1.300   .     A
O1153  Cu1164  1.965   .     S
O1154  C1156   1.300   .     A
O1154  Cu1163  1.965   .     S
C1155  C1178   1.452   .     S
C1156  C1177   1.452   .     S
O1157  C1161   1.286   .     A
O1157  Cu1163  1.961   .     S
O1158  C1162   1.286   .     A
O1158  Cu1164  1.961   .     S
O1159  Cu1164  1.957   .     S
O1159  C1161   1.304   .     A
O1160  C1162   1.304   .     A
O1160  Cu1163  1.957   .     S
C1161  C1167   1.434   .     S
C1162  C1168   1.434   .     S
Cu1163 N1165   2.034   .     S
Cu1163 Cu1164  2.706   .     S
Cu1164 N1166   2.034   .     S
N1165  C1181   1.371   .     A
N1165  C1180   1.375   .     A
N1166  C1182   1.371   .     A
N1166  C1179   1.375   .     A
C1168  C1213   1.348   .     S
C1168  Br1230  1.933   .     S
C1169  C1178   1.401   .     A
C1169  H1171   1.082   .     S
C1170  C1177   1.401   .     A
C1170  H1172   1.082   .     S
C1170  C898    1.383   1_565 S
C1173  C1177   1.401   .     A
C1173  H1175   1.082   .     S
C1173  C893    1.383   1_565 S
C1174  H1176   1.082   .     S
C1174  C1178   1.401   .     A
C1179  N1185   1.426   .     S
C1180  N1188   1.426   .     S
C1180  C354    1.424   1_556 S
C1181  N1191   1.429   .     S
C1181  C351    1.424   1_556 S
C1182  N1194   1.429   .     S
Br1183 C1213   1.933   .     S
N1185  O1186   1.301   .     A
N1185  O1187   1.299   .     A
N1188  O1190   1.299   .     A
N1188  O1189   1.301   .     A
N1191  O1192   1.300   .     A
N1191  O1193   1.300   .     A
N1194  O1195   1.300   .     A
N1194  O1196   1.300   .     A
O1197  C1201   1.301   .     A
O1197  Cu1209  1.966   .     S
O1198  C1202   1.301   .     A
O1198  Cu1210  1.966   .     S
O1199  C1201   1.300   .     A
O1199  Cu1210  1.965   .     S
O1200  C1202   1.300   .     A
O1200  Cu1209  1.965   .     S
C1201  C1224   1.452   .     S
C1202  C1223   1.452   .     S
O1203  C1207   1.286   .     A
O1203  Cu1209  1.961   .     S
O1204  C1208   1.286   .     A
O1204  Cu1210  1.961   .     S
O1205  Cu1210  1.957   .     S
O1205  C1207   1.304   .     A
O1206  C1208   1.304   .     A
O1206  Cu1209  1.957   .     S
C1207  C1213   1.434   .     S
C1208  C1214   1.434   .     S
Cu1209 N1211   2.034   .     S
Cu1209 Cu1210  2.706   .     S
Cu1210 N1212   2.034   .     S
N1211  C1227   1.371   .     A
N1211  C1226   1.375   .     A
N1212  C1228   1.371   .     A
N1212  C1225   1.375   .     A
C1214  C1121   1.348   1_655 S
C1214  Br1138  1.933   1_655 S
C1215  C1224   1.401   .     A
C1215  H1217   1.082   .     S
C1216  C1223   1.401   .     A
C1216  H1218   1.082   .     S
C1216  C944    1.383   1_565 S
C1219  C1223   1.401   .     A
C1219  H1221   1.082   .     S
C1219  C939    1.383   1_565 S
C1220  H1222   1.082   .     S
C1220  C1224   1.401   .     A
C1225  N1231   1.426   .     S
C1226  N1234   1.426   .     S
C1226  C400    1.424   1_556 S
C1227  N1237   1.429   .     S
C1227  C397    1.424   1_556 S
C1228  N1240   1.429   .     S
Br1229 C1121   1.933   1_655 S
N1231  O1232   1.301   .     A
N1231  O1233   1.299   .     A
N1234  O1236   1.299   .     A
N1234  O1235   1.301   .     A
N1237  O1238   1.300   .     A
N1237  O1239   1.300   .     A
N1240  O1241   1.300   .     A
N1240  O1242   1.300   .     A
