data_str_m2_o5_o17_pcu_sym.32
_audit_creation_date              2020-01-03
_audit_creation_method            'Materials Studio'
_symmetry_space_group_name_H-M    'P1'
_symmetry_Int_Tables_number       1
_symmetry_cell_setting            triclinic
loop_
_symmetry_equiv_pos_as_xyz
  x,y,z
_cell_length_a                    30.1912
_cell_length_b                    27.2895
_cell_length_c                    23.3492
_cell_angle_alpha                 89.9938
_cell_angle_beta                  90.0218
_cell_angle_gamma                 89.9990
loop_
_atom_site_label
_atom_site_type_symbol
_atom_site_fract_x
_atom_site_fract_y
_atom_site_fract_z
_atom_site_U_iso_or_equiv
_atom_site_adp_type
_atom_site_occupancy
O1     O     0.25000   0.09613   0.21425   0.00000  Uiso   1.00
O2     O     0.25000   0.23720   0.11908   0.00000  Uiso   1.00
O3     O     0.25000   0.23720   0.21425   0.00000  Uiso   1.00
O4     O     0.25000   0.09613   0.11908   0.00000  Uiso   1.00
C5     C     0.25000   0.07334   0.16667   0.00000  Uiso   1.00
C6     C     0.25000   0.26000   0.16667   0.00000  Uiso   1.00
O7     O     0.18513   0.16667   0.21427   0.00000  Uiso   1.00
O8     O     0.31487   0.16667   0.11907   0.00000  Uiso   1.00
O9     O     0.31487   0.16667   0.21427   0.00000  Uiso   1.00
O10    O     0.18513   0.16667   0.11907   0.00000  Uiso   1.00
C11    C     0.16411   0.16677   0.16665   0.00000  Uiso   1.00
C12    C     0.33589   0.16656   0.16668   0.00000  Uiso   1.00
Cu13   Cu    0.25000   0.16667   0.22303   0.00000  Uiso   1.00
Cu14   Cu    0.25000   0.16667   0.11031   0.00000  Uiso   1.00
N15    N     0.25000   0.16667   0.02561   0.00000  Uiso   1.00
N16    N     0.25000   0.16667   0.30773   0.00000  Uiso   1.00
C17    C     0.40719   0.18138   0.21544   0.00000  Uiso   1.00
C18    C     0.09281   0.15195   0.11789   0.00000  Uiso   1.00
C19    C     0.40720   0.15019   0.11837   0.00000  Uiso   1.00
C20    C     0.09280   0.18315   0.21496   0.00000  Uiso   1.00
C21    C     0.38420   0.16605   0.16681   0.00000  Uiso   1.00
C22    C     0.11580   0.16729   0.16652   0.00000  Uiso   1.00
C23    C     0.45356   0.14812   0.11836   0.00000  Uiso   1.00
C24    C     0.04644   0.18521   0.21498   0.00000  Uiso   1.00
C25    C     0.45346   0.18259   0.21575   0.00000  Uiso   1.00
C26    C     0.04654   0.15074   0.11758   0.00000  Uiso   1.00
C27    C     0.47680   0.16602   0.16684   0.00000  Uiso   1.00
C28    C     0.02320   0.16731   0.16649   0.00000  Uiso   1.00
C29    C     0.47712   0.12965   0.07047   0.00000  Uiso   1.00
C30    C     0.02288   0.20368   0.26286   0.00000  Uiso   1.00
C31    C     0.47626   0.20089   0.26384   0.00000  Uiso   1.00
C32    C     0.02374   0.13244   0.06950   0.00000  Uiso   1.00
C33    C     0.25000   0.02179   0.16667   0.00000  Uiso   1.00
C34    C     0.25000   0.31155   0.16666   0.00000  Uiso   1.00
H35    H     0.38870   0.19374   0.25249   0.00000  Uiso   1.00
H36    H     0.11130   0.13959   0.08084   0.00000  Uiso   1.00
H37    H     0.38843   0.13963   0.08089   0.00000  Uiso   1.00
H38    H     0.11157   0.19370   0.25245   0.00000  Uiso   1.00
O39    O     0.45572   0.10865   0.02432   0.00000  Uiso   1.00
H40    H     0.43133   0.08794   0.03907   0.00000  Uiso   1.00
O41    O     0.04428   0.22469   0.30902   0.00000  Uiso   1.00
H42    H     0.06867   0.24539   0.29427   0.00000  Uiso   1.00
O43    O     0.45190   0.21729   0.31033   0.00000  Uiso   1.00
H44    H     0.47184   0.22780   0.00830   0.00000  Uiso   1.00
O45    O     0.04810   0.11605   0.02300   0.00000  Uiso   1.00
H46    H     0.02816   0.10553   0.32503   0.00000  Uiso   1.00
O47    O     0.75000   0.09613   0.21425   0.00000  Uiso   1.00
O48    O     0.75000   0.23720   0.11908   0.00000  Uiso   1.00
O49    O     0.75000   0.23720   0.21425   0.00000  Uiso   1.00
O50    O     0.75000   0.09613   0.11908   0.00000  Uiso   1.00
C51    C     0.75000   0.07334   0.16667   0.00000  Uiso   1.00
C52    C     0.75000   0.26000   0.16667   0.00000  Uiso   1.00
O53    O     0.68513   0.16667   0.21427   0.00000  Uiso   1.00
O54    O     0.81487   0.16667   0.11907   0.00000  Uiso   1.00
O55    O     0.81487   0.16667   0.21427   0.00000  Uiso   1.00
O56    O     0.68513   0.16667   0.11907   0.00000  Uiso   1.00
C57    C     0.66411   0.16677   0.16665   0.00000  Uiso   1.00
C58    C     0.83589   0.16656   0.16668   0.00000  Uiso   1.00
Cu59   Cu    0.75000   0.16667   0.22303   0.00000  Uiso   1.00
Cu60   Cu    0.75000   0.16667   0.11031   0.00000  Uiso   1.00
N61    N     0.75000   0.16667   0.02561   0.00000  Uiso   1.00
N62    N     0.75000   0.16667   0.30773   0.00000  Uiso   1.00
C63    C     0.90719   0.18138   0.21544   0.00000  Uiso   1.00
C64    C     0.59281   0.15195   0.11789   0.00000  Uiso   1.00
C65    C     0.90720   0.15019   0.11837   0.00000  Uiso   1.00
C66    C     0.59280   0.18315   0.21496   0.00000  Uiso   1.00
C67    C     0.88420   0.16605   0.16681   0.00000  Uiso   1.00
C68    C     0.61580   0.16729   0.16652   0.00000  Uiso   1.00
C69    C     0.95356   0.14812   0.11836   0.00000  Uiso   1.00
C70    C     0.54644   0.18521   0.21498   0.00000  Uiso   1.00
C71    C     0.95346   0.18259   0.21575   0.00000  Uiso   1.00
C72    C     0.54654   0.15074   0.11758   0.00000  Uiso   1.00
C73    C     0.97680   0.16602   0.16684   0.00000  Uiso   1.00
C74    C     0.52320   0.16731   0.16649   0.00000  Uiso   1.00
C75    C     0.97712   0.12965   0.07047   0.00000  Uiso   1.00
C76    C     0.52288   0.20368   0.26286   0.00000  Uiso   1.00
C77    C     0.97626   0.20089   0.26384   0.00000  Uiso   1.00
C78    C     0.52374   0.13244   0.06950   0.00000  Uiso   1.00
C79    C     0.75000   0.02179   0.16667   0.00000  Uiso   1.00
C80    C     0.75000   0.31155   0.16666   0.00000  Uiso   1.00
H81    H     0.88870   0.19374   0.25249   0.00000  Uiso   1.00
H82    H     0.61130   0.13959   0.08084   0.00000  Uiso   1.00
H83    H     0.88843   0.13963   0.08089   0.00000  Uiso   1.00
H84    H     0.61157   0.19370   0.25245   0.00000  Uiso   1.00
O85    O     0.95572   0.10865   0.02432   0.00000  Uiso   1.00
H86    H     0.93133   0.08794   0.03907   0.00000  Uiso   1.00
O87    O     0.54428   0.22469   0.30902   0.00000  Uiso   1.00
H88    H     0.56867   0.24539   0.29427   0.00000  Uiso   1.00
O89    O     0.95190   0.21729   0.31033   0.00000  Uiso   1.00
H90    H     0.97184   0.22780   0.00830   0.00000  Uiso   1.00
O91    O     0.54810   0.11605   0.02300   0.00000  Uiso   1.00
H92    H     0.52816   0.10553   0.32503   0.00000  Uiso   1.00
O93    O     0.25000   0.42946   0.21425   0.00000  Uiso   1.00
O94    O     0.25000   0.57054   0.11908   0.00000  Uiso   1.00
O95    O     0.25000   0.57054   0.21425   0.00000  Uiso   1.00
O96    O     0.25000   0.42946   0.11908   0.00000  Uiso   1.00
C97    C     0.25000   0.40667   0.16667   0.00000  Uiso   1.00
C98    C     0.25000   0.59333   0.16667   0.00000  Uiso   1.00
O99    O     0.18513   0.50000   0.21427   0.00000  Uiso   1.00
O100   O     0.31487   0.50000   0.11907   0.00000  Uiso   1.00
O101   O     0.31487   0.50000   0.21427   0.00000  Uiso   1.00
O102   O     0.18513   0.50000   0.11907   0.00000  Uiso   1.00
C103   C     0.16411   0.50010   0.16665   0.00000  Uiso   1.00
C104   C     0.33589   0.49990   0.16668   0.00000  Uiso   1.00
Cu105  Cu    0.25000   0.50000   0.22303   0.00000  Uiso   1.00
Cu106  Cu    0.25000   0.50000   0.11031   0.00000  Uiso   1.00
N107   N     0.25000   0.50000   0.02561   0.00000  Uiso   1.00
N108   N     0.25000   0.50000   0.30773   0.00000  Uiso   1.00
C109   C     0.40719   0.51471   0.21544   0.00000  Uiso   1.00
C110   C     0.09281   0.48529   0.11789   0.00000  Uiso   1.00
C111   C     0.40720   0.48352   0.11837   0.00000  Uiso   1.00
C112   C     0.09280   0.51648   0.21496   0.00000  Uiso   1.00
C113   C     0.38420   0.49938   0.16681   0.00000  Uiso   1.00
C114   C     0.11580   0.50062   0.16652   0.00000  Uiso   1.00
C115   C     0.45356   0.48145   0.11836   0.00000  Uiso   1.00
C116   C     0.04644   0.51855   0.21498   0.00000  Uiso   1.00
C117   C     0.45346   0.51592   0.21575   0.00000  Uiso   1.00
C118   C     0.04654   0.48408   0.11758   0.00000  Uiso   1.00
C119   C     0.47680   0.49936   0.16684   0.00000  Uiso   1.00
C120   C     0.02320   0.50064   0.16649   0.00000  Uiso   1.00
C121   C     0.47712   0.46298   0.07047   0.00000  Uiso   1.00
C122   C     0.02288   0.53702   0.26286   0.00000  Uiso   1.00
C123   C     0.47626   0.53423   0.26384   0.00000  Uiso   1.00
C124   C     0.02374   0.46577   0.06950   0.00000  Uiso   1.00
C125   C     0.25000   0.35512   0.16667   0.00000  Uiso   1.00
C126   C     0.25000   0.64488   0.16666   0.00000  Uiso   1.00
H127   H     0.38870   0.52708   0.25249   0.00000  Uiso   1.00
H128   H     0.11130   0.47293   0.08084   0.00000  Uiso   1.00
H129   H     0.38843   0.47297   0.08089   0.00000  Uiso   1.00
H130   H     0.11157   0.52703   0.25245   0.00000  Uiso   1.00
O131   O     0.45572   0.44198   0.02432   0.00000  Uiso   1.00
H132   H     0.43133   0.42128   0.03907   0.00000  Uiso   1.00
O133   O     0.04428   0.55802   0.30902   0.00000  Uiso   1.00
H134   H     0.06867   0.57872   0.29427   0.00000  Uiso   1.00
O135   O     0.45190   0.55062   0.31033   0.00000  Uiso   1.00
H136   H     0.47184   0.56113   0.00830   0.00000  Uiso   1.00
O137   O     0.04810   0.44938   0.02300   0.00000  Uiso   1.00
H138   H     0.02816   0.43886   0.32503   0.00000  Uiso   1.00
O139   O     0.75000   0.42946   0.21425   0.00000  Uiso   1.00
O140   O     0.75000   0.57054   0.11908   0.00000  Uiso   1.00
O141   O     0.75000   0.57054   0.21425   0.00000  Uiso   1.00
O142   O     0.75000   0.42946   0.11908   0.00000  Uiso   1.00
C143   C     0.75000   0.40667   0.16667   0.00000  Uiso   1.00
C144   C     0.75000   0.59333   0.16667   0.00000  Uiso   1.00
O145   O     0.68513   0.50000   0.21427   0.00000  Uiso   1.00
O146   O     0.81487   0.50000   0.11907   0.00000  Uiso   1.00
O147   O     0.81487   0.50000   0.21427   0.00000  Uiso   1.00
O148   O     0.68513   0.50000   0.11907   0.00000  Uiso   1.00
C149   C     0.66411   0.50010   0.16665   0.00000  Uiso   1.00
C150   C     0.83589   0.49990   0.16668   0.00000  Uiso   1.00
Cu151  Cu    0.75000   0.50000   0.22303   0.00000  Uiso   1.00
Cu152  Cu    0.75000   0.50000   0.11031   0.00000  Uiso   1.00
N153   N     0.75000   0.50000   0.02561   0.00000  Uiso   1.00
N154   N     0.75000   0.50000   0.30773   0.00000  Uiso   1.00
C155   C     0.90719   0.51471   0.21544   0.00000  Uiso   1.00
C156   C     0.59281   0.48529   0.11789   0.00000  Uiso   1.00
C157   C     0.90720   0.48352   0.11837   0.00000  Uiso   1.00
C158   C     0.59280   0.51648   0.21496   0.00000  Uiso   1.00
C159   C     0.88420   0.49938   0.16681   0.00000  Uiso   1.00
C160   C     0.61580   0.50062   0.16652   0.00000  Uiso   1.00
C161   C     0.95356   0.48145   0.11836   0.00000  Uiso   1.00
C162   C     0.54644   0.51855   0.21498   0.00000  Uiso   1.00
C163   C     0.95346   0.51592   0.21575   0.00000  Uiso   1.00
C164   C     0.54654   0.48408   0.11758   0.00000  Uiso   1.00
C165   C     0.97680   0.49936   0.16684   0.00000  Uiso   1.00
C166   C     0.52320   0.50064   0.16649   0.00000  Uiso   1.00
C167   C     0.97712   0.46298   0.07047   0.00000  Uiso   1.00
C168   C     0.52288   0.53702   0.26286   0.00000  Uiso   1.00
C169   C     0.97626   0.53423   0.26384   0.00000  Uiso   1.00
C170   C     0.52374   0.46577   0.06950   0.00000  Uiso   1.00
C171   C     0.75000   0.35512   0.16667   0.00000  Uiso   1.00
C172   C     0.75000   0.64488   0.16666   0.00000  Uiso   1.00
H173   H     0.88870   0.52708   0.25249   0.00000  Uiso   1.00
H174   H     0.61130   0.47293   0.08084   0.00000  Uiso   1.00
H175   H     0.88843   0.47297   0.08089   0.00000  Uiso   1.00
H176   H     0.61157   0.52703   0.25245   0.00000  Uiso   1.00
O177   O     0.95572   0.44198   0.02432   0.00000  Uiso   1.00
H178   H     0.93133   0.42128   0.03907   0.00000  Uiso   1.00
O179   O     0.54428   0.55802   0.30902   0.00000  Uiso   1.00
H180   H     0.56867   0.57872   0.29427   0.00000  Uiso   1.00
O181   O     0.95190   0.55062   0.31033   0.00000  Uiso   1.00
H182   H     0.97184   0.56113   0.00830   0.00000  Uiso   1.00
O183   O     0.54810   0.44938   0.02300   0.00000  Uiso   1.00
H184   H     0.52816   0.43886   0.32503   0.00000  Uiso   1.00
O185   O     0.25000   0.76280   0.21425   0.00000  Uiso   1.00
O186   O     0.25000   0.90387   0.11908   0.00000  Uiso   1.00
O187   O     0.25000   0.90387   0.21425   0.00000  Uiso   1.00
O188   O     0.25000   0.76280   0.11908   0.00000  Uiso   1.00
C189   C     0.25000   0.74000   0.16667   0.00000  Uiso   1.00
C190   C     0.25000   0.92666   0.16667   0.00000  Uiso   1.00
O191   O     0.18513   0.83333   0.21427   0.00000  Uiso   1.00
O192   O     0.31487   0.83333   0.11907   0.00000  Uiso   1.00
O193   O     0.31487   0.83333   0.21427   0.00000  Uiso   1.00
O194   O     0.18513   0.83333   0.11907   0.00000  Uiso   1.00
C195   C     0.16411   0.83343   0.16665   0.00000  Uiso   1.00
C196   C     0.33589   0.83323   0.16668   0.00000  Uiso   1.00
Cu197  Cu    0.25000   0.83333   0.22303   0.00000  Uiso   1.00
Cu198  Cu    0.25000   0.83333   0.11031   0.00000  Uiso   1.00
N199   N     0.25000   0.83333   0.02561   0.00000  Uiso   1.00
N200   N     0.25000   0.83333   0.30773   0.00000  Uiso   1.00
C201   C     0.40719   0.84805   0.21544   0.00000  Uiso   1.00
C202   C     0.09281   0.81862   0.11789   0.00000  Uiso   1.00
C203   C     0.40720   0.81685   0.11837   0.00000  Uiso   1.00
C204   C     0.09280   0.84981   0.21496   0.00000  Uiso   1.00
C205   C     0.38420   0.83271   0.16681   0.00000  Uiso   1.00
C206   C     0.11580   0.83395   0.16652   0.00000  Uiso   1.00
C207   C     0.45356   0.81479   0.11836   0.00000  Uiso   1.00
C208   C     0.04644   0.85188   0.21498   0.00000  Uiso   1.00
C209   C     0.45346   0.84926   0.21575   0.00000  Uiso   1.00
C210   C     0.04654   0.81741   0.11758   0.00000  Uiso   1.00
C211   C     0.47680   0.83269   0.16684   0.00000  Uiso   1.00
C212   C     0.02320   0.83398   0.16649   0.00000  Uiso   1.00
C213   C     0.47712   0.79632   0.07047   0.00000  Uiso   1.00
C214   C     0.02288   0.87035   0.26286   0.00000  Uiso   1.00
C215   C     0.47626   0.86756   0.26384   0.00000  Uiso   1.00
C216   C     0.02374   0.79911   0.06950   0.00000  Uiso   1.00
C217   C     0.25000   0.68845   0.16667   0.00000  Uiso   1.00
C218   C     0.25000   0.97821   0.16666   0.00000  Uiso   1.00
H219   H     0.38870   0.86041   0.25249   0.00000  Uiso   1.00
H220   H     0.11130   0.80626   0.08084   0.00000  Uiso   1.00
H221   H     0.38843   0.80630   0.08089   0.00000  Uiso   1.00
H222   H     0.11157   0.86037   0.25245   0.00000  Uiso   1.00
O223   O     0.45572   0.77531   0.02432   0.00000  Uiso   1.00
H224   H     0.43133   0.75461   0.03907   0.00000  Uiso   1.00
O225   O     0.04428   0.89135   0.30902   0.00000  Uiso   1.00
H226   H     0.06867   0.91206   0.29427   0.00000  Uiso   1.00
O227   O     0.45190   0.88395   0.31033   0.00000  Uiso   1.00
H228   H     0.47184   0.89447   0.00830   0.00000  Uiso   1.00
O229   O     0.04810   0.78271   0.02300   0.00000  Uiso   1.00
H230   H     0.02816   0.77220   0.32503   0.00000  Uiso   1.00
O231   O     0.75000   0.76280   0.21425   0.00000  Uiso   1.00
O232   O     0.75000   0.90387   0.11908   0.00000  Uiso   1.00
O233   O     0.75000   0.90387   0.21425   0.00000  Uiso   1.00
O234   O     0.75000   0.76280   0.11908   0.00000  Uiso   1.00
C235   C     0.75000   0.74000   0.16667   0.00000  Uiso   1.00
C236   C     0.75000   0.92666   0.16667   0.00000  Uiso   1.00
O237   O     0.68513   0.83333   0.21427   0.00000  Uiso   1.00
O238   O     0.81487   0.83333   0.11907   0.00000  Uiso   1.00
O239   O     0.81487   0.83333   0.21427   0.00000  Uiso   1.00
O240   O     0.68513   0.83333   0.11907   0.00000  Uiso   1.00
C241   C     0.66411   0.83343   0.16665   0.00000  Uiso   1.00
C242   C     0.83589   0.83323   0.16668   0.00000  Uiso   1.00
Cu243  Cu    0.75000   0.83333   0.22303   0.00000  Uiso   1.00
Cu244  Cu    0.75000   0.83333   0.11031   0.00000  Uiso   1.00
N245   N     0.75000   0.83333   0.02561   0.00000  Uiso   1.00
N246   N     0.75000   0.83333   0.30773   0.00000  Uiso   1.00
C247   C     0.90719   0.84805   0.21544   0.00000  Uiso   1.00
C248   C     0.59281   0.81862   0.11789   0.00000  Uiso   1.00
C249   C     0.90720   0.81685   0.11837   0.00000  Uiso   1.00
C250   C     0.59280   0.84981   0.21496   0.00000  Uiso   1.00
C251   C     0.88420   0.83271   0.16681   0.00000  Uiso   1.00
C252   C     0.61580   0.83395   0.16652   0.00000  Uiso   1.00
C253   C     0.95356   0.81479   0.11836   0.00000  Uiso   1.00
C254   C     0.54644   0.85188   0.21498   0.00000  Uiso   1.00
C255   C     0.95346   0.84926   0.21575   0.00000  Uiso   1.00
C256   C     0.54654   0.81741   0.11758   0.00000  Uiso   1.00
C257   C     0.97680   0.83269   0.16684   0.00000  Uiso   1.00
C258   C     0.52320   0.83398   0.16649   0.00000  Uiso   1.00
C259   C     0.97712   0.79632   0.07047   0.00000  Uiso   1.00
C260   C     0.52288   0.87035   0.26286   0.00000  Uiso   1.00
C261   C     0.97626   0.86756   0.26384   0.00000  Uiso   1.00
C262   C     0.52374   0.79911   0.06950   0.00000  Uiso   1.00
C263   C     0.75000   0.68845   0.16667   0.00000  Uiso   1.00
C264   C     0.75000   0.97821   0.16666   0.00000  Uiso   1.00
H265   H     0.88870   0.86041   0.25249   0.00000  Uiso   1.00
H266   H     0.61130   0.80626   0.08084   0.00000  Uiso   1.00
H267   H     0.88843   0.80630   0.08089   0.00000  Uiso   1.00
H268   H     0.61157   0.86037   0.25245   0.00000  Uiso   1.00
O269   O     0.95572   0.77531   0.02432   0.00000  Uiso   1.00
H270   H     0.93133   0.75461   0.03907   0.00000  Uiso   1.00
O271   O     0.54428   0.89135   0.30902   0.00000  Uiso   1.00
H272   H     0.56867   0.91206   0.29427   0.00000  Uiso   1.00
O273   O     0.95190   0.88395   0.31033   0.00000  Uiso   1.00
H274   H     0.97184   0.89447   0.00830   0.00000  Uiso   1.00
O275   O     0.54810   0.78271   0.02300   0.00000  Uiso   1.00
H276   H     0.52816   0.77220   0.32503   0.00000  Uiso   1.00
O277   O     0.25000   0.09613   0.54759   0.00000  Uiso   1.00
O278   O     0.25000   0.23720   0.45241   0.00000  Uiso   1.00
O279   O     0.25000   0.23720   0.54759   0.00000  Uiso   1.00
O280   O     0.25000   0.09613   0.45241   0.00000  Uiso   1.00
C281   C     0.25000   0.07334   0.50000   0.00000  Uiso   1.00
C282   C     0.25000   0.26000   0.50000   0.00000  Uiso   1.00
O283   O     0.18513   0.16667   0.54760   0.00000  Uiso   1.00
O284   O     0.31487   0.16667   0.45240   0.00000  Uiso   1.00
O285   O     0.31487   0.16667   0.54760   0.00000  Uiso   1.00
O286   O     0.18513   0.16667   0.45240   0.00000  Uiso   1.00
C287   C     0.16411   0.16677   0.49998   0.00000  Uiso   1.00
C288   C     0.33589   0.16656   0.50002   0.00000  Uiso   1.00
Cu289  Cu    0.25000   0.16667   0.55636   0.00000  Uiso   1.00
Cu290  Cu    0.25000   0.16667   0.44364   0.00000  Uiso   1.00
N291   N     0.25000   0.16667   0.35894   0.00000  Uiso   1.00
N292   N     0.25000   0.16667   0.64106   0.00000  Uiso   1.00
C293   C     0.40719   0.18138   0.54878   0.00000  Uiso   1.00
C294   C     0.09281   0.15195   0.45122   0.00000  Uiso   1.00
C295   C     0.40720   0.15019   0.45171   0.00000  Uiso   1.00
C296   C     0.09280   0.18315   0.54829   0.00000  Uiso   1.00
C297   C     0.38420   0.16605   0.50014   0.00000  Uiso   1.00
C298   C     0.11580   0.16729   0.49986   0.00000  Uiso   1.00
C299   C     0.45356   0.14812   0.45169   0.00000  Uiso   1.00
C300   C     0.04644   0.18521   0.54831   0.00000  Uiso   1.00
C301   C     0.45346   0.18259   0.54908   0.00000  Uiso   1.00
C302   C     0.04654   0.15074   0.45092   0.00000  Uiso   1.00
C303   C     0.47680   0.16602   0.50018   0.00000  Uiso   1.00
C304   C     0.02320   0.16731   0.49982   0.00000  Uiso   1.00
C305   C     0.47712   0.12965   0.40381   0.00000  Uiso   1.00
C306   C     0.02288   0.20368   0.59619   0.00000  Uiso   1.00
C307   C     0.47626   0.20089   0.59717   0.00000  Uiso   1.00
C308   C     0.02374   0.13244   0.40283   0.00000  Uiso   1.00
C309   C     0.25000   0.02179   0.50000   0.00000  Uiso   1.00
C310   C     0.25000   0.31155   0.50000   0.00000  Uiso   1.00
H311   H     0.38870   0.19374   0.58583   0.00000  Uiso   1.00
H312   H     0.11130   0.13959   0.41417   0.00000  Uiso   1.00
H313   H     0.38843   0.13963   0.41422   0.00000  Uiso   1.00
H314   H     0.11157   0.19370   0.58578   0.00000  Uiso   1.00
O315   O     0.45572   0.10865   0.35765   0.00000  Uiso   1.00
H316   H     0.43133   0.08794   0.37240   0.00000  Uiso   1.00
O317   O     0.04428   0.22469   0.64235   0.00000  Uiso   1.00
H318   H     0.06867   0.24539   0.62760   0.00000  Uiso   1.00
O319   O     0.45190   0.21729   0.64367   0.00000  Uiso   1.00
H320   H     0.47184   0.22780   0.34163   0.00000  Uiso   1.00
O321   O     0.04810   0.11605   0.35633   0.00000  Uiso   1.00
H322   H     0.02816   0.10553   0.65837   0.00000  Uiso   1.00
O323   O     0.75000   0.09613   0.54759   0.00000  Uiso   1.00
O324   O     0.75000   0.23720   0.45241   0.00000  Uiso   1.00
O325   O     0.75000   0.23720   0.54759   0.00000  Uiso   1.00
O326   O     0.75000   0.09613   0.45241   0.00000  Uiso   1.00
C327   C     0.75000   0.07334   0.50000   0.00000  Uiso   1.00
C328   C     0.75000   0.26000   0.50000   0.00000  Uiso   1.00
O329   O     0.68513   0.16667   0.54760   0.00000  Uiso   1.00
O330   O     0.81487   0.16667   0.45240   0.00000  Uiso   1.00
O331   O     0.81487   0.16667   0.54760   0.00000  Uiso   1.00
O332   O     0.68513   0.16667   0.45240   0.00000  Uiso   1.00
C333   C     0.66411   0.16677   0.49998   0.00000  Uiso   1.00
C334   C     0.83589   0.16656   0.50002   0.00000  Uiso   1.00
Cu335  Cu    0.75000   0.16667   0.55636   0.00000  Uiso   1.00
Cu336  Cu    0.75000   0.16667   0.44364   0.00000  Uiso   1.00
N337   N     0.75000   0.16667   0.35894   0.00000  Uiso   1.00
N338   N     0.75000   0.16667   0.64106   0.00000  Uiso   1.00
C339   C     0.90719   0.18138   0.54878   0.00000  Uiso   1.00
C340   C     0.59281   0.15195   0.45122   0.00000  Uiso   1.00
C341   C     0.90720   0.15019   0.45171   0.00000  Uiso   1.00
C342   C     0.59280   0.18315   0.54829   0.00000  Uiso   1.00
C343   C     0.88420   0.16605   0.50014   0.00000  Uiso   1.00
C344   C     0.61580   0.16729   0.49986   0.00000  Uiso   1.00
C345   C     0.95356   0.14812   0.45169   0.00000  Uiso   1.00
C346   C     0.54644   0.18521   0.54831   0.00000  Uiso   1.00
C347   C     0.95346   0.18259   0.54908   0.00000  Uiso   1.00
C348   C     0.54654   0.15074   0.45092   0.00000  Uiso   1.00
C349   C     0.97680   0.16602   0.50018   0.00000  Uiso   1.00
C350   C     0.52320   0.16731   0.49982   0.00000  Uiso   1.00
C351   C     0.97712   0.12965   0.40381   0.00000  Uiso   1.00
C352   C     0.52288   0.20368   0.59619   0.00000  Uiso   1.00
C353   C     0.97626   0.20089   0.59717   0.00000  Uiso   1.00
C354   C     0.52374   0.13244   0.40283   0.00000  Uiso   1.00
C355   C     0.75000   0.02179   0.50000   0.00000  Uiso   1.00
C356   C     0.75000   0.31155   0.50000   0.00000  Uiso   1.00
H357   H     0.88870   0.19374   0.58583   0.00000  Uiso   1.00
H358   H     0.61130   0.13959   0.41417   0.00000  Uiso   1.00
H359   H     0.88843   0.13963   0.41422   0.00000  Uiso   1.00
H360   H     0.61157   0.19370   0.58578   0.00000  Uiso   1.00
O361   O     0.95572   0.10865   0.35765   0.00000  Uiso   1.00
H362   H     0.93133   0.08794   0.37240   0.00000  Uiso   1.00
O363   O     0.54428   0.22469   0.64235   0.00000  Uiso   1.00
H364   H     0.56867   0.24539   0.62760   0.00000  Uiso   1.00
O365   O     0.95190   0.21729   0.64367   0.00000  Uiso   1.00
H366   H     0.97184   0.22780   0.34163   0.00000  Uiso   1.00
O367   O     0.54810   0.11605   0.35633   0.00000  Uiso   1.00
H368   H     0.52816   0.10553   0.65837   0.00000  Uiso   1.00
O369   O     0.25000   0.42946   0.54759   0.00000  Uiso   1.00
O370   O     0.25000   0.57054   0.45241   0.00000  Uiso   1.00
O371   O     0.25000   0.57054   0.54759   0.00000  Uiso   1.00
O372   O     0.25000   0.42946   0.45241   0.00000  Uiso   1.00
C373   C     0.25000   0.40667   0.50000   0.00000  Uiso   1.00
C374   C     0.25000   0.59333   0.50000   0.00000  Uiso   1.00
O375   O     0.18513   0.50000   0.54760   0.00000  Uiso   1.00
O376   O     0.31487   0.50000   0.45240   0.00000  Uiso   1.00
O377   O     0.31487   0.50000   0.54760   0.00000  Uiso   1.00
O378   O     0.18513   0.50000   0.45240   0.00000  Uiso   1.00
C379   C     0.16411   0.50010   0.49998   0.00000  Uiso   1.00
C380   C     0.33589   0.49990   0.50002   0.00000  Uiso   1.00
Cu381  Cu    0.25000   0.50000   0.55636   0.00000  Uiso   1.00
Cu382  Cu    0.25000   0.50000   0.44364   0.00000  Uiso   1.00
N383   N     0.25000   0.50000   0.35894   0.00000  Uiso   1.00
N384   N     0.25000   0.50000   0.64106   0.00000  Uiso   1.00
C385   C     0.40719   0.51471   0.54878   0.00000  Uiso   1.00
C386   C     0.09281   0.48529   0.45122   0.00000  Uiso   1.00
C387   C     0.40720   0.48352   0.45171   0.00000  Uiso   1.00
C388   C     0.09280   0.51648   0.54829   0.00000  Uiso   1.00
C389   C     0.38420   0.49938   0.50014   0.00000  Uiso   1.00
C390   C     0.11580   0.50062   0.49986   0.00000  Uiso   1.00
C391   C     0.45356   0.48145   0.45169   0.00000  Uiso   1.00
C392   C     0.04644   0.51855   0.54831   0.00000  Uiso   1.00
C393   C     0.45346   0.51592   0.54908   0.00000  Uiso   1.00
C394   C     0.04654   0.48408   0.45092   0.00000  Uiso   1.00
C395   C     0.47680   0.49936   0.50018   0.00000  Uiso   1.00
C396   C     0.02320   0.50064   0.49982   0.00000  Uiso   1.00
C397   C     0.47712   0.46298   0.40381   0.00000  Uiso   1.00
C398   C     0.02288   0.53702   0.59619   0.00000  Uiso   1.00
C399   C     0.47626   0.53423   0.59717   0.00000  Uiso   1.00
C400   C     0.02374   0.46577   0.40283   0.00000  Uiso   1.00
C401   C     0.25000   0.35512   0.50000   0.00000  Uiso   1.00
C402   C     0.25000   0.64488   0.50000   0.00000  Uiso   1.00
H403   H     0.38870   0.52708   0.58583   0.00000  Uiso   1.00
H404   H     0.11130   0.47293   0.41417   0.00000  Uiso   1.00
H405   H     0.38843   0.47297   0.41422   0.00000  Uiso   1.00
H406   H     0.11157   0.52703   0.58578   0.00000  Uiso   1.00
O407   O     0.45572   0.44198   0.35765   0.00000  Uiso   1.00
H408   H     0.43133   0.42128   0.37240   0.00000  Uiso   1.00
O409   O     0.04428   0.55802   0.64235   0.00000  Uiso   1.00
H410   H     0.06867   0.57872   0.62760   0.00000  Uiso   1.00
O411   O     0.45190   0.55062   0.64367   0.00000  Uiso   1.00
H412   H     0.47184   0.56113   0.34163   0.00000  Uiso   1.00
O413   O     0.04810   0.44938   0.35633   0.00000  Uiso   1.00
H414   H     0.02816   0.43886   0.65837   0.00000  Uiso   1.00
O415   O     0.75000   0.42946   0.54759   0.00000  Uiso   1.00
O416   O     0.75000   0.57054   0.45241   0.00000  Uiso   1.00
O417   O     0.75000   0.57054   0.54759   0.00000  Uiso   1.00
O418   O     0.75000   0.42946   0.45241   0.00000  Uiso   1.00
C419   C     0.75000   0.40667   0.50000   0.00000  Uiso   1.00
C420   C     0.75000   0.59333   0.50000   0.00000  Uiso   1.00
O421   O     0.68513   0.50000   0.54760   0.00000  Uiso   1.00
O422   O     0.81487   0.50000   0.45240   0.00000  Uiso   1.00
O423   O     0.81487   0.50000   0.54760   0.00000  Uiso   1.00
O424   O     0.68513   0.50000   0.45240   0.00000  Uiso   1.00
C425   C     0.66411   0.50010   0.49998   0.00000  Uiso   1.00
C426   C     0.83589   0.49990   0.50002   0.00000  Uiso   1.00
Cu427  Cu    0.75000   0.50000   0.55636   0.00000  Uiso   1.00
Cu428  Cu    0.75000   0.50000   0.44364   0.00000  Uiso   1.00
N429   N     0.75000   0.50000   0.35894   0.00000  Uiso   1.00
N430   N     0.75000   0.50000   0.64106   0.00000  Uiso   1.00
C431   C     0.90719   0.51471   0.54878   0.00000  Uiso   1.00
C432   C     0.59281   0.48529   0.45122   0.00000  Uiso   1.00
C433   C     0.90720   0.48352   0.45171   0.00000  Uiso   1.00
C434   C     0.59280   0.51648   0.54829   0.00000  Uiso   1.00
C435   C     0.88420   0.49938   0.50014   0.00000  Uiso   1.00
C436   C     0.61580   0.50062   0.49986   0.00000  Uiso   1.00
C437   C     0.95356   0.48145   0.45169   0.00000  Uiso   1.00
C438   C     0.54644   0.51855   0.54831   0.00000  Uiso   1.00
C439   C     0.95346   0.51592   0.54908   0.00000  Uiso   1.00
C440   C     0.54654   0.48408   0.45092   0.00000  Uiso   1.00
C441   C     0.97680   0.49936   0.50018   0.00000  Uiso   1.00
C442   C     0.52320   0.50064   0.49982   0.00000  Uiso   1.00
C443   C     0.97712   0.46298   0.40381   0.00000  Uiso   1.00
C444   C     0.52288   0.53702   0.59619   0.00000  Uiso   1.00
C445   C     0.97626   0.53423   0.59717   0.00000  Uiso   1.00
C446   C     0.52374   0.46577   0.40283   0.00000  Uiso   1.00
C447   C     0.75000   0.35512   0.50000   0.00000  Uiso   1.00
C448   C     0.75000   0.64488   0.50000   0.00000  Uiso   1.00
H449   H     0.88870   0.52708   0.58583   0.00000  Uiso   1.00
H450   H     0.61130   0.47293   0.41417   0.00000  Uiso   1.00
H451   H     0.88843   0.47297   0.41422   0.00000  Uiso   1.00
H452   H     0.61157   0.52703   0.58578   0.00000  Uiso   1.00
O453   O     0.95572   0.44198   0.35765   0.00000  Uiso   1.00
H454   H     0.93133   0.42128   0.37240   0.00000  Uiso   1.00
O455   O     0.54428   0.55802   0.64235   0.00000  Uiso   1.00
H456   H     0.56867   0.57872   0.62760   0.00000  Uiso   1.00
O457   O     0.95190   0.55062   0.64367   0.00000  Uiso   1.00
H458   H     0.97184   0.56113   0.34163   0.00000  Uiso   1.00
O459   O     0.54810   0.44938   0.35633   0.00000  Uiso   1.00
H460   H     0.52816   0.43886   0.65837   0.00000  Uiso   1.00
O461   O     0.25000   0.76280   0.54759   0.00000  Uiso   1.00
O462   O     0.25000   0.90387   0.45241   0.00000  Uiso   1.00
O463   O     0.25000   0.90387   0.54759   0.00000  Uiso   1.00
O464   O     0.25000   0.76280   0.45241   0.00000  Uiso   1.00
C465   C     0.25000   0.74000   0.50000   0.00000  Uiso   1.00
C466   C     0.25000   0.92666   0.50000   0.00000  Uiso   1.00
O467   O     0.18513   0.83333   0.54760   0.00000  Uiso   1.00
O468   O     0.31487   0.83333   0.45240   0.00000  Uiso   1.00
O469   O     0.31487   0.83333   0.54760   0.00000  Uiso   1.00
O470   O     0.18513   0.83333   0.45240   0.00000  Uiso   1.00
C471   C     0.16411   0.83343   0.49998   0.00000  Uiso   1.00
C472   C     0.33589   0.83323   0.50002   0.00000  Uiso   1.00
Cu473  Cu    0.25000   0.83333   0.55636   0.00000  Uiso   1.00
Cu474  Cu    0.25000   0.83333   0.44364   0.00000  Uiso   1.00
N475   N     0.25000   0.83333   0.35894   0.00000  Uiso   1.00
N476   N     0.25000   0.83333   0.64106   0.00000  Uiso   1.00
C477   C     0.40719   0.84805   0.54878   0.00000  Uiso   1.00
C478   C     0.09281   0.81862   0.45122   0.00000  Uiso   1.00
C479   C     0.40720   0.81685   0.45171   0.00000  Uiso   1.00
C480   C     0.09280   0.84981   0.54829   0.00000  Uiso   1.00
C481   C     0.38420   0.83271   0.50014   0.00000  Uiso   1.00
C482   C     0.11580   0.83395   0.49986   0.00000  Uiso   1.00
C483   C     0.45356   0.81479   0.45169   0.00000  Uiso   1.00
C484   C     0.04644   0.85188   0.54831   0.00000  Uiso   1.00
C485   C     0.45346   0.84926   0.54908   0.00000  Uiso   1.00
C486   C     0.04654   0.81741   0.45092   0.00000  Uiso   1.00
C487   C     0.47680   0.83269   0.50018   0.00000  Uiso   1.00
C488   C     0.02320   0.83398   0.49982   0.00000  Uiso   1.00
C489   C     0.47712   0.79632   0.40381   0.00000  Uiso   1.00
C490   C     0.02288   0.87035   0.59619   0.00000  Uiso   1.00
C491   C     0.47626   0.86756   0.59717   0.00000  Uiso   1.00
C492   C     0.02374   0.79911   0.40283   0.00000  Uiso   1.00
C493   C     0.25000   0.68845   0.50000   0.00000  Uiso   1.00
C494   C     0.25000   0.97821   0.50000   0.00000  Uiso   1.00
H495   H     0.38870   0.86041   0.58583   0.00000  Uiso   1.00
H496   H     0.11130   0.80626   0.41417   0.00000  Uiso   1.00
H497   H     0.38843   0.80630   0.41422   0.00000  Uiso   1.00
H498   H     0.11157   0.86037   0.58578   0.00000  Uiso   1.00
O499   O     0.45572   0.77531   0.35765   0.00000  Uiso   1.00
H500   H     0.43133   0.75461   0.37240   0.00000  Uiso   1.00
O501   O     0.04428   0.89135   0.64235   0.00000  Uiso   1.00
H502   H     0.06867   0.91206   0.62760   0.00000  Uiso   1.00
O503   O     0.45190   0.88395   0.64367   0.00000  Uiso   1.00
H504   H     0.47184   0.89447   0.34163   0.00000  Uiso   1.00
O505   O     0.04810   0.78271   0.35633   0.00000  Uiso   1.00
H506   H     0.02816   0.77220   0.65837   0.00000  Uiso   1.00
O507   O     0.75000   0.76280   0.54759   0.00000  Uiso   1.00
O508   O     0.75000   0.90387   0.45241   0.00000  Uiso   1.00
O509   O     0.75000   0.90387   0.54759   0.00000  Uiso   1.00
O510   O     0.75000   0.76280   0.45241   0.00000  Uiso   1.00
C511   C     0.75000   0.74000   0.50000   0.00000  Uiso   1.00
C512   C     0.75000   0.92666   0.50000   0.00000  Uiso   1.00
O513   O     0.68513   0.83333   0.54760   0.00000  Uiso   1.00
O514   O     0.81487   0.83333   0.45240   0.00000  Uiso   1.00
O515   O     0.81487   0.83333   0.54760   0.00000  Uiso   1.00
O516   O     0.68513   0.83333   0.45240   0.00000  Uiso   1.00
C517   C     0.66411   0.83343   0.49998   0.00000  Uiso   1.00
C518   C     0.83589   0.83323   0.50002   0.00000  Uiso   1.00
Cu519  Cu    0.75000   0.83333   0.55636   0.00000  Uiso   1.00
Cu520  Cu    0.75000   0.83333   0.44364   0.00000  Uiso   1.00
N521   N     0.75000   0.83333   0.35894   0.00000  Uiso   1.00
N522   N     0.75000   0.83333   0.64106   0.00000  Uiso   1.00
C523   C     0.90719   0.84805   0.54878   0.00000  Uiso   1.00
C524   C     0.59281   0.81862   0.45122   0.00000  Uiso   1.00
C525   C     0.90720   0.81685   0.45171   0.00000  Uiso   1.00
C526   C     0.59280   0.84981   0.54829   0.00000  Uiso   1.00
C527   C     0.88420   0.83271   0.50014   0.00000  Uiso   1.00
C528   C     0.61580   0.83395   0.49986   0.00000  Uiso   1.00
C529   C     0.95356   0.81479   0.45169   0.00000  Uiso   1.00
C530   C     0.54644   0.85188   0.54831   0.00000  Uiso   1.00
C531   C     0.95346   0.84926   0.54908   0.00000  Uiso   1.00
C532   C     0.54654   0.81741   0.45092   0.00000  Uiso   1.00
C533   C     0.97680   0.83269   0.50018   0.00000  Uiso   1.00
C534   C     0.52320   0.83398   0.49982   0.00000  Uiso   1.00
C535   C     0.97712   0.79632   0.40381   0.00000  Uiso   1.00
C536   C     0.52288   0.87035   0.59619   0.00000  Uiso   1.00
C537   C     0.97626   0.86756   0.59717   0.00000  Uiso   1.00
C538   C     0.52374   0.79911   0.40283   0.00000  Uiso   1.00
C539   C     0.75000   0.68845   0.50000   0.00000  Uiso   1.00
C540   C     0.75000   0.97821   0.50000   0.00000  Uiso   1.00
H541   H     0.88870   0.86041   0.58583   0.00000  Uiso   1.00
H542   H     0.61130   0.80626   0.41417   0.00000  Uiso   1.00
H543   H     0.88843   0.80630   0.41422   0.00000  Uiso   1.00
H544   H     0.61157   0.86037   0.58578   0.00000  Uiso   1.00
O545   O     0.95572   0.77531   0.35765   0.00000  Uiso   1.00
H546   H     0.93133   0.75461   0.37240   0.00000  Uiso   1.00
O547   O     0.54428   0.89135   0.64235   0.00000  Uiso   1.00
H548   H     0.56867   0.91206   0.62760   0.00000  Uiso   1.00
O549   O     0.95190   0.88395   0.64367   0.00000  Uiso   1.00
H550   H     0.97184   0.89447   0.34163   0.00000  Uiso   1.00
O551   O     0.54810   0.78271   0.35633   0.00000  Uiso   1.00
H552   H     0.52816   0.77220   0.65837   0.00000  Uiso   1.00
O553   O     0.25000   0.09613   0.88092   0.00000  Uiso   1.00
O554   O     0.25000   0.23720   0.78575   0.00000  Uiso   1.00
O555   O     0.25000   0.23720   0.88092   0.00000  Uiso   1.00
O556   O     0.25000   0.09613   0.78575   0.00000  Uiso   1.00
C557   C     0.25000   0.07334   0.83334   0.00000  Uiso   1.00
C558   C     0.25000   0.26000   0.83333   0.00000  Uiso   1.00
O559   O     0.18513   0.16667   0.88093   0.00000  Uiso   1.00
O560   O     0.31487   0.16667   0.78573   0.00000  Uiso   1.00
O561   O     0.31487   0.16667   0.88093   0.00000  Uiso   1.00
O562   O     0.18513   0.16667   0.78573   0.00000  Uiso   1.00
C563   C     0.16411   0.16677   0.83332   0.00000  Uiso   1.00
C564   C     0.33589   0.16656   0.83335   0.00000  Uiso   1.00
Cu565  Cu    0.25000   0.16667   0.88969   0.00000  Uiso   1.00
Cu566  Cu    0.25000   0.16667   0.77697   0.00000  Uiso   1.00
N567   N     0.25000   0.16667   0.69227   0.00000  Uiso   1.00
N568   N     0.25000   0.16667   0.97439   0.00000  Uiso   1.00
C569   C     0.40719   0.18138   0.88211   0.00000  Uiso   1.00
C570   C     0.09281   0.15195   0.78456   0.00000  Uiso   1.00
C571   C     0.40720   0.15019   0.78504   0.00000  Uiso   1.00
C572   C     0.09280   0.18315   0.88163   0.00000  Uiso   1.00
C573   C     0.38420   0.16605   0.83348   0.00000  Uiso   1.00
C574   C     0.11580   0.16729   0.83319   0.00000  Uiso   1.00
C575   C     0.45356   0.14812   0.78502   0.00000  Uiso   1.00
C576   C     0.04644   0.18521   0.88164   0.00000  Uiso   1.00
C577   C     0.45346   0.18259   0.88241   0.00000  Uiso   1.00
C578   C     0.04654   0.15074   0.78425   0.00000  Uiso   1.00
C579   C     0.47680   0.16602   0.83351   0.00000  Uiso   1.00
C580   C     0.02320   0.16731   0.83316   0.00000  Uiso   1.00
C581   C     0.47712   0.12965   0.73714   0.00000  Uiso   1.00
C582   C     0.02288   0.20368   0.92952   0.00000  Uiso   1.00
C583   C     0.47626   0.20089   0.93050   0.00000  Uiso   1.00
C584   C     0.02374   0.13244   0.73616   0.00000  Uiso   1.00
C585   C     0.25000   0.02179   0.83334   0.00000  Uiso   1.00
C586   C     0.25000   0.31155   0.83333   0.00000  Uiso   1.00
H587   H     0.38870   0.19374   0.91916   0.00000  Uiso   1.00
H588   H     0.11130   0.13959   0.74751   0.00000  Uiso   1.00
H589   H     0.38843   0.13963   0.74755   0.00000  Uiso   1.00
H590   H     0.11157   0.19370   0.91912   0.00000  Uiso   1.00
O591   O     0.45572   0.10865   0.69098   0.00000  Uiso   1.00
H592   H     0.43133   0.08794   0.70573   0.00000  Uiso   1.00
O593   O     0.04428   0.22469   0.97568   0.00000  Uiso   1.00
H594   H     0.06867   0.24539   0.96093   0.00000  Uiso   1.00
O595   O     0.45190   0.21729   0.97700   0.00000  Uiso   1.00
H596   H     0.47184   0.22780   0.67497   0.00000  Uiso   1.00
O597   O     0.04810   0.11605   0.68967   0.00000  Uiso   1.00
H598   H     0.02816   0.10553   0.99170   0.00000  Uiso   1.00
O599   O     0.75000   0.09613   0.88092   0.00000  Uiso   1.00
O600   O     0.75000   0.23720   0.78575   0.00000  Uiso   1.00
O601   O     0.75000   0.23720   0.88092   0.00000  Uiso   1.00
O602   O     0.75000   0.09613   0.78575   0.00000  Uiso   1.00
C603   C     0.75000   0.07334   0.83334   0.00000  Uiso   1.00
C604   C     0.75000   0.26000   0.83333   0.00000  Uiso   1.00
O605   O     0.68513   0.16667   0.88093   0.00000  Uiso   1.00
O606   O     0.81487   0.16667   0.78573   0.00000  Uiso   1.00
O607   O     0.81487   0.16667   0.88093   0.00000  Uiso   1.00
O608   O     0.68513   0.16667   0.78573   0.00000  Uiso   1.00
C609   C     0.66411   0.16677   0.83332   0.00000  Uiso   1.00
C610   C     0.83589   0.16656   0.83335   0.00000  Uiso   1.00
Cu611  Cu    0.75000   0.16667   0.88969   0.00000  Uiso   1.00
Cu612  Cu    0.75000   0.16667   0.77697   0.00000  Uiso   1.00
N613   N     0.75000   0.16667   0.69227   0.00000  Uiso   1.00
N614   N     0.75000   0.16667   0.97439   0.00000  Uiso   1.00
C615   C     0.90719   0.18138   0.88211   0.00000  Uiso   1.00
C616   C     0.59281   0.15195   0.78456   0.00000  Uiso   1.00
C617   C     0.90720   0.15019   0.78504   0.00000  Uiso   1.00
C618   C     0.59280   0.18315   0.88163   0.00000  Uiso   1.00
C619   C     0.88420   0.16605   0.83348   0.00000  Uiso   1.00
C620   C     0.61580   0.16729   0.83319   0.00000  Uiso   1.00
C621   C     0.95356   0.14812   0.78502   0.00000  Uiso   1.00
C622   C     0.54644   0.18521   0.88164   0.00000  Uiso   1.00
C623   C     0.95346   0.18259   0.88241   0.00000  Uiso   1.00
C624   C     0.54654   0.15074   0.78425   0.00000  Uiso   1.00
C625   C     0.97680   0.16602   0.83351   0.00000  Uiso   1.00
C626   C     0.52320   0.16731   0.83316   0.00000  Uiso   1.00
C627   C     0.97712   0.12965   0.73714   0.00000  Uiso   1.00
C628   C     0.52288   0.20368   0.92952   0.00000  Uiso   1.00
C629   C     0.97626   0.20089   0.93050   0.00000  Uiso   1.00
C630   C     0.52374   0.13244   0.73616   0.00000  Uiso   1.00
C631   C     0.75000   0.02179   0.83334   0.00000  Uiso   1.00
C632   C     0.75000   0.31155   0.83333   0.00000  Uiso   1.00
H633   H     0.88870   0.19374   0.91916   0.00000  Uiso   1.00
H634   H     0.61130   0.13959   0.74751   0.00000  Uiso   1.00
H635   H     0.88843   0.13963   0.74755   0.00000  Uiso   1.00
H636   H     0.61157   0.19370   0.91912   0.00000  Uiso   1.00
O637   O     0.95572   0.10865   0.69098   0.00000  Uiso   1.00
H638   H     0.93133   0.08794   0.70573   0.00000  Uiso   1.00
O639   O     0.54428   0.22469   0.97568   0.00000  Uiso   1.00
H640   H     0.56867   0.24539   0.96093   0.00000  Uiso   1.00
O641   O     0.95190   0.21729   0.97700   0.00000  Uiso   1.00
H642   H     0.97184   0.22780   0.67497   0.00000  Uiso   1.00
O643   O     0.54810   0.11605   0.68967   0.00000  Uiso   1.00
H644   H     0.52816   0.10553   0.99170   0.00000  Uiso   1.00
O645   O     0.25000   0.42946   0.88092   0.00000  Uiso   1.00
O646   O     0.25000   0.57054   0.78575   0.00000  Uiso   1.00
O647   O     0.25000   0.57054   0.88092   0.00000  Uiso   1.00
O648   O     0.25000   0.42946   0.78575   0.00000  Uiso   1.00
C649   C     0.25000   0.40667   0.83334   0.00000  Uiso   1.00
C650   C     0.25000   0.59333   0.83333   0.00000  Uiso   1.00
O651   O     0.18513   0.50000   0.88093   0.00000  Uiso   1.00
O652   O     0.31487   0.50000   0.78573   0.00000  Uiso   1.00
O653   O     0.31487   0.50000   0.88093   0.00000  Uiso   1.00
O654   O     0.18513   0.50000   0.78573   0.00000  Uiso   1.00
C655   C     0.16411   0.50010   0.83332   0.00000  Uiso   1.00
C656   C     0.33589   0.49990   0.83335   0.00000  Uiso   1.00
Cu657  Cu    0.25000   0.50000   0.88969   0.00000  Uiso   1.00
Cu658  Cu    0.25000   0.50000   0.77697   0.00000  Uiso   1.00
N659   N     0.25000   0.50000   0.69227   0.00000  Uiso   1.00
N660   N     0.25000   0.50000   0.97439   0.00000  Uiso   1.00
C661   C     0.40719   0.51471   0.88211   0.00000  Uiso   1.00
C662   C     0.09281   0.48529   0.78456   0.00000  Uiso   1.00
C663   C     0.40720   0.48352   0.78504   0.00000  Uiso   1.00
C664   C     0.09280   0.51648   0.88163   0.00000  Uiso   1.00
C665   C     0.38420   0.49938   0.83348   0.00000  Uiso   1.00
C666   C     0.11580   0.50062   0.83319   0.00000  Uiso   1.00
C667   C     0.45356   0.48145   0.78502   0.00000  Uiso   1.00
C668   C     0.04644   0.51855   0.88164   0.00000  Uiso   1.00
C669   C     0.45346   0.51592   0.88241   0.00000  Uiso   1.00
C670   C     0.04654   0.48408   0.78425   0.00000  Uiso   1.00
C671   C     0.47680   0.49936   0.83351   0.00000  Uiso   1.00
C672   C     0.02320   0.50064   0.83316   0.00000  Uiso   1.00
C673   C     0.47712   0.46298   0.73714   0.00000  Uiso   1.00
C674   C     0.02288   0.53702   0.92952   0.00000  Uiso   1.00
C675   C     0.47626   0.53423   0.93050   0.00000  Uiso   1.00
C676   C     0.02374   0.46577   0.73616   0.00000  Uiso   1.00
C677   C     0.25000   0.35512   0.83334   0.00000  Uiso   1.00
C678   C     0.25000   0.64488   0.83333   0.00000  Uiso   1.00
H679   H     0.38870   0.52708   0.91916   0.00000  Uiso   1.00
H680   H     0.11130   0.47293   0.74751   0.00000  Uiso   1.00
H681   H     0.38843   0.47297   0.74755   0.00000  Uiso   1.00
H682   H     0.11157   0.52703   0.91912   0.00000  Uiso   1.00
O683   O     0.45572   0.44198   0.69098   0.00000  Uiso   1.00
H684   H     0.43133   0.42128   0.70573   0.00000  Uiso   1.00
O685   O     0.04428   0.55802   0.97568   0.00000  Uiso   1.00
H686   H     0.06867   0.57872   0.96093   0.00000  Uiso   1.00
O687   O     0.45190   0.55062   0.97700   0.00000  Uiso   1.00
H688   H     0.47184   0.56113   0.67497   0.00000  Uiso   1.00
O689   O     0.04810   0.44938   0.68967   0.00000  Uiso   1.00
H690   H     0.02816   0.43886   0.99170   0.00000  Uiso   1.00
O691   O     0.75000   0.42946   0.88092   0.00000  Uiso   1.00
O692   O     0.75000   0.57054   0.78575   0.00000  Uiso   1.00
O693   O     0.75000   0.57054   0.88092   0.00000  Uiso   1.00
O694   O     0.75000   0.42946   0.78575   0.00000  Uiso   1.00
C695   C     0.75000   0.40667   0.83334   0.00000  Uiso   1.00
C696   C     0.75000   0.59333   0.83333   0.00000  Uiso   1.00
O697   O     0.68513   0.50000   0.88093   0.00000  Uiso   1.00
O698   O     0.81487   0.50000   0.78573   0.00000  Uiso   1.00
O699   O     0.81487   0.50000   0.88093   0.00000  Uiso   1.00
O700   O     0.68513   0.50000   0.78573   0.00000  Uiso   1.00
C701   C     0.66411   0.50010   0.83332   0.00000  Uiso   1.00
C702   C     0.83589   0.49990   0.83335   0.00000  Uiso   1.00
Cu703  Cu    0.75000   0.50000   0.88969   0.00000  Uiso   1.00
Cu704  Cu    0.75000   0.50000   0.77697   0.00000  Uiso   1.00
N705   N     0.75000   0.50000   0.69227   0.00000  Uiso   1.00
N706   N     0.75000   0.50000   0.97439   0.00000  Uiso   1.00
C707   C     0.90719   0.51471   0.88211   0.00000  Uiso   1.00
C708   C     0.59281   0.48529   0.78456   0.00000  Uiso   1.00
C709   C     0.90720   0.48352   0.78504   0.00000  Uiso   1.00
C710   C     0.59280   0.51648   0.88163   0.00000  Uiso   1.00
C711   C     0.88420   0.49938   0.83348   0.00000  Uiso   1.00
C712   C     0.61580   0.50062   0.83319   0.00000  Uiso   1.00
C713   C     0.95356   0.48145   0.78502   0.00000  Uiso   1.00
C714   C     0.54644   0.51855   0.88164   0.00000  Uiso   1.00
C715   C     0.95346   0.51592   0.88241   0.00000  Uiso   1.00
C716   C     0.54654   0.48408   0.78425   0.00000  Uiso   1.00
C717   C     0.97680   0.49936   0.83351   0.00000  Uiso   1.00
C718   C     0.52320   0.50064   0.83316   0.00000  Uiso   1.00
C719   C     0.97712   0.46298   0.73714   0.00000  Uiso   1.00
C720   C     0.52288   0.53702   0.92952   0.00000  Uiso   1.00
C721   C     0.97626   0.53423   0.93050   0.00000  Uiso   1.00
C722   C     0.52374   0.46577   0.73616   0.00000  Uiso   1.00
C723   C     0.75000   0.35512   0.83334   0.00000  Uiso   1.00
C724   C     0.75000   0.64488   0.83333   0.00000  Uiso   1.00
H725   H     0.88870   0.52708   0.91916   0.00000  Uiso   1.00
H726   H     0.61130   0.47293   0.74751   0.00000  Uiso   1.00
H727   H     0.88843   0.47297   0.74755   0.00000  Uiso   1.00
H728   H     0.61157   0.52703   0.91912   0.00000  Uiso   1.00
O729   O     0.95572   0.44198   0.69098   0.00000  Uiso   1.00
H730   H     0.93133   0.42128   0.70573   0.00000  Uiso   1.00
O731   O     0.54428   0.55802   0.97568   0.00000  Uiso   1.00
H732   H     0.56867   0.57872   0.96093   0.00000  Uiso   1.00
O733   O     0.95190   0.55062   0.97700   0.00000  Uiso   1.00
H734   H     0.97184   0.56113   0.67497   0.00000  Uiso   1.00
O735   O     0.54810   0.44938   0.68967   0.00000  Uiso   1.00
H736   H     0.52816   0.43886   0.99170   0.00000  Uiso   1.00
O737   O     0.25000   0.76280   0.88092   0.00000  Uiso   1.00
O738   O     0.25000   0.90387   0.78575   0.00000  Uiso   1.00
O739   O     0.25000   0.90387   0.88092   0.00000  Uiso   1.00
O740   O     0.25000   0.76280   0.78575   0.00000  Uiso   1.00
C741   C     0.25000   0.74000   0.83334   0.00000  Uiso   1.00
C742   C     0.25000   0.92666   0.83333   0.00000  Uiso   1.00
O743   O     0.18513   0.83333   0.88093   0.00000  Uiso   1.00
O744   O     0.31487   0.83333   0.78573   0.00000  Uiso   1.00
O745   O     0.31487   0.83333   0.88093   0.00000  Uiso   1.00
O746   O     0.18513   0.83333   0.78573   0.00000  Uiso   1.00
C747   C     0.16411   0.83343   0.83332   0.00000  Uiso   1.00
C748   C     0.33589   0.83323   0.83335   0.00000  Uiso   1.00
Cu749  Cu    0.25000   0.83333   0.88969   0.00000  Uiso   1.00
Cu750  Cu    0.25000   0.83333   0.77697   0.00000  Uiso   1.00
N751   N     0.25000   0.83333   0.69227   0.00000  Uiso   1.00
N752   N     0.25000   0.83333   0.97439   0.00000  Uiso   1.00
C753   C     0.40719   0.84805   0.88211   0.00000  Uiso   1.00
C754   C     0.09281   0.81862   0.78456   0.00000  Uiso   1.00
C755   C     0.40720   0.81685   0.78504   0.00000  Uiso   1.00
C756   C     0.09280   0.84981   0.88163   0.00000  Uiso   1.00
C757   C     0.38420   0.83271   0.83348   0.00000  Uiso   1.00
C758   C     0.11580   0.83395   0.83319   0.00000  Uiso   1.00
C759   C     0.45356   0.81479   0.78502   0.00000  Uiso   1.00
C760   C     0.04644   0.85188   0.88164   0.00000  Uiso   1.00
C761   C     0.45346   0.84926   0.88241   0.00000  Uiso   1.00
C762   C     0.04654   0.81741   0.78425   0.00000  Uiso   1.00
C763   C     0.47680   0.83269   0.83351   0.00000  Uiso   1.00
C764   C     0.02320   0.83398   0.83316   0.00000  Uiso   1.00
C765   C     0.47712   0.79632   0.73714   0.00000  Uiso   1.00
C766   C     0.02288   0.87035   0.92952   0.00000  Uiso   1.00
C767   C     0.47626   0.86756   0.93050   0.00000  Uiso   1.00
C768   C     0.02374   0.79911   0.73616   0.00000  Uiso   1.00
C769   C     0.25000   0.68845   0.83334   0.00000  Uiso   1.00
C770   C     0.25000   0.97821   0.83333   0.00000  Uiso   1.00
H771   H     0.38870   0.86041   0.91916   0.00000  Uiso   1.00
H772   H     0.11130   0.80626   0.74751   0.00000  Uiso   1.00
H773   H     0.38843   0.80630   0.74755   0.00000  Uiso   1.00
H774   H     0.11157   0.86037   0.91912   0.00000  Uiso   1.00
O775   O     0.45572   0.77531   0.69098   0.00000  Uiso   1.00
H776   H     0.43133   0.75461   0.70573   0.00000  Uiso   1.00
O777   O     0.04428   0.89135   0.97568   0.00000  Uiso   1.00
H778   H     0.06867   0.91206   0.96093   0.00000  Uiso   1.00
O779   O     0.45190   0.88395   0.97700   0.00000  Uiso   1.00
H780   H     0.47184   0.89447   0.67497   0.00000  Uiso   1.00
O781   O     0.04810   0.78271   0.68967   0.00000  Uiso   1.00
H782   H     0.02816   0.77220   0.99170   0.00000  Uiso   1.00
O783   O     0.75000   0.76280   0.88092   0.00000  Uiso   1.00
O784   O     0.75000   0.90387   0.78575   0.00000  Uiso   1.00
O785   O     0.75000   0.90387   0.88092   0.00000  Uiso   1.00
O786   O     0.75000   0.76280   0.78575   0.00000  Uiso   1.00
C787   C     0.75000   0.74000   0.83334   0.00000  Uiso   1.00
C788   C     0.75000   0.92666   0.83333   0.00000  Uiso   1.00
O789   O     0.68513   0.83333   0.88093   0.00000  Uiso   1.00
O790   O     0.81487   0.83333   0.78573   0.00000  Uiso   1.00
O791   O     0.81487   0.83333   0.88093   0.00000  Uiso   1.00
O792   O     0.68513   0.83333   0.78573   0.00000  Uiso   1.00
C793   C     0.66411   0.83343   0.83332   0.00000  Uiso   1.00
C794   C     0.83589   0.83323   0.83335   0.00000  Uiso   1.00
Cu795  Cu    0.75000   0.83333   0.88969   0.00000  Uiso   1.00
Cu796  Cu    0.75000   0.83333   0.77697   0.00000  Uiso   1.00
N797   N     0.75000   0.83333   0.69227   0.00000  Uiso   1.00
N798   N     0.75000   0.83333   0.97439   0.00000  Uiso   1.00
C799   C     0.90719   0.84805   0.88211   0.00000  Uiso   1.00
C800   C     0.59281   0.81862   0.78456   0.00000  Uiso   1.00
C801   C     0.90720   0.81685   0.78504   0.00000  Uiso   1.00
C802   C     0.59280   0.84981   0.88163   0.00000  Uiso   1.00
C803   C     0.88420   0.83271   0.83348   0.00000  Uiso   1.00
C804   C     0.61580   0.83395   0.83319   0.00000  Uiso   1.00
C805   C     0.95356   0.81479   0.78502   0.00000  Uiso   1.00
C806   C     0.54644   0.85188   0.88164   0.00000  Uiso   1.00
C807   C     0.95346   0.84926   0.88241   0.00000  Uiso   1.00
C808   C     0.54654   0.81741   0.78425   0.00000  Uiso   1.00
C809   C     0.97680   0.83269   0.83351   0.00000  Uiso   1.00
C810   C     0.52320   0.83398   0.83316   0.00000  Uiso   1.00
C811   C     0.97712   0.79632   0.73714   0.00000  Uiso   1.00
C812   C     0.52288   0.87035   0.92952   0.00000  Uiso   1.00
C813   C     0.97626   0.86756   0.93050   0.00000  Uiso   1.00
C814   C     0.52374   0.79911   0.73616   0.00000  Uiso   1.00
C815   C     0.75000   0.68845   0.83334   0.00000  Uiso   1.00
C816   C     0.75000   0.97821   0.83333   0.00000  Uiso   1.00
H817   H     0.88870   0.86041   0.91916   0.00000  Uiso   1.00
H818   H     0.61130   0.80626   0.74751   0.00000  Uiso   1.00
H819   H     0.88843   0.80630   0.74755   0.00000  Uiso   1.00
H820   H     0.61157   0.86037   0.91912   0.00000  Uiso   1.00
O821   O     0.95572   0.77531   0.69098   0.00000  Uiso   1.00
H822   H     0.93133   0.75461   0.70573   0.00000  Uiso   1.00
O823   O     0.54428   0.89135   0.97568   0.00000  Uiso   1.00
H824   H     0.56867   0.91206   0.96093   0.00000  Uiso   1.00
O825   O     0.95190   0.88395   0.97700   0.00000  Uiso   1.00
H826   H     0.97184   0.89447   0.67497   0.00000  Uiso   1.00
O827   O     0.54810   0.78271   0.68967   0.00000  Uiso   1.00
H828   H     0.52816   0.77220   0.99170   0.00000  Uiso   1.00
loop_
_geom_bond_atom_site_label_1
_geom_bond_atom_site_label_2
_geom_bond_distance
_geom_bond_site_symmetry_2
_ccdc_geom_bond_type
O1     C5      1.273   .     A
O1     Cu13    1.936   .     S
O2     C6      1.273   .     A
O2     Cu14    1.936   .     S
O3     Cu13    1.936   .     S
O3     C6      1.273   .     A
O4     Cu14    1.936   .     S
O4     C5      1.273   .     A
C5     C33     1.407   .     S
C6     C34     1.407   .     S
O7     C11     1.280   .     A
O7     Cu13    1.969   .     S
O8     C12     1.280   .     A
O8     Cu14    1.969   .     S
O9     C12     1.280   .     A
O9     Cu13    1.969   .     S
O10    C11     1.280   .     A
O10    Cu14    1.969   .     S
C11    C22     1.459   .     S
C12    C21     1.459   .     S
Cu13   N16     1.978   .     S
Cu13   Cu14    2.632   .     S
Cu14   N15     1.978   .     S
N15    N568    1.196   1_554 S
N16    N291    1.196   .     S
C17    C25     1.397   .     A
C17    H35     1.084   .     S
C17    C21     1.395   .     A
C18    C22     1.395   .     A
C18    H36     1.084   .     S
C18    C26     1.397   .     A
C19    C23     1.401   .     A
C19    H37     1.082   .     S
C19    C21     1.396   .     A
C20    H38     1.082   .     S
C20    C22     1.396   .     A
C20    C24     1.401   .     A
C23    C27     1.418   .     A
C23    C29     1.418   .     A
C24    C30     1.418   .     A
C24    C28     1.418   .     A
C25    C31     1.408   .     A
C25    C27     1.416   .     A
C26    C32     1.408   .     A
C26    C28     1.416   .     A
C27    C74     1.402   .     S
C28    C73     1.402   1_455 S
C29    O39     1.381   .     S
C29    C78     1.410   .     S
C30    O41     1.381   .     S
C30    C77     1.410   1_455 S
C31    O43     1.386   .     S
C31    C76     1.410   .     S
C32    O45     1.386   .     S
C32    C75     1.410   1_455 S
C33    C218    1.189   1_545 S
C34    C125    1.189   .     S
O39    H40     0.990   .     S
O41    H42     0.990   .     S
O43    H320    0.989   .     S
H44    O595    0.989   1_554 S
O45    H598    0.989   1_554 S
H46    O321    0.989   .     S
O47    C51     1.273   .     A
O47    Cu59    1.936   .     S
O48    C52     1.273   .     A
O48    Cu60    1.936   .     S
O49    Cu59    1.936   .     S
O49    C52     1.273   .     A
O50    Cu60    1.936   .     S
O50    C51     1.273   .     A
C51    C79     1.407   .     S
C52    C80     1.407   .     S
O53    C57     1.280   .     A
O53    Cu59    1.969   .     S
O54    C58     1.280   .     A
O54    Cu60    1.969   .     S
O55    C58     1.280   .     A
O55    Cu59    1.969   .     S
O56    C57     1.280   .     A
O56    Cu60    1.969   .     S
C57    C68     1.459   .     S
C58    C67     1.459   .     S
Cu59   N62     1.978   .     S
Cu59   Cu60    2.632   .     S
Cu60   N61     1.978   .     S
N61    N614    1.196   1_554 S
N62    N337    1.196   .     S
C63    C71     1.397   .     A
C63    H81     1.084   .     S
C63    C67     1.395   .     A
C64    C68     1.395   .     A
C64    H82     1.084   .     S
C64    C72     1.397   .     A
C65    C69     1.401   .     A
C65    H83     1.082   .     S
C65    C67     1.396   .     A
C66    H84     1.082   .     S
C66    C68     1.396   .     A
C66    C70     1.401   .     A
C69    C73     1.418   .     A
C69    C75     1.418   .     A
C70    C76     1.418   .     A
C70    C74     1.418   .     A
C71    C77     1.408   .     A
C71    C73     1.416   .     A
C72    C78     1.408   .     A
C72    C74     1.416   .     A
C73    C28     1.402   1_655 S
C75    O85     1.381   .     S
C75    C32     1.410   1_655 S
C76    O87     1.381   .     S
C77    O89     1.386   .     S
C77    C30     1.410   1_655 S
C78    O91     1.386   .     S
C79    C264    1.189   1_545 S
C80    C171    1.189   .     S
O85    H86     0.990   .     S
O87    H88     0.990   .     S
O89    H366    0.989   .     S
H90    O641    0.989   1_554 S
O91    H644    0.989   1_554 S
H92    O367    0.989   .     S
O93    C97     1.273   .     A
O93    Cu105   1.936   .     S
O94    C98     1.273   .     A
O94    Cu106   1.936   .     S
O95    Cu105   1.936   .     S
O95    C98     1.273   .     A
O96    Cu106   1.936   .     S
O96    C97     1.273   .     A
C97    C125    1.407   .     S
C98    C126    1.407   .     S
O99    C103    1.280   .     A
O99    Cu105   1.969   .     S
O100   C104    1.280   .     A
O100   Cu106   1.969   .     S
O101   C104    1.280   .     A
O101   Cu105   1.969   .     S
O102   C103    1.280   .     A
O102   Cu106   1.969   .     S
C103   C114    1.459   .     S
C104   C113    1.459   .     S
Cu105  N108    1.978   .     S
Cu105  Cu106   2.632   .     S
Cu106  N107    1.978   .     S
N107   N660    1.196   1_554 S
N108   N383    1.196   .     S
C109   C117    1.397   .     A
C109   H127    1.084   .     S
C109   C113    1.395   .     A
C110   C114    1.395   .     A
C110   H128    1.084   .     S
C110   C118    1.397   .     A
C111   C115    1.401   .     A
C111   H129    1.082   .     S
C111   C113    1.396   .     A
C112   H130    1.082   .     S
C112   C114    1.396   .     A
C112   C116    1.401   .     A
C115   C119    1.418   .     A
C115   C121    1.418   .     A
C116   C122    1.418   .     A
C116   C120    1.418   .     A
C117   C123    1.408   .     A
C117   C119    1.416   .     A
C118   C124    1.408   .     A
C118   C120    1.416   .     A
C119   C166    1.402   .     S
C120   C165    1.402   1_455 S
C121   O131    1.381   .     S
C121   C170    1.410   .     S
C122   O133    1.381   .     S
C122   C169    1.410   1_455 S
C123   O135    1.386   .     S
C123   C168    1.410   .     S
C124   O137    1.386   .     S
C124   C167    1.410   1_455 S
C126   C217    1.189   .     S
O131   H132    0.990   .     S
O133   H134    0.990   .     S
O135   H412    0.989   .     S
H136   O687    0.989   1_554 S
O137   H690    0.989   1_554 S
H138   O413    0.989   .     S
O139   C143    1.273   .     A
O139   Cu151   1.936   .     S
O140   C144    1.273   .     A
O140   Cu152   1.936   .     S
O141   Cu151   1.936   .     S
O141   C144    1.273   .     A
O142   Cu152   1.936   .     S
O142   C143    1.273   .     A
C143   C171    1.407   .     S
C144   C172    1.407   .     S
O145   C149    1.280   .     A
O145   Cu151   1.969   .     S
O146   C150    1.280   .     A
O146   Cu152   1.969   .     S
O147   C150    1.280   .     A
O147   Cu151   1.969   .     S
O148   C149    1.280   .     A
O148   Cu152   1.969   .     S
C149   C160    1.459   .     S
C150   C159    1.459   .     S
Cu151  N154    1.978   .     S
Cu151  Cu152   2.632   .     S
Cu152  N153    1.978   .     S
N153   N706    1.196   1_554 S
N154   N429    1.196   .     S
C155   C163    1.397   .     A
C155   H173    1.084   .     S
C155   C159    1.395   .     A
C156   C160    1.395   .     A
C156   H174    1.084   .     S
C156   C164    1.397   .     A
C157   C161    1.401   .     A
C157   H175    1.082   .     S
C157   C159    1.396   .     A
C158   H176    1.082   .     S
C158   C160    1.396   .     A
C158   C162    1.401   .     A
C161   C165    1.418   .     A
C161   C167    1.418   .     A
C162   C168    1.418   .     A
C162   C166    1.418   .     A
C163   C169    1.408   .     A
C163   C165    1.416   .     A
C164   C170    1.408   .     A
C164   C166    1.416   .     A
C165   C120    1.402   1_655 S
C167   O177    1.381   .     S
C167   C124    1.410   1_655 S
C168   O179    1.381   .     S
C169   O181    1.386   .     S
C169   C122    1.410   1_655 S
C170   O183    1.386   .     S
C172   C263    1.189   .     S
O177   H178    0.990   .     S
O179   H180    0.990   .     S
O181   H458    0.989   .     S
H182   O733    0.989   1_554 S
O183   H736    0.989   1_554 S
H184   O459    0.989   .     S
O185   C189    1.273   .     A
O185   Cu197   1.936   .     S
O186   C190    1.273   .     A
O186   Cu198   1.936   .     S
O187   Cu197   1.936   .     S
O187   C190    1.273   .     A
O188   Cu198   1.936   .     S
O188   C189    1.273   .     A
C189   C217    1.407   .     S
C190   C218    1.407   .     S
O191   C195    1.280   .     A
O191   Cu197   1.969   .     S
O192   C196    1.280   .     A
O192   Cu198   1.969   .     S
O193   C196    1.280   .     A
O193   Cu197   1.969   .     S
O194   C195    1.280   .     A
O194   Cu198   1.969   .     S
C195   C206    1.459   .     S
C196   C205    1.459   .     S
Cu197  N200    1.978   .     S
Cu197  Cu198   2.632   .     S
Cu198  N199    1.978   .     S
N199   N752    1.196   1_554 S
N200   N475    1.196   .     S
C201   C209    1.397   .     A
C201   H219    1.084   .     S
C201   C205    1.395   .     A
C202   C206    1.395   .     A
C202   H220    1.084   .     S
C202   C210    1.397   .     A
C203   C207    1.401   .     A
C203   H221    1.082   .     S
C203   C205    1.396   .     A
C204   H222    1.082   .     S
C204   C206    1.396   .     A
C204   C208    1.401   .     A
C207   C211    1.418   .     A
C207   C213    1.418   .     A
C208   C214    1.418   .     A
C208   C212    1.418   .     A
C209   C215    1.408   .     A
C209   C211    1.416   .     A
C210   C216    1.408   .     A
C210   C212    1.416   .     A
C211   C258    1.402   .     S
C212   C257    1.402   1_455 S
C213   O223    1.381   .     S
C213   C262    1.410   .     S
C214   O225    1.381   .     S
C214   C261    1.410   1_455 S
C215   O227    1.386   .     S
C215   C260    1.410   .     S
C216   O229    1.386   .     S
C216   C259    1.410   1_455 S
C218   C33     1.189   1_565 S
O223   H224    0.990   .     S
O225   H226    0.990   .     S
O227   H504    0.989   .     S
H228   O779    0.989   1_554 S
O229   H782    0.989   1_554 S
H230   O505    0.989   .     S
O231   C235    1.273   .     A
O231   Cu243   1.936   .     S
O232   C236    1.273   .     A
O232   Cu244   1.936   .     S
O233   Cu243   1.936   .     S
O233   C236    1.273   .     A
O234   Cu244   1.936   .     S
O234   C235    1.273   .     A
C235   C263    1.407   .     S
C236   C264    1.407   .     S
O237   C241    1.280   .     A
O237   Cu243   1.969   .     S
O238   C242    1.280   .     A
O238   Cu244   1.969   .     S
O239   C242    1.280   .     A
O239   Cu243   1.969   .     S
O240   C241    1.280   .     A
O240   Cu244   1.969   .     S
C241   C252    1.459   .     S
C242   C251    1.459   .     S
Cu243  N246    1.978   .     S
Cu243  Cu244   2.632   .     S
Cu244  N245    1.978   .     S
N245   N798    1.196   1_554 S
N246   N521    1.196   .     S
C247   C255    1.397   .     A
C247   H265    1.084   .     S
C247   C251    1.395   .     A
C248   C252    1.395   .     A
C248   H266    1.084   .     S
C248   C256    1.397   .     A
C249   C253    1.401   .     A
C249   H267    1.082   .     S
C249   C251    1.396   .     A
C250   H268    1.082   .     S
C250   C252    1.396   .     A
C250   C254    1.401   .     A
C253   C257    1.418   .     A
C253   C259    1.418   .     A
C254   C260    1.418   .     A
C254   C258    1.418   .     A
C255   C261    1.408   .     A
C255   C257    1.416   .     A
C256   C262    1.408   .     A
C256   C258    1.416   .     A
C257   C212    1.402   1_655 S
C259   O269    1.381   .     S
C259   C216    1.410   1_655 S
C260   O271    1.381   .     S
C261   O273    1.386   .     S
C261   C214    1.410   1_655 S
C262   O275    1.386   .     S
C264   C79     1.189   1_565 S
O269   H270    0.990   .     S
O271   H272    0.990   .     S
O273   H550    0.989   .     S
H274   O825    0.989   1_554 S
O275   H828    0.989   1_554 S
H276   O551    0.989   .     S
O277   C281    1.273   .     A
O277   Cu289   1.936   .     S
O278   C282    1.273   .     A
O278   Cu290   1.936   .     S
O279   Cu289   1.936   .     S
O279   C282    1.273   .     A
O280   Cu290   1.936   .     S
O280   C281    1.273   .     A
C281   C309    1.407   .     S
C282   C310    1.407   .     S
O283   C287    1.280   .     A
O283   Cu289   1.969   .     S
O284   C288    1.280   .     A
O284   Cu290   1.969   .     S
O285   C288    1.280   .     A
O285   Cu289   1.969   .     S
O286   C287    1.280   .     A
O286   Cu290   1.969   .     S
C287   C298    1.459   .     S
C288   C297    1.459   .     S
Cu289  N292    1.978   .     S
Cu289  Cu290   2.632   .     S
Cu290  N291    1.978   .     S
N292   N567    1.196   .     S
C293   C301    1.397   .     A
C293   H311    1.084   .     S
C293   C297    1.395   .     A
C294   C298    1.395   .     A
C294   H312    1.084   .     S
C294   C302    1.397   .     A
C295   C299    1.401   .     A
C295   H313    1.082   .     S
C295   C297    1.396   .     A
C296   H314    1.082   .     S
C296   C298    1.396   .     A
C296   C300    1.401   .     A
C299   C303    1.418   .     A
C299   C305    1.418   .     A
C300   C306    1.418   .     A
C300   C304    1.418   .     A
C301   C307    1.408   .     A
C301   C303    1.416   .     A
C302   C308    1.408   .     A
C302   C304    1.416   .     A
C303   C350    1.402   .     S
C304   C349    1.402   1_455 S
C305   O315    1.381   .     S
C305   C354    1.410   .     S
C306   O317    1.381   .     S
C306   C353    1.410   1_455 S
C307   O319    1.386   .     S
C307   C352    1.410   .     S
C308   O321    1.386   .     S
C308   C351    1.410   1_455 S
C309   C494    1.189   1_545 S
C310   C401    1.189   .     S
O315   H316    0.990   .     S
O317   H318    0.990   .     S
O319   H596    0.989   .     S
H322   O597    0.989   .     S
O323   C327    1.273   .     A
O323   Cu335   1.936   .     S
O324   C328    1.273   .     A
O324   Cu336   1.936   .     S
O325   Cu335   1.936   .     S
O325   C328    1.273   .     A
O326   Cu336   1.936   .     S
O326   C327    1.273   .     A
C327   C355    1.407   .     S
C328   C356    1.407   .     S
O329   C333    1.280   .     A
O329   Cu335   1.969   .     S
O330   C334    1.280   .     A
O330   Cu336   1.969   .     S
O331   C334    1.280   .     A
O331   Cu335   1.969   .     S
O332   C333    1.280   .     A
O332   Cu336   1.969   .     S
C333   C344    1.459   .     S
C334   C343    1.459   .     S
Cu335  N338    1.978   .     S
Cu335  Cu336   2.632   .     S
Cu336  N337    1.978   .     S
N338   N613    1.196   .     S
C339   C347    1.397   .     A
C339   H357    1.084   .     S
C339   C343    1.395   .     A
C340   C344    1.395   .     A
C340   H358    1.084   .     S
C340   C348    1.397   .     A
C341   C345    1.401   .     A
C341   H359    1.082   .     S
C341   C343    1.396   .     A
C342   H360    1.082   .     S
C342   C344    1.396   .     A
C342   C346    1.401   .     A
C345   C349    1.418   .     A
C345   C351    1.418   .     A
C346   C352    1.418   .     A
C346   C350    1.418   .     A
C347   C353    1.408   .     A
C347   C349    1.416   .     A
C348   C354    1.408   .     A
C348   C350    1.416   .     A
C349   C304    1.402   1_655 S
C351   O361    1.381   .     S
C351   C308    1.410   1_655 S
C352   O363    1.381   .     S
C353   O365    1.386   .     S
C353   C306    1.410   1_655 S
C354   O367    1.386   .     S
C355   C540    1.189   1_545 S
C356   C447    1.189   .     S
O361   H362    0.990   .     S
O363   H364    0.990   .     S
O365   H642    0.989   .     S
H368   O643    0.989   .     S
O369   C373    1.273   .     A
O369   Cu381   1.936   .     S
O370   C374    1.273   .     A
O370   Cu382   1.936   .     S
O371   Cu381   1.936   .     S
O371   C374    1.273   .     A
O372   Cu382   1.936   .     S
O372   C373    1.273   .     A
C373   C401    1.407   .     S
C374   C402    1.407   .     S
O375   C379    1.280   .     A
O375   Cu381   1.969   .     S
O376   C380    1.280   .     A
O376   Cu382   1.969   .     S
O377   C380    1.280   .     A
O377   Cu381   1.969   .     S
O378   C379    1.280   .     A
O378   Cu382   1.969   .     S
C379   C390    1.459   .     S
C380   C389    1.459   .     S
Cu381  N384    1.978   .     S
Cu381  Cu382   2.632   .     S
Cu382  N383    1.978   .     S
N384   N659    1.196   .     S
C385   C393    1.397   .     A
C385   H403    1.084   .     S
C385   C389    1.395   .     A
C386   C390    1.395   .     A
C386   H404    1.084   .     S
C386   C394    1.397   .     A
C387   C391    1.401   .     A
C387   H405    1.082   .     S
C387   C389    1.396   .     A
C388   H406    1.082   .     S
C388   C390    1.396   .     A
C388   C392    1.401   .     A
C391   C395    1.418   .     A
C391   C397    1.418   .     A
C392   C398    1.418   .     A
C392   C396    1.418   .     A
C393   C399    1.408   .     A
C393   C395    1.416   .     A
C394   C400    1.408   .     A
C394   C396    1.416   .     A
C395   C442    1.402   .     S
C396   C441    1.402   1_455 S
C397   O407    1.381   .     S
C397   C446    1.410   .     S
C398   O409    1.381   .     S
C398   C445    1.410   1_455 S
C399   O411    1.386   .     S
C399   C444    1.410   .     S
C400   O413    1.386   .     S
C400   C443    1.410   1_455 S
C402   C493    1.189   .     S
O407   H408    0.990   .     S
O409   H410    0.990   .     S
O411   H688    0.989   .     S
H414   O689    0.989   .     S
O415   C419    1.273   .     A
O415   Cu427   1.936   .     S
O416   C420    1.273   .     A
O416   Cu428   1.936   .     S
O417   Cu427   1.936   .     S
O417   C420    1.273   .     A
O418   Cu428   1.936   .     S
O418   C419    1.273   .     A
C419   C447    1.407   .     S
C420   C448    1.407   .     S
O421   C425    1.280   .     A
O421   Cu427   1.969   .     S
O422   C426    1.280   .     A
O422   Cu428   1.969   .     S
O423   C426    1.280   .     A
O423   Cu427   1.969   .     S
O424   C425    1.280   .     A
O424   Cu428   1.969   .     S
C425   C436    1.459   .     S
C426   C435    1.459   .     S
Cu427  N430    1.978   .     S
Cu427  Cu428   2.632   .     S
Cu428  N429    1.978   .     S
N430   N705    1.196   .     S
C431   C439    1.397   .     A
C431   H449    1.084   .     S
C431   C435    1.395   .     A
C432   C436    1.395   .     A
C432   H450    1.084   .     S
C432   C440    1.397   .     A
C433   C437    1.401   .     A
C433   H451    1.082   .     S
C433   C435    1.396   .     A
C434   H452    1.082   .     S
C434   C436    1.396   .     A
C434   C438    1.401   .     A
C437   C441    1.418   .     A
C437   C443    1.418   .     A
C438   C444    1.418   .     A
C438   C442    1.418   .     A
C439   C445    1.408   .     A
C439   C441    1.416   .     A
C440   C446    1.408   .     A
C440   C442    1.416   .     A
C441   C396    1.402   1_655 S
C443   O453    1.381   .     S
C443   C400    1.410   1_655 S
C444   O455    1.381   .     S
C445   O457    1.386   .     S
C445   C398    1.410   1_655 S
C446   O459    1.386   .     S
C448   C539    1.189   .     S
O453   H454    0.990   .     S
O455   H456    0.990   .     S
O457   H734    0.989   .     S
H460   O735    0.989   .     S
O461   C465    1.273   .     A
O461   Cu473   1.936   .     S
O462   C466    1.273   .     A
O462   Cu474   1.936   .     S
O463   Cu473   1.936   .     S
O463   C466    1.273   .     A
O464   Cu474   1.936   .     S
O464   C465    1.273   .     A
C465   C493    1.407   .     S
C466   C494    1.407   .     S
O467   C471    1.280   .     A
O467   Cu473   1.969   .     S
O468   C472    1.280   .     A
O468   Cu474   1.969   .     S
O469   C472    1.280   .     A
O469   Cu473   1.969   .     S
O470   C471    1.280   .     A
O470   Cu474   1.969   .     S
C471   C482    1.459   .     S
C472   C481    1.459   .     S
Cu473  N476    1.978   .     S
Cu473  Cu474   2.632   .     S
Cu474  N475    1.978   .     S
N476   N751    1.196   .     S
C477   C485    1.397   .     A
C477   H495    1.084   .     S
C477   C481    1.395   .     A
C478   C482    1.395   .     A
C478   H496    1.084   .     S
C478   C486    1.397   .     A
C479   C483    1.401   .     A
C479   H497    1.082   .     S
C479   C481    1.396   .     A
C480   H498    1.082   .     S
C480   C482    1.396   .     A
C480   C484    1.401   .     A
C483   C487    1.418   .     A
C483   C489    1.418   .     A
C484   C490    1.418   .     A
C484   C488    1.418   .     A
C485   C491    1.408   .     A
C485   C487    1.416   .     A
C486   C492    1.408   .     A
C486   C488    1.416   .     A
C487   C534    1.402   .     S
C488   C533    1.402   1_455 S
C489   O499    1.381   .     S
C489   C538    1.410   .     S
C490   O501    1.381   .     S
C490   C537    1.410   1_455 S
C491   O503    1.386   .     S
C491   C536    1.410   .     S
C492   O505    1.386   .     S
C492   C535    1.410   1_455 S
C494   C309    1.189   1_565 S
O499   H500    0.990   .     S
O501   H502    0.990   .     S
O503   H780    0.989   .     S
H506   O781    0.989   .     S
O507   C511    1.273   .     A
O507   Cu519   1.936   .     S
O508   C512    1.273   .     A
O508   Cu520   1.936   .     S
O509   Cu519   1.936   .     S
O509   C512    1.273   .     A
O510   Cu520   1.936   .     S
O510   C511    1.273   .     A
C511   C539    1.407   .     S
C512   C540    1.407   .     S
O513   C517    1.280   .     A
O513   Cu519   1.969   .     S
O514   C518    1.280   .     A
O514   Cu520   1.969   .     S
O515   C518    1.280   .     A
O515   Cu519   1.969   .     S
O516   C517    1.280   .     A
O516   Cu520   1.969   .     S
C517   C528    1.459   .     S
C518   C527    1.459   .     S
Cu519  N522    1.978   .     S
Cu519  Cu520   2.632   .     S
Cu520  N521    1.978   .     S
N522   N797    1.196   .     S
C523   C531    1.397   .     A
C523   H541    1.084   .     S
C523   C527    1.395   .     A
C524   C528    1.395   .     A
C524   H542    1.084   .     S
C524   C532    1.397   .     A
C525   C529    1.401   .     A
C525   H543    1.082   .     S
C525   C527    1.396   .     A
C526   H544    1.082   .     S
C526   C528    1.396   .     A
C526   C530    1.401   .     A
C529   C533    1.418   .     A
C529   C535    1.418   .     A
C530   C536    1.418   .     A
C530   C534    1.418   .     A
C531   C537    1.408   .     A
C531   C533    1.416   .     A
C532   C538    1.408   .     A
C532   C534    1.416   .     A
C533   C488    1.402   1_655 S
C535   O545    1.381   .     S
C535   C492    1.410   1_655 S
C536   O547    1.381   .     S
C537   O549    1.386   .     S
C537   C490    1.410   1_655 S
C538   O551    1.386   .     S
C540   C355    1.189   1_565 S
O545   H546    0.990   .     S
O547   H548    0.990   .     S
O549   H826    0.989   .     S
H552   O827    0.989   .     S
O553   C557    1.273   .     A
O553   Cu565   1.936   .     S
O554   C558    1.273   .     A
O554   Cu566   1.936   .     S
O555   Cu565   1.936   .     S
O555   C558    1.273   .     A
O556   Cu566   1.936   .     S
O556   C557    1.273   .     A
C557   C585    1.407   .     S
C558   C586    1.407   .     S
O559   C563    1.280   .     A
O559   Cu565   1.969   .     S
O560   C564    1.280   .     A
O560   Cu566   1.969   .     S
O561   C564    1.280   .     A
O561   Cu565   1.969   .     S
O562   C563    1.280   .     A
O562   Cu566   1.969   .     S
C563   C574    1.459   .     S
C564   C573    1.459   .     S
Cu565  N568    1.978   .     S
Cu565  Cu566   2.632   .     S
Cu566  N567    1.978   .     S
N568   N15     1.196   1_556 S
C569   C577    1.397   .     A
C569   H587    1.084   .     S
C569   C573    1.395   .     A
C570   C574    1.395   .     A
C570   H588    1.084   .     S
C570   C578    1.397   .     A
C571   C575    1.401   .     A
C571   H589    1.082   .     S
C571   C573    1.396   .     A
C572   H590    1.082   .     S
C572   C574    1.396   .     A
C572   C576    1.401   .     A
C575   C579    1.418   .     A
C575   C581    1.418   .     A
C576   C582    1.418   .     A
C576   C580    1.418   .     A
C577   C583    1.408   .     A
C577   C579    1.416   .     A
C578   C584    1.408   .     A
C578   C580    1.416   .     A
C579   C626    1.402   .     S
C580   C625    1.402   1_455 S
C581   O591    1.381   .     S
C581   C630    1.410   .     S
C582   O593    1.381   .     S
C582   C629    1.410   1_455 S
C583   O595    1.386   .     S
C583   C628    1.410   .     S
C584   O597    1.386   .     S
C584   C627    1.410   1_455 S
C585   C770    1.189   1_545 S
C586   C677    1.189   .     S
O591   H592    0.990   .     S
O593   H594    0.990   .     S
O595   H44     0.989   1_556 S
H598   O45     0.989   1_556 S
O599   C603    1.273   .     A
O599   Cu611   1.936   .     S
O600   C604    1.273   .     A
O600   Cu612   1.936   .     S
O601   Cu611   1.936   .     S
O601   C604    1.273   .     A
O602   Cu612   1.936   .     S
O602   C603    1.273   .     A
C603   C631    1.407   .     S
C604   C632    1.407   .     S
O605   C609    1.280   .     A
O605   Cu611   1.969   .     S
O606   C610    1.280   .     A
O606   Cu612   1.969   .     S
O607   C610    1.280   .     A
O607   Cu611   1.969   .     S
O608   C609    1.280   .     A
O608   Cu612   1.969   .     S
C609   C620    1.459   .     S
C610   C619    1.459   .     S
Cu611  N614    1.978   .     S
Cu611  Cu612   2.632   .     S
Cu612  N613    1.978   .     S
N614   N61     1.196   1_556 S
C615   C623    1.397   .     A
C615   H633    1.084   .     S
C615   C619    1.395   .     A
C616   C620    1.395   .     A
C616   H634    1.084   .     S
C616   C624    1.397   .     A
C617   C621    1.401   .     A
C617   H635    1.082   .     S
C617   C619    1.396   .     A
C618   H636    1.082   .     S
C618   C620    1.396   .     A
C618   C622    1.401   .     A
C621   C625    1.418   .     A
C621   C627    1.418   .     A
C622   C628    1.418   .     A
C622   C626    1.418   .     A
C623   C629    1.408   .     A
C623   C625    1.416   .     A
C624   C630    1.408   .     A
C624   C626    1.416   .     A
C625   C580    1.402   1_655 S
C627   O637    1.381   .     S
C627   C584    1.410   1_655 S
C628   O639    1.381   .     S
C629   O641    1.386   .     S
C629   C582    1.410   1_655 S
C630   O643    1.386   .     S
C631   C816    1.189   1_545 S
C632   C723    1.189   .     S
O637   H638    0.990   .     S
O639   H640    0.990   .     S
O641   H90     0.989   1_556 S
H644   O91     0.989   1_556 S
O645   C649    1.273   .     A
O645   Cu657   1.936   .     S
O646   C650    1.273   .     A
O646   Cu658   1.936   .     S
O647   Cu657   1.936   .     S
O647   C650    1.273   .     A
O648   Cu658   1.936   .     S
O648   C649    1.273   .     A
C649   C677    1.407   .     S
C650   C678    1.407   .     S
O651   C655    1.280   .     A
O651   Cu657   1.969   .     S
O652   C656    1.280   .     A
O652   Cu658   1.969   .     S
O653   C656    1.280   .     A
O653   Cu657   1.969   .     S
O654   C655    1.280   .     A
O654   Cu658   1.969   .     S
C655   C666    1.459   .     S
C656   C665    1.459   .     S
Cu657  N660    1.978   .     S
Cu657  Cu658   2.632   .     S
Cu658  N659    1.978   .     S
N660   N107    1.196   1_556 S
C661   C669    1.397   .     A
C661   H679    1.084   .     S
C661   C665    1.395   .     A
C662   C666    1.395   .     A
C662   H680    1.084   .     S
C662   C670    1.397   .     A
C663   C667    1.401   .     A
C663   H681    1.082   .     S
C663   C665    1.396   .     A
C664   H682    1.082   .     S
C664   C666    1.396   .     A
C664   C668    1.401   .     A
C667   C671    1.418   .     A
C667   C673    1.418   .     A
C668   C674    1.418   .     A
C668   C672    1.418   .     A
C669   C675    1.408   .     A
C669   C671    1.416   .     A
C670   C676    1.408   .     A
C670   C672    1.416   .     A
C671   C718    1.402   .     S
C672   C717    1.402   1_455 S
C673   O683    1.381   .     S
C673   C722    1.410   .     S
C674   O685    1.381   .     S
C674   C721    1.410   1_455 S
C675   O687    1.386   .     S
C675   C720    1.410   .     S
C676   O689    1.386   .     S
C676   C719    1.410   1_455 S
C678   C769    1.189   .     S
O683   H684    0.990   .     S
O685   H686    0.990   .     S
O687   H136    0.989   1_556 S
H690   O137    0.989   1_556 S
O691   C695    1.273   .     A
O691   Cu703   1.936   .     S
O692   C696    1.273   .     A
O692   Cu704   1.936   .     S
O693   Cu703   1.936   .     S
O693   C696    1.273   .     A
O694   Cu704   1.936   .     S
O694   C695    1.273   .     A
C695   C723    1.407   .     S
C696   C724    1.407   .     S
O697   C701    1.280   .     A
O697   Cu703   1.969   .     S
O698   C702    1.280   .     A
O698   Cu704   1.969   .     S
O699   C702    1.280   .     A
O699   Cu703   1.969   .     S
O700   C701    1.280   .     A
O700   Cu704   1.969   .     S
C701   C712    1.459   .     S
C702   C711    1.459   .     S
Cu703  N706    1.978   .     S
Cu703  Cu704   2.632   .     S
Cu704  N705    1.978   .     S
N706   N153    1.196   1_556 S
C707   C715    1.397   .     A
C707   H725    1.084   .     S
C707   C711    1.395   .     A
C708   C712    1.395   .     A
C708   H726    1.084   .     S
C708   C716    1.397   .     A
C709   C713    1.401   .     A
C709   H727    1.082   .     S
C709   C711    1.396   .     A
C710   H728    1.082   .     S
C710   C712    1.396   .     A
C710   C714    1.401   .     A
C713   C717    1.418   .     A
C713   C719    1.418   .     A
C714   C720    1.418   .     A
C714   C718    1.418   .     A
C715   C721    1.408   .     A
C715   C717    1.416   .     A
C716   C722    1.408   .     A
C716   C718    1.416   .     A
C717   C672    1.402   1_655 S
C719   O729    1.381   .     S
C719   C676    1.410   1_655 S
C720   O731    1.381   .     S
C721   O733    1.386   .     S
C721   C674    1.410   1_655 S
C722   O735    1.386   .     S
C724   C815    1.189   .     S
O729   H730    0.990   .     S
O731   H732    0.990   .     S
O733   H182    0.989   1_556 S
H736   O183    0.989   1_556 S
O737   C741    1.273   .     A
O737   Cu749   1.936   .     S
O738   C742    1.273   .     A
O738   Cu750   1.936   .     S
O739   Cu749   1.936   .     S
O739   C742    1.273   .     A
O740   Cu750   1.936   .     S
O740   C741    1.273   .     A
C741   C769    1.407   .     S
C742   C770    1.407   .     S
O743   C747    1.280   .     A
O743   Cu749   1.969   .     S
O744   C748    1.280   .     A
O744   Cu750   1.969   .     S
O745   C748    1.280   .     A
O745   Cu749   1.969   .     S
O746   C747    1.280   .     A
O746   Cu750   1.969   .     S
C747   C758    1.459   .     S
C748   C757    1.459   .     S
Cu749  N752    1.978   .     S
Cu749  Cu750   2.632   .     S
Cu750  N751    1.978   .     S
N752   N199    1.196   1_556 S
C753   C761    1.397   .     A
C753   H771    1.084   .     S
C753   C757    1.395   .     A
C754   C758    1.395   .     A
C754   H772    1.084   .     S
C754   C762    1.397   .     A
C755   C759    1.401   .     A
C755   H773    1.082   .     S
C755   C757    1.396   .     A
C756   H774    1.082   .     S
C756   C758    1.396   .     A
C756   C760    1.401   .     A
C759   C763    1.418   .     A
C759   C765    1.418   .     A
C760   C766    1.418   .     A
C760   C764    1.418   .     A
C761   C767    1.408   .     A
C761   C763    1.416   .     A
C762   C768    1.408   .     A
C762   C764    1.416   .     A
C763   C810    1.402   .     S
C764   C809    1.402   1_455 S
C765   O775    1.381   .     S
C765   C814    1.410   .     S
C766   O777    1.381   .     S
C766   C813    1.410   1_455 S
C767   O779    1.386   .     S
C767   C812    1.410   .     S
C768   O781    1.386   .     S
C768   C811    1.410   1_455 S
C770   C585    1.189   1_565 S
O775   H776    0.990   .     S
O777   H778    0.990   .     S
O779   H228    0.989   1_556 S
H782   O229    0.989   1_556 S
O783   C787    1.273   .     A
O783   Cu795   1.936   .     S
O784   C788    1.273   .     A
O784   Cu796   1.936   .     S
O785   Cu795   1.936   .     S
O785   C788    1.273   .     A
O786   Cu796   1.936   .     S
O786   C787    1.273   .     A
C787   C815    1.407   .     S
C788   C816    1.407   .     S
O789   C793    1.280   .     A
O789   Cu795   1.969   .     S
O790   C794    1.280   .     A
O790   Cu796   1.969   .     S
O791   C794    1.280   .     A
O791   Cu795   1.969   .     S
O792   C793    1.280   .     A
O792   Cu796   1.969   .     S
C793   C804    1.459   .     S
C794   C803    1.459   .     S
Cu795  N798    1.978   .     S
Cu795  Cu796   2.632   .     S
Cu796  N797    1.978   .     S
N798   N245    1.196   1_556 S
C799   C807    1.397   .     A
C799   H817    1.084   .     S
C799   C803    1.395   .     A
C800   C804    1.395   .     A
C800   H818    1.084   .     S
C800   C808    1.397   .     A
C801   C805    1.401   .     A
C801   H819    1.082   .     S
C801   C803    1.396   .     A
C802   H820    1.082   .     S
C802   C804    1.396   .     A
C802   C806    1.401   .     A
C805   C809    1.418   .     A
C805   C811    1.418   .     A
C806   C812    1.418   .     A
C806   C810    1.418   .     A
C807   C813    1.408   .     A
C807   C809    1.416   .     A
C808   C814    1.408   .     A
C808   C810    1.416   .     A
C809   C764    1.402   1_655 S
C811   O821    1.381   .     S
C811   C768    1.410   1_655 S
C812   O823    1.381   .     S
C813   O825    1.386   .     S
C813   C766    1.410   1_655 S
C814   O827    1.386   .     S
C816   C631    1.189   1_565 S
O821   H822    0.990   .     S
O823   H824    0.990   .     S
O825   H274    0.989   1_556 S
H828   O275    0.989   1_556 S
