data_str_m2_o1_o5_pcu_sym.38
_audit_creation_date              2020-01-03
_audit_creation_method            'Materials Studio'
_symmetry_space_group_name_H-M    'P1'
_symmetry_Int_Tables_number       1
_symmetry_cell_setting            triclinic
loop_
_symmetry_equiv_pos_as_xyz
  x,y,z
_cell_length_a                    32.7831
_cell_length_b                    28.7364
_cell_length_c                    27.2179
_cell_angle_alpha                 90.0015
_cell_angle_beta                  92.2648
_cell_angle_gamma                 90.0094
loop_
_atom_site_label
_atom_site_type_symbol
_atom_site_fract_x
_atom_site_fract_y
_atom_site_fract_z
_atom_site_U_iso_or_equiv
_atom_site_adp_type
_atom_site_occupancy
C1     C     0.08757   0.16670   0.17078   0.00000  Uiso   1.00
C2     C     0.02105   0.20976   0.17275   0.00000  Uiso   1.00
C3     C     0.29073   0.16695   0.15841   0.00000  Uiso   1.00
C4     C     0.04260   0.16692   0.17492   0.00000  Uiso   1.00
C5     C     0.14159   0.02472   0.13450   0.00000  Uiso   1.00
C6     C     0.19138   0.30865   0.19924   0.00000  Uiso   1.00
C7     C     0.19175   0.02473   0.19883   0.00000  Uiso   1.00
C8     C     0.14195   0.30863   0.13409   0.00000  Uiso   1.00
C9     C     0.04050   0.07937   0.18774   0.00000  Uiso   1.00
C10    C     0.29135   0.25419   0.14695   0.00000  Uiso   1.00
C11    C     0.29278   0.07944   0.14531   0.00000  Uiso   1.00
C12    C     0.24577   0.16671   0.16255   0.00000  Uiso   1.00
C13    C     0.04203   0.25413   0.18664   0.00000  Uiso   1.00
C14    C     0.16658   0.16667   0.07359   0.00000  Uiso   1.00
C15    C     0.16675   0.16667   0.25974   0.00000  Uiso   1.00
C16    C     0.16664   0.16666   0.02186   0.00000  Uiso   1.00
C17    C     0.16670   0.16666   0.31147   0.00000  Uiso   1.00
C18    C     0.02082   0.12429   0.17334   0.00000  Uiso   1.00
C19    C     0.31230   0.20978   0.16071   0.00000  Uiso   1.00
C20    C     0.31250   0.12431   0.15986   0.00000  Uiso   1.00
Cl21   Cl    0.10808   0.05399   0.09275   0.00000  Uiso   1.00
Cl22   Cl    0.22320   0.27947   0.24293   0.00000  Uiso   1.00
Cl23   Cl    0.22527   0.05402   0.24057   0.00000  Uiso   1.00
Cl24   Cl    0.11011   0.27944   0.09043   0.00000  Uiso   1.00
Cu25   Cu    0.16667   0.21355   0.16667   0.00000  Uiso   1.00
Cu26   Cu    0.16667   0.11978   0.16667   0.00000  Uiso   1.00
H27    H     0.03575   0.04857   0.16524   0.00000  Uiso   1.00
H28    H     0.27209   0.25572   0.11361   0.00000  Uiso   1.00
H29    H     0.29754   0.04857   0.16768   0.00000  Uiso   1.00
H30    H     0.06126   0.25558   0.22000   0.00000  Uiso   1.00
N31    N     0.16667   0.28402   0.16667   0.00000  Uiso   1.00
N32    N     0.16667   0.04931   0.16667   0.00000  Uiso   1.00
O33    O     0.10655   0.20625   0.16666   0.00000  Uiso   1.00
O34    O     0.29382   0.28840   0.17346   0.00000  Uiso   1.00
O35    O     0.27211   0.07647   0.10711   0.00000  Uiso   1.00
O36    O     0.03963   0.28838   0.16019   0.00000  Uiso   1.00
O37    O     0.22679   0.12709   0.16667   0.00000  Uiso   1.00
O38    O     0.22679   0.20625   0.16667   0.00000  Uiso   1.00
O39    O     0.10655   0.12709   0.16666   0.00000  Uiso   1.00
O40    O     0.16667   0.20625   0.09613   0.00000  Uiso   1.00
O41    O     0.16667   0.12708   0.23720   0.00000  Uiso   1.00
O42    O     0.16667   0.20625   0.23720   0.00000  Uiso   1.00
O43    O     0.16667   0.12708   0.09613   0.00000  Uiso   1.00
O44    O     0.06114   0.07627   0.22595   0.00000  Uiso   1.00
C45    C     0.42090   0.16670   0.17078   0.00000  Uiso   1.00
C46    C     0.35439   0.20976   0.17275   0.00000  Uiso   1.00
C47    C     0.62406   0.16695   0.15841   0.00000  Uiso   1.00
C48    C     0.37593   0.16692   0.17492   0.00000  Uiso   1.00
C49    C     0.47492   0.02472   0.13450   0.00000  Uiso   1.00
C50    C     0.52472   0.30865   0.19924   0.00000  Uiso   1.00
C51    C     0.52508   0.02473   0.19883   0.00000  Uiso   1.00
C52    C     0.47528   0.30863   0.13409   0.00000  Uiso   1.00
C53    C     0.37384   0.07937   0.18774   0.00000  Uiso   1.00
C54    C     0.62469   0.25419   0.14695   0.00000  Uiso   1.00
C55    C     0.62612   0.07944   0.14531   0.00000  Uiso   1.00
C56    C     0.57910   0.16671   0.16255   0.00000  Uiso   1.00
C57    C     0.37536   0.25413   0.18664   0.00000  Uiso   1.00
C58    C     0.49991   0.16667   0.07359   0.00000  Uiso   1.00
C59    C     0.50009   0.16667   0.25974   0.00000  Uiso   1.00
C60    C     0.49997   0.16666   0.02186   0.00000  Uiso   1.00
C61    C     0.50003   0.16666   0.31147   0.00000  Uiso   1.00
C62    C     0.35415   0.12429   0.17334   0.00000  Uiso   1.00
C63    C     0.64563   0.20978   0.16071   0.00000  Uiso   1.00
C64    C     0.64583   0.12431   0.15986   0.00000  Uiso   1.00
Cl65   Cl    0.44141   0.05399   0.09275   0.00000  Uiso   1.00
Cl66   Cl    0.55654   0.27947   0.24293   0.00000  Uiso   1.00
Cl67   Cl    0.55860   0.05402   0.24057   0.00000  Uiso   1.00
Cl68   Cl    0.44344   0.27944   0.09043   0.00000  Uiso   1.00
Cu69   Cu    0.50000   0.21355   0.16667   0.00000  Uiso   1.00
Cu70   Cu    0.50000   0.11978   0.16667   0.00000  Uiso   1.00
H71    H     0.36909   0.04857   0.16524   0.00000  Uiso   1.00
H72    H     0.60542   0.25572   0.11361   0.00000  Uiso   1.00
H73    H     0.63087   0.04857   0.16768   0.00000  Uiso   1.00
H74    H     0.39460   0.25558   0.22000   0.00000  Uiso   1.00
N75    N     0.50000   0.28402   0.16667   0.00000  Uiso   1.00
N76    N     0.50000   0.04931   0.16667   0.00000  Uiso   1.00
O77    O     0.43988   0.20625   0.16666   0.00000  Uiso   1.00
O78    O     0.62716   0.28840   0.17346   0.00000  Uiso   1.00
O79    O     0.60544   0.07647   0.10711   0.00000  Uiso   1.00
O80    O     0.37296   0.28838   0.16019   0.00000  Uiso   1.00
O81    O     0.56012   0.12709   0.16667   0.00000  Uiso   1.00
O82    O     0.56012   0.20625   0.16667   0.00000  Uiso   1.00
O83    O     0.43988   0.12709   0.16666   0.00000  Uiso   1.00
O84    O     0.50000   0.20625   0.09613   0.00000  Uiso   1.00
O85    O     0.50000   0.12708   0.23720   0.00000  Uiso   1.00
O86    O     0.50000   0.20625   0.23720   0.00000  Uiso   1.00
O87    O     0.50000   0.12708   0.09613   0.00000  Uiso   1.00
O88    O     0.39448   0.07627   0.22595   0.00000  Uiso   1.00
C89    C     0.75423   0.16670   0.17078   0.00000  Uiso   1.00
C90    C     0.68772   0.20976   0.17275   0.00000  Uiso   1.00
C91    C     0.95740   0.16695   0.15841   0.00000  Uiso   1.00
C92    C     0.70927   0.16692   0.17492   0.00000  Uiso   1.00
C93    C     0.80825   0.02472   0.13450   0.00000  Uiso   1.00
C94    C     0.85805   0.30865   0.19924   0.00000  Uiso   1.00
C95    C     0.85841   0.02473   0.19883   0.00000  Uiso   1.00
C96    C     0.80861   0.30863   0.13409   0.00000  Uiso   1.00
C97    C     0.70717   0.07937   0.18774   0.00000  Uiso   1.00
C98    C     0.95802   0.25419   0.14695   0.00000  Uiso   1.00
C99    C     0.95945   0.07944   0.14531   0.00000  Uiso   1.00
C100   C     0.91243   0.16671   0.16255   0.00000  Uiso   1.00
C101   C     0.70869   0.25413   0.18664   0.00000  Uiso   1.00
C102   C     0.83325   0.16667   0.07359   0.00000  Uiso   1.00
C103   C     0.83342   0.16667   0.25974   0.00000  Uiso   1.00
C104   C     0.83330   0.16666   0.02186   0.00000  Uiso   1.00
C105   C     0.83336   0.16666   0.31147   0.00000  Uiso   1.00
C106   C     0.68748   0.12429   0.17334   0.00000  Uiso   1.00
C107   C     0.97897   0.20978   0.16071   0.00000  Uiso   1.00
C108   C     0.97916   0.12431   0.15986   0.00000  Uiso   1.00
Cl109  Cl    0.77474   0.05399   0.09275   0.00000  Uiso   1.00
Cl110  Cl    0.88987   0.27947   0.24293   0.00000  Uiso   1.00
Cl111  Cl    0.89193   0.05402   0.24057   0.00000  Uiso   1.00
Cl112  Cl    0.77677   0.27944   0.09043   0.00000  Uiso   1.00
Cu113  Cu    0.83333   0.21355   0.16667   0.00000  Uiso   1.00
Cu114  Cu    0.83333   0.11978   0.16667   0.00000  Uiso   1.00
H115   H     0.70242   0.04857   0.16524   0.00000  Uiso   1.00
H116   H     0.93875   0.25572   0.11361   0.00000  Uiso   1.00
H117   H     0.96421   0.04857   0.16768   0.00000  Uiso   1.00
H118   H     0.72793   0.25558   0.22000   0.00000  Uiso   1.00
N119   N     0.83333   0.28402   0.16667   0.00000  Uiso   1.00
N120   N     0.83333   0.04931   0.16667   0.00000  Uiso   1.00
O121   O     0.77321   0.20625   0.16666   0.00000  Uiso   1.00
O122   O     0.96049   0.28840   0.17346   0.00000  Uiso   1.00
O123   O     0.93878   0.07647   0.10711   0.00000  Uiso   1.00
O124   O     0.70629   0.28838   0.16019   0.00000  Uiso   1.00
O125   O     0.89345   0.12709   0.16667   0.00000  Uiso   1.00
O126   O     0.89345   0.20625   0.16667   0.00000  Uiso   1.00
O127   O     0.77321   0.12709   0.16666   0.00000  Uiso   1.00
O128   O     0.83333   0.20625   0.09613   0.00000  Uiso   1.00
O129   O     0.83333   0.12708   0.23720   0.00000  Uiso   1.00
O130   O     0.83333   0.20625   0.23720   0.00000  Uiso   1.00
O131   O     0.83333   0.12708   0.09613   0.00000  Uiso   1.00
O132   O     0.72781   0.07627   0.22595   0.00000  Uiso   1.00
C133   C     0.08757   0.50003   0.17078   0.00000  Uiso   1.00
C134   C     0.02105   0.54310   0.17275   0.00000  Uiso   1.00
C135   C     0.29073   0.50028   0.15841   0.00000  Uiso   1.00
C136   C     0.04260   0.50025   0.17492   0.00000  Uiso   1.00
C137   C     0.14159   0.35805   0.13450   0.00000  Uiso   1.00
C138   C     0.19138   0.64198   0.19924   0.00000  Uiso   1.00
C139   C     0.19175   0.35806   0.19883   0.00000  Uiso   1.00
C140   C     0.14195   0.64197   0.13409   0.00000  Uiso   1.00
C141   C     0.04050   0.41270   0.18774   0.00000  Uiso   1.00
C142   C     0.29135   0.58753   0.14695   0.00000  Uiso   1.00
C143   C     0.29278   0.41277   0.14531   0.00000  Uiso   1.00
C144   C     0.24577   0.50004   0.16255   0.00000  Uiso   1.00
C145   C     0.04203   0.58746   0.18664   0.00000  Uiso   1.00
C146   C     0.16658   0.50000   0.07359   0.00000  Uiso   1.00
C147   C     0.16675   0.50000   0.25974   0.00000  Uiso   1.00
C148   C     0.16664   0.50000   0.02186   0.00000  Uiso   1.00
C149   C     0.16670   0.50000   0.31147   0.00000  Uiso   1.00
C150   C     0.02082   0.45763   0.17334   0.00000  Uiso   1.00
C151   C     0.31230   0.54312   0.16071   0.00000  Uiso   1.00
C152   C     0.31250   0.45765   0.15986   0.00000  Uiso   1.00
Cl153  Cl    0.10808   0.38733   0.09275   0.00000  Uiso   1.00
Cl154  Cl    0.22320   0.61280   0.24293   0.00000  Uiso   1.00
Cl155  Cl    0.22527   0.38735   0.24057   0.00000  Uiso   1.00
Cl156  Cl    0.11011   0.61277   0.09043   0.00000  Uiso   1.00
Cu157  Cu    0.16667   0.54689   0.16667   0.00000  Uiso   1.00
Cu158  Cu    0.16667   0.45311   0.16667   0.00000  Uiso   1.00
H159   H     0.03575   0.38191   0.16524   0.00000  Uiso   1.00
H160   H     0.27209   0.58905   0.11361   0.00000  Uiso   1.00
H161   H     0.29754   0.38190   0.16768   0.00000  Uiso   1.00
H162   H     0.06126   0.58891   0.22000   0.00000  Uiso   1.00
N163   N     0.16667   0.61736   0.16667   0.00000  Uiso   1.00
N164   N     0.16667   0.38264   0.16667   0.00000  Uiso   1.00
O165   O     0.10655   0.53958   0.16666   0.00000  Uiso   1.00
O166   O     0.29382   0.62173   0.17346   0.00000  Uiso   1.00
O167   O     0.27211   0.40980   0.10711   0.00000  Uiso   1.00
O168   O     0.03963   0.62171   0.16019   0.00000  Uiso   1.00
O169   O     0.22679   0.46042   0.16667   0.00000  Uiso   1.00
O170   O     0.22679   0.53958   0.16667   0.00000  Uiso   1.00
O171   O     0.10655   0.46042   0.16666   0.00000  Uiso   1.00
O172   O     0.16667   0.53959   0.09613   0.00000  Uiso   1.00
O173   O     0.16667   0.46041   0.23720   0.00000  Uiso   1.00
O174   O     0.16667   0.53959   0.23720   0.00000  Uiso   1.00
O175   O     0.16667   0.46041   0.09613   0.00000  Uiso   1.00
O176   O     0.06114   0.40961   0.22595   0.00000  Uiso   1.00
C177   C     0.42090   0.50003   0.17078   0.00000  Uiso   1.00
C178   C     0.35439   0.54310   0.17275   0.00000  Uiso   1.00
C179   C     0.62406   0.50028   0.15841   0.00000  Uiso   1.00
C180   C     0.37593   0.50025   0.17492   0.00000  Uiso   1.00
C181   C     0.47492   0.35805   0.13450   0.00000  Uiso   1.00
C182   C     0.52472   0.64198   0.19924   0.00000  Uiso   1.00
C183   C     0.52508   0.35806   0.19883   0.00000  Uiso   1.00
C184   C     0.47528   0.64197   0.13409   0.00000  Uiso   1.00
C185   C     0.37384   0.41270   0.18774   0.00000  Uiso   1.00
C186   C     0.62469   0.58753   0.14695   0.00000  Uiso   1.00
C187   C     0.62612   0.41277   0.14531   0.00000  Uiso   1.00
C188   C     0.57910   0.50004   0.16255   0.00000  Uiso   1.00
C189   C     0.37536   0.58746   0.18664   0.00000  Uiso   1.00
C190   C     0.49991   0.50000   0.07359   0.00000  Uiso   1.00
C191   C     0.50009   0.50000   0.25974   0.00000  Uiso   1.00
C192   C     0.49997   0.50000   0.02186   0.00000  Uiso   1.00
C193   C     0.50003   0.50000   0.31147   0.00000  Uiso   1.00
C194   C     0.35415   0.45763   0.17334   0.00000  Uiso   1.00
C195   C     0.64563   0.54312   0.16071   0.00000  Uiso   1.00
C196   C     0.64583   0.45765   0.15986   0.00000  Uiso   1.00
Cl197  Cl    0.44141   0.38733   0.09275   0.00000  Uiso   1.00
Cl198  Cl    0.55654   0.61280   0.24293   0.00000  Uiso   1.00
Cl199  Cl    0.55860   0.38735   0.24057   0.00000  Uiso   1.00
Cl200  Cl    0.44344   0.61277   0.09043   0.00000  Uiso   1.00
Cu201  Cu    0.50000   0.54689   0.16667   0.00000  Uiso   1.00
Cu202  Cu    0.50000   0.45311   0.16667   0.00000  Uiso   1.00
H203   H     0.36909   0.38191   0.16524   0.00000  Uiso   1.00
H204   H     0.60542   0.58905   0.11361   0.00000  Uiso   1.00
H205   H     0.63087   0.38190   0.16768   0.00000  Uiso   1.00
H206   H     0.39460   0.58891   0.22000   0.00000  Uiso   1.00
N207   N     0.50000   0.61736   0.16667   0.00000  Uiso   1.00
N208   N     0.50000   0.38264   0.16667   0.00000  Uiso   1.00
O209   O     0.43988   0.53958   0.16666   0.00000  Uiso   1.00
O210   O     0.62716   0.62173   0.17346   0.00000  Uiso   1.00
O211   O     0.60544   0.40980   0.10711   0.00000  Uiso   1.00
O212   O     0.37296   0.62171   0.16019   0.00000  Uiso   1.00
O213   O     0.56012   0.46042   0.16667   0.00000  Uiso   1.00
O214   O     0.56012   0.53958   0.16667   0.00000  Uiso   1.00
O215   O     0.43988   0.46042   0.16666   0.00000  Uiso   1.00
O216   O     0.50000   0.53959   0.09613   0.00000  Uiso   1.00
O217   O     0.50000   0.46041   0.23720   0.00000  Uiso   1.00
O218   O     0.50000   0.53959   0.23720   0.00000  Uiso   1.00
O219   O     0.50000   0.46041   0.09613   0.00000  Uiso   1.00
O220   O     0.39448   0.40961   0.22595   0.00000  Uiso   1.00
C221   C     0.75423   0.50003   0.17078   0.00000  Uiso   1.00
C222   C     0.68772   0.54310   0.17275   0.00000  Uiso   1.00
C223   C     0.95740   0.50028   0.15841   0.00000  Uiso   1.00
C224   C     0.70927   0.50025   0.17492   0.00000  Uiso   1.00
C225   C     0.80825   0.35805   0.13450   0.00000  Uiso   1.00
C226   C     0.85805   0.64198   0.19924   0.00000  Uiso   1.00
C227   C     0.85841   0.35806   0.19883   0.00000  Uiso   1.00
C228   C     0.80861   0.64197   0.13409   0.00000  Uiso   1.00
C229   C     0.70717   0.41270   0.18774   0.00000  Uiso   1.00
C230   C     0.95802   0.58753   0.14695   0.00000  Uiso   1.00
C231   C     0.95945   0.41277   0.14531   0.00000  Uiso   1.00
C232   C     0.91243   0.50004   0.16255   0.00000  Uiso   1.00
C233   C     0.70869   0.58746   0.18664   0.00000  Uiso   1.00
C234   C     0.83325   0.50000   0.07359   0.00000  Uiso   1.00
C235   C     0.83342   0.50000   0.25974   0.00000  Uiso   1.00
C236   C     0.83330   0.50000   0.02186   0.00000  Uiso   1.00
C237   C     0.83336   0.50000   0.31147   0.00000  Uiso   1.00
C238   C     0.68748   0.45763   0.17334   0.00000  Uiso   1.00
C239   C     0.97897   0.54312   0.16071   0.00000  Uiso   1.00
C240   C     0.97916   0.45765   0.15986   0.00000  Uiso   1.00
Cl241  Cl    0.77474   0.38733   0.09275   0.00000  Uiso   1.00
Cl242  Cl    0.88987   0.61280   0.24293   0.00000  Uiso   1.00
Cl243  Cl    0.89193   0.38735   0.24057   0.00000  Uiso   1.00
Cl244  Cl    0.77677   0.61277   0.09043   0.00000  Uiso   1.00
Cu245  Cu    0.83333   0.54689   0.16667   0.00000  Uiso   1.00
Cu246  Cu    0.83333   0.45311   0.16667   0.00000  Uiso   1.00
H247   H     0.70242   0.38191   0.16524   0.00000  Uiso   1.00
H248   H     0.93875   0.58905   0.11361   0.00000  Uiso   1.00
H249   H     0.96421   0.38190   0.16768   0.00000  Uiso   1.00
H250   H     0.72793   0.58891   0.22000   0.00000  Uiso   1.00
N251   N     0.83333   0.61736   0.16667   0.00000  Uiso   1.00
N252   N     0.83333   0.38264   0.16667   0.00000  Uiso   1.00
O253   O     0.77321   0.53958   0.16666   0.00000  Uiso   1.00
O254   O     0.96049   0.62173   0.17346   0.00000  Uiso   1.00
O255   O     0.93878   0.40980   0.10711   0.00000  Uiso   1.00
O256   O     0.70629   0.62171   0.16019   0.00000  Uiso   1.00
O257   O     0.89345   0.46042   0.16667   0.00000  Uiso   1.00
O258   O     0.89345   0.53958   0.16667   0.00000  Uiso   1.00
O259   O     0.77321   0.46042   0.16666   0.00000  Uiso   1.00
O260   O     0.83333   0.53959   0.09613   0.00000  Uiso   1.00
O261   O     0.83333   0.46041   0.23720   0.00000  Uiso   1.00
O262   O     0.83333   0.53959   0.23720   0.00000  Uiso   1.00
O263   O     0.83333   0.46041   0.09613   0.00000  Uiso   1.00
O264   O     0.72781   0.40961   0.22595   0.00000  Uiso   1.00
C265   C     0.08757   0.83337   0.17078   0.00000  Uiso   1.00
C266   C     0.02105   0.87643   0.17275   0.00000  Uiso   1.00
C267   C     0.29073   0.83361   0.15841   0.00000  Uiso   1.00
C268   C     0.04260   0.83359   0.17492   0.00000  Uiso   1.00
C269   C     0.14159   0.69138   0.13450   0.00000  Uiso   1.00
C270   C     0.19138   0.97531   0.19924   0.00000  Uiso   1.00
C271   C     0.19175   0.69139   0.19883   0.00000  Uiso   1.00
C272   C     0.14195   0.97530   0.13409   0.00000  Uiso   1.00
C273   C     0.04050   0.74604   0.18774   0.00000  Uiso   1.00
C274   C     0.29135   0.92086   0.14695   0.00000  Uiso   1.00
C275   C     0.29278   0.74610   0.14531   0.00000  Uiso   1.00
C276   C     0.24577   0.83338   0.16255   0.00000  Uiso   1.00
C277   C     0.04203   0.92080   0.18664   0.00000  Uiso   1.00
C278   C     0.16658   0.83333   0.07359   0.00000  Uiso   1.00
C279   C     0.16675   0.83333   0.25974   0.00000  Uiso   1.00
C280   C     0.16664   0.83333   0.02186   0.00000  Uiso   1.00
C281   C     0.16670   0.83333   0.31147   0.00000  Uiso   1.00
C282   C     0.02082   0.79096   0.17334   0.00000  Uiso   1.00
C283   C     0.31230   0.87645   0.16071   0.00000  Uiso   1.00
C284   C     0.31250   0.79098   0.15986   0.00000  Uiso   1.00
Cl285  Cl    0.10808   0.72066   0.09275   0.00000  Uiso   1.00
Cl286  Cl    0.22320   0.94613   0.24293   0.00000  Uiso   1.00
Cl287  Cl    0.22527   0.72068   0.24057   0.00000  Uiso   1.00
Cl288  Cl    0.11011   0.94611   0.09043   0.00000  Uiso   1.00
Cu289  Cu    0.16667   0.88022   0.16667   0.00000  Uiso   1.00
Cu290  Cu    0.16667   0.78645   0.16667   0.00000  Uiso   1.00
H291   H     0.03575   0.71524   0.16524   0.00000  Uiso   1.00
H292   H     0.27209   0.92239   0.11361   0.00000  Uiso   1.00
H293   H     0.29754   0.71523   0.16768   0.00000  Uiso   1.00
H294   H     0.06126   0.92224   0.22000   0.00000  Uiso   1.00
N295   N     0.16667   0.95069   0.16667   0.00000  Uiso   1.00
N296   N     0.16667   0.71598   0.16667   0.00000  Uiso   1.00
O297   O     0.10655   0.87291   0.16666   0.00000  Uiso   1.00
O298   O     0.29382   0.95506   0.17346   0.00000  Uiso   1.00
O299   O     0.27211   0.74313   0.10711   0.00000  Uiso   1.00
O300   O     0.03963   0.95505   0.16019   0.00000  Uiso   1.00
O301   O     0.22679   0.79375   0.16667   0.00000  Uiso   1.00
O302   O     0.22679   0.87291   0.16667   0.00000  Uiso   1.00
O303   O     0.10655   0.79375   0.16666   0.00000  Uiso   1.00
O304   O     0.16667   0.87292   0.09613   0.00000  Uiso   1.00
O305   O     0.16667   0.79375   0.23720   0.00000  Uiso   1.00
O306   O     0.16667   0.87292   0.23720   0.00000  Uiso   1.00
O307   O     0.16667   0.79375   0.09613   0.00000  Uiso   1.00
O308   O     0.06114   0.74294   0.22595   0.00000  Uiso   1.00
C309   C     0.42090   0.83337   0.17078   0.00000  Uiso   1.00
C310   C     0.35439   0.87643   0.17275   0.00000  Uiso   1.00
C311   C     0.62406   0.83361   0.15841   0.00000  Uiso   1.00
C312   C     0.37593   0.83359   0.17492   0.00000  Uiso   1.00
C313   C     0.47492   0.69138   0.13450   0.00000  Uiso   1.00
C314   C     0.52472   0.97531   0.19924   0.00000  Uiso   1.00
C315   C     0.52508   0.69139   0.19883   0.00000  Uiso   1.00
C316   C     0.47528   0.97530   0.13409   0.00000  Uiso   1.00
C317   C     0.37384   0.74604   0.18774   0.00000  Uiso   1.00
C318   C     0.62469   0.92086   0.14695   0.00000  Uiso   1.00
C319   C     0.62612   0.74610   0.14531   0.00000  Uiso   1.00
C320   C     0.57910   0.83338   0.16255   0.00000  Uiso   1.00
C321   C     0.37536   0.92080   0.18664   0.00000  Uiso   1.00
C322   C     0.49991   0.83333   0.07359   0.00000  Uiso   1.00
C323   C     0.50009   0.83333   0.25974   0.00000  Uiso   1.00
C324   C     0.49997   0.83333   0.02186   0.00000  Uiso   1.00
C325   C     0.50003   0.83333   0.31147   0.00000  Uiso   1.00
C326   C     0.35415   0.79096   0.17334   0.00000  Uiso   1.00
C327   C     0.64563   0.87645   0.16071   0.00000  Uiso   1.00
C328   C     0.64583   0.79098   0.15986   0.00000  Uiso   1.00
Cl329  Cl    0.44141   0.72066   0.09275   0.00000  Uiso   1.00
Cl330  Cl    0.55654   0.94613   0.24293   0.00000  Uiso   1.00
Cl331  Cl    0.55860   0.72068   0.24057   0.00000  Uiso   1.00
Cl332  Cl    0.44344   0.94611   0.09043   0.00000  Uiso   1.00
Cu333  Cu    0.50000   0.88022   0.16667   0.00000  Uiso   1.00
Cu334  Cu    0.50000   0.78645   0.16667   0.00000  Uiso   1.00
H335   H     0.36909   0.71524   0.16524   0.00000  Uiso   1.00
H336   H     0.60542   0.92239   0.11361   0.00000  Uiso   1.00
H337   H     0.63087   0.71523   0.16768   0.00000  Uiso   1.00
H338   H     0.39460   0.92224   0.22000   0.00000  Uiso   1.00
N339   N     0.50000   0.95069   0.16667   0.00000  Uiso   1.00
N340   N     0.50000   0.71598   0.16667   0.00000  Uiso   1.00
O341   O     0.43988   0.87291   0.16666   0.00000  Uiso   1.00
O342   O     0.62716   0.95506   0.17346   0.00000  Uiso   1.00
O343   O     0.60544   0.74313   0.10711   0.00000  Uiso   1.00
O344   O     0.37296   0.95505   0.16019   0.00000  Uiso   1.00
O345   O     0.56012   0.79375   0.16667   0.00000  Uiso   1.00
O346   O     0.56012   0.87291   0.16667   0.00000  Uiso   1.00
O347   O     0.43988   0.79375   0.16666   0.00000  Uiso   1.00
O348   O     0.50000   0.87292   0.09613   0.00000  Uiso   1.00
O349   O     0.50000   0.79375   0.23720   0.00000  Uiso   1.00
O350   O     0.50000   0.87292   0.23720   0.00000  Uiso   1.00
O351   O     0.50000   0.79375   0.09613   0.00000  Uiso   1.00
O352   O     0.39448   0.74294   0.22595   0.00000  Uiso   1.00
C353   C     0.75423   0.83337   0.17078   0.00000  Uiso   1.00
C354   C     0.68772   0.87643   0.17275   0.00000  Uiso   1.00
C355   C     0.95740   0.83361   0.15841   0.00000  Uiso   1.00
C356   C     0.70927   0.83359   0.17492   0.00000  Uiso   1.00
C357   C     0.80825   0.69138   0.13450   0.00000  Uiso   1.00
C358   C     0.85805   0.97531   0.19924   0.00000  Uiso   1.00
C359   C     0.85841   0.69139   0.19883   0.00000  Uiso   1.00
C360   C     0.80861   0.97530   0.13409   0.00000  Uiso   1.00
C361   C     0.70717   0.74604   0.18774   0.00000  Uiso   1.00
C362   C     0.95802   0.92086   0.14695   0.00000  Uiso   1.00
C363   C     0.95945   0.74610   0.14531   0.00000  Uiso   1.00
C364   C     0.91243   0.83338   0.16255   0.00000  Uiso   1.00
C365   C     0.70869   0.92080   0.18664   0.00000  Uiso   1.00
C366   C     0.83325   0.83333   0.07359   0.00000  Uiso   1.00
C367   C     0.83342   0.83333   0.25974   0.00000  Uiso   1.00
C368   C     0.83330   0.83333   0.02186   0.00000  Uiso   1.00
C369   C     0.83336   0.83333   0.31147   0.00000  Uiso   1.00
C370   C     0.68748   0.79096   0.17334   0.00000  Uiso   1.00
C371   C     0.97897   0.87645   0.16071   0.00000  Uiso   1.00
C372   C     0.97916   0.79098   0.15986   0.00000  Uiso   1.00
Cl373  Cl    0.77474   0.72066   0.09275   0.00000  Uiso   1.00
Cl374  Cl    0.88987   0.94613   0.24293   0.00000  Uiso   1.00
Cl375  Cl    0.89193   0.72068   0.24057   0.00000  Uiso   1.00
Cl376  Cl    0.77677   0.94611   0.09043   0.00000  Uiso   1.00
Cu377  Cu    0.83333   0.88022   0.16667   0.00000  Uiso   1.00
Cu378  Cu    0.83333   0.78645   0.16667   0.00000  Uiso   1.00
H379   H     0.70242   0.71524   0.16524   0.00000  Uiso   1.00
H380   H     0.93875   0.92239   0.11361   0.00000  Uiso   1.00
H381   H     0.96421   0.71523   0.16768   0.00000  Uiso   1.00
H382   H     0.72793   0.92224   0.22000   0.00000  Uiso   1.00
N383   N     0.83333   0.95069   0.16667   0.00000  Uiso   1.00
N384   N     0.83333   0.71598   0.16667   0.00000  Uiso   1.00
O385   O     0.77321   0.87291   0.16666   0.00000  Uiso   1.00
O386   O     0.96049   0.95506   0.17346   0.00000  Uiso   1.00
O387   O     0.93878   0.74313   0.10711   0.00000  Uiso   1.00
O388   O     0.70629   0.95505   0.16019   0.00000  Uiso   1.00
O389   O     0.89345   0.79375   0.16667   0.00000  Uiso   1.00
O390   O     0.89345   0.87291   0.16667   0.00000  Uiso   1.00
O391   O     0.77321   0.79375   0.16666   0.00000  Uiso   1.00
O392   O     0.83333   0.87292   0.09613   0.00000  Uiso   1.00
O393   O     0.83333   0.79375   0.23720   0.00000  Uiso   1.00
O394   O     0.83333   0.87292   0.23720   0.00000  Uiso   1.00
O395   O     0.83333   0.79375   0.09613   0.00000  Uiso   1.00
O396   O     0.72781   0.74294   0.22595   0.00000  Uiso   1.00
C397   C     0.08757   0.16670   0.50412   0.00000  Uiso   1.00
C398   C     0.02105   0.20976   0.50608   0.00000  Uiso   1.00
C399   C     0.29073   0.16695   0.49174   0.00000  Uiso   1.00
C400   C     0.04260   0.16692   0.50825   0.00000  Uiso   1.00
C401   C     0.14159   0.02472   0.46783   0.00000  Uiso   1.00
C402   C     0.19138   0.30865   0.53258   0.00000  Uiso   1.00
C403   C     0.19175   0.02473   0.53217   0.00000  Uiso   1.00
C404   C     0.14195   0.30863   0.46743   0.00000  Uiso   1.00
C405   C     0.04050   0.07937   0.52108   0.00000  Uiso   1.00
C406   C     0.29135   0.25419   0.48028   0.00000  Uiso   1.00
C407   C     0.29278   0.07944   0.47864   0.00000  Uiso   1.00
C408   C     0.24577   0.16671   0.49588   0.00000  Uiso   1.00
C409   C     0.04203   0.25413   0.51997   0.00000  Uiso   1.00
C410   C     0.16658   0.16667   0.40692   0.00000  Uiso   1.00
C411   C     0.16675   0.16667   0.59308   0.00000  Uiso   1.00
C412   C     0.16664   0.16666   0.35519   0.00000  Uiso   1.00
C413   C     0.16670   0.16666   0.64481   0.00000  Uiso   1.00
C414   C     0.02082   0.12429   0.50667   0.00000  Uiso   1.00
C415   C     0.31230   0.20978   0.49404   0.00000  Uiso   1.00
C416   C     0.31250   0.12431   0.49319   0.00000  Uiso   1.00
Cl417  Cl    0.10808   0.05399   0.42609   0.00000  Uiso   1.00
Cl418  Cl    0.22320   0.27947   0.57626   0.00000  Uiso   1.00
Cl419  Cl    0.22527   0.05402   0.57390   0.00000  Uiso   1.00
Cl420  Cl    0.11011   0.27944   0.42376   0.00000  Uiso   1.00
Cu421  Cu    0.16667   0.21355   0.50000   0.00000  Uiso   1.00
Cu422  Cu    0.16667   0.11978   0.50000   0.00000  Uiso   1.00
H423   H     0.03575   0.04857   0.49858   0.00000  Uiso   1.00
H424   H     0.27209   0.25572   0.44695   0.00000  Uiso   1.00
H425   H     0.29754   0.04857   0.50101   0.00000  Uiso   1.00
H426   H     0.06126   0.25558   0.55333   0.00000  Uiso   1.00
N427   N     0.16667   0.28402   0.50000   0.00000  Uiso   1.00
N428   N     0.16667   0.04931   0.50000   0.00000  Uiso   1.00
O429   O     0.10655   0.20625   0.50000   0.00000  Uiso   1.00
O430   O     0.29382   0.28840   0.50680   0.00000  Uiso   1.00
O431   O     0.27211   0.07647   0.44045   0.00000  Uiso   1.00
O432   O     0.03963   0.28838   0.49352   0.00000  Uiso   1.00
O433   O     0.22679   0.12709   0.50000   0.00000  Uiso   1.00
O434   O     0.22679   0.20625   0.50000   0.00000  Uiso   1.00
O435   O     0.10655   0.12709   0.50000   0.00000  Uiso   1.00
O436   O     0.16667   0.20625   0.42946   0.00000  Uiso   1.00
O437   O     0.16667   0.12708   0.57054   0.00000  Uiso   1.00
O438   O     0.16667   0.20625   0.57054   0.00000  Uiso   1.00
O439   O     0.16667   0.12708   0.42946   0.00000  Uiso   1.00
O440   O     0.06114   0.07627   0.55929   0.00000  Uiso   1.00
C441   C     0.42090   0.16670   0.50412   0.00000  Uiso   1.00
C442   C     0.35439   0.20976   0.50608   0.00000  Uiso   1.00
C443   C     0.62406   0.16695   0.49174   0.00000  Uiso   1.00
C444   C     0.37593   0.16692   0.50825   0.00000  Uiso   1.00
C445   C     0.47492   0.02472   0.46783   0.00000  Uiso   1.00
C446   C     0.52472   0.30865   0.53258   0.00000  Uiso   1.00
C447   C     0.52508   0.02473   0.53217   0.00000  Uiso   1.00
C448   C     0.47528   0.30863   0.46743   0.00000  Uiso   1.00
C449   C     0.37384   0.07937   0.52108   0.00000  Uiso   1.00
C450   C     0.62469   0.25419   0.48028   0.00000  Uiso   1.00
C451   C     0.62612   0.07944   0.47864   0.00000  Uiso   1.00
C452   C     0.57910   0.16671   0.49588   0.00000  Uiso   1.00
C453   C     0.37536   0.25413   0.51997   0.00000  Uiso   1.00
C454   C     0.49991   0.16667   0.40692   0.00000  Uiso   1.00
C455   C     0.50009   0.16667   0.59308   0.00000  Uiso   1.00
C456   C     0.49997   0.16666   0.35519   0.00000  Uiso   1.00
C457   C     0.50003   0.16666   0.64481   0.00000  Uiso   1.00
C458   C     0.35415   0.12429   0.50667   0.00000  Uiso   1.00
C459   C     0.64563   0.20978   0.49404   0.00000  Uiso   1.00
C460   C     0.64583   0.12431   0.49319   0.00000  Uiso   1.00
Cl461  Cl    0.44141   0.05399   0.42609   0.00000  Uiso   1.00
Cl462  Cl    0.55654   0.27947   0.57626   0.00000  Uiso   1.00
Cl463  Cl    0.55860   0.05402   0.57390   0.00000  Uiso   1.00
Cl464  Cl    0.44344   0.27944   0.42376   0.00000  Uiso   1.00
Cu465  Cu    0.50000   0.21355   0.50000   0.00000  Uiso   1.00
Cu466  Cu    0.50000   0.11978   0.50000   0.00000  Uiso   1.00
H467   H     0.36909   0.04857   0.49858   0.00000  Uiso   1.00
H468   H     0.60542   0.25572   0.44695   0.00000  Uiso   1.00
H469   H     0.63087   0.04857   0.50101   0.00000  Uiso   1.00
H470   H     0.39460   0.25558   0.55333   0.00000  Uiso   1.00
N471   N     0.50000   0.28402   0.50000   0.00000  Uiso   1.00
N472   N     0.50000   0.04931   0.50000   0.00000  Uiso   1.00
O473   O     0.43988   0.20625   0.50000   0.00000  Uiso   1.00
O474   O     0.62716   0.28840   0.50680   0.00000  Uiso   1.00
O475   O     0.60544   0.07647   0.44045   0.00000  Uiso   1.00
O476   O     0.37296   0.28838   0.49352   0.00000  Uiso   1.00
O477   O     0.56012   0.12709   0.50000   0.00000  Uiso   1.00
O478   O     0.56012   0.20625   0.50000   0.00000  Uiso   1.00
O479   O     0.43988   0.12709   0.50000   0.00000  Uiso   1.00
O480   O     0.50000   0.20625   0.42946   0.00000  Uiso   1.00
O481   O     0.50000   0.12708   0.57054   0.00000  Uiso   1.00
O482   O     0.50000   0.20625   0.57054   0.00000  Uiso   1.00
O483   O     0.50000   0.12708   0.42946   0.00000  Uiso   1.00
O484   O     0.39448   0.07627   0.55929   0.00000  Uiso   1.00
C485   C     0.75423   0.16670   0.50412   0.00000  Uiso   1.00
C486   C     0.68772   0.20976   0.50608   0.00000  Uiso   1.00
C487   C     0.95740   0.16695   0.49174   0.00000  Uiso   1.00
C488   C     0.70927   0.16692   0.50825   0.00000  Uiso   1.00
C489   C     0.80825   0.02472   0.46783   0.00000  Uiso   1.00
C490   C     0.85805   0.30865   0.53258   0.00000  Uiso   1.00
C491   C     0.85841   0.02473   0.53217   0.00000  Uiso   1.00
C492   C     0.80861   0.30863   0.46743   0.00000  Uiso   1.00
C493   C     0.70717   0.07937   0.52108   0.00000  Uiso   1.00
C494   C     0.95802   0.25419   0.48028   0.00000  Uiso   1.00
C495   C     0.95945   0.07944   0.47864   0.00000  Uiso   1.00
C496   C     0.91243   0.16671   0.49588   0.00000  Uiso   1.00
C497   C     0.70869   0.25413   0.51997   0.00000  Uiso   1.00
C498   C     0.83325   0.16667   0.40692   0.00000  Uiso   1.00
C499   C     0.83342   0.16667   0.59308   0.00000  Uiso   1.00
C500   C     0.83330   0.16666   0.35519   0.00000  Uiso   1.00
C501   C     0.83336   0.16666   0.64481   0.00000  Uiso   1.00
C502   C     0.68748   0.12429   0.50667   0.00000  Uiso   1.00
C503   C     0.97897   0.20978   0.49404   0.00000  Uiso   1.00
C504   C     0.97916   0.12431   0.49319   0.00000  Uiso   1.00
Cl505  Cl    0.77474   0.05399   0.42609   0.00000  Uiso   1.00
Cl506  Cl    0.88987   0.27947   0.57626   0.00000  Uiso   1.00
Cl507  Cl    0.89193   0.05402   0.57390   0.00000  Uiso   1.00
Cl508  Cl    0.77677   0.27944   0.42376   0.00000  Uiso   1.00
Cu509  Cu    0.83333   0.21355   0.50000   0.00000  Uiso   1.00
Cu510  Cu    0.83333   0.11978   0.50000   0.00000  Uiso   1.00
H511   H     0.70242   0.04857   0.49858   0.00000  Uiso   1.00
H512   H     0.93875   0.25572   0.44695   0.00000  Uiso   1.00
H513   H     0.96421   0.04857   0.50101   0.00000  Uiso   1.00
H514   H     0.72793   0.25558   0.55333   0.00000  Uiso   1.00
N515   N     0.83333   0.28402   0.50000   0.00000  Uiso   1.00
N516   N     0.83333   0.04931   0.50000   0.00000  Uiso   1.00
O517   O     0.77321   0.20625   0.50000   0.00000  Uiso   1.00
O518   O     0.96049   0.28840   0.50680   0.00000  Uiso   1.00
O519   O     0.93878   0.07647   0.44045   0.00000  Uiso   1.00
O520   O     0.70629   0.28838   0.49352   0.00000  Uiso   1.00
O521   O     0.89345   0.12709   0.50000   0.00000  Uiso   1.00
O522   O     0.89345   0.20625   0.50000   0.00000  Uiso   1.00
O523   O     0.77321   0.12709   0.50000   0.00000  Uiso   1.00
O524   O     0.83333   0.20625   0.42946   0.00000  Uiso   1.00
O525   O     0.83333   0.12708   0.57054   0.00000  Uiso   1.00
O526   O     0.83333   0.20625   0.57054   0.00000  Uiso   1.00
O527   O     0.83333   0.12708   0.42946   0.00000  Uiso   1.00
O528   O     0.72781   0.07627   0.55929   0.00000  Uiso   1.00
C529   C     0.08757   0.50003   0.50412   0.00000  Uiso   1.00
C530   C     0.02105   0.54310   0.50608   0.00000  Uiso   1.00
C531   C     0.29073   0.50028   0.49174   0.00000  Uiso   1.00
C532   C     0.04260   0.50025   0.50825   0.00000  Uiso   1.00
C533   C     0.14159   0.35805   0.46783   0.00000  Uiso   1.00
C534   C     0.19138   0.64198   0.53258   0.00000  Uiso   1.00
C535   C     0.19175   0.35806   0.53217   0.00000  Uiso   1.00
C536   C     0.14195   0.64197   0.46743   0.00000  Uiso   1.00
C537   C     0.04050   0.41270   0.52108   0.00000  Uiso   1.00
C538   C     0.29135   0.58753   0.48028   0.00000  Uiso   1.00
C539   C     0.29278   0.41277   0.47864   0.00000  Uiso   1.00
C540   C     0.24577   0.50004   0.49588   0.00000  Uiso   1.00
C541   C     0.04203   0.58746   0.51997   0.00000  Uiso   1.00
C542   C     0.16658   0.50000   0.40692   0.00000  Uiso   1.00
C543   C     0.16675   0.50000   0.59308   0.00000  Uiso   1.00
C544   C     0.16664   0.50000   0.35519   0.00000  Uiso   1.00
C545   C     0.16670   0.50000   0.64481   0.00000  Uiso   1.00
C546   C     0.02082   0.45763   0.50667   0.00000  Uiso   1.00
C547   C     0.31230   0.54312   0.49404   0.00000  Uiso   1.00
C548   C     0.31250   0.45765   0.49319   0.00000  Uiso   1.00
Cl549  Cl    0.10808   0.38733   0.42609   0.00000  Uiso   1.00
Cl550  Cl    0.22320   0.61280   0.57626   0.00000  Uiso   1.00
Cl551  Cl    0.22527   0.38735   0.57390   0.00000  Uiso   1.00
Cl552  Cl    0.11011   0.61277   0.42376   0.00000  Uiso   1.00
Cu553  Cu    0.16667   0.54689   0.50000   0.00000  Uiso   1.00
Cu554  Cu    0.16667   0.45311   0.50000   0.00000  Uiso   1.00
H555   H     0.03575   0.38191   0.49858   0.00000  Uiso   1.00
H556   H     0.27209   0.58905   0.44695   0.00000  Uiso   1.00
H557   H     0.29754   0.38190   0.50101   0.00000  Uiso   1.00
H558   H     0.06126   0.58891   0.55333   0.00000  Uiso   1.00
N559   N     0.16667   0.61736   0.50000   0.00000  Uiso   1.00
N560   N     0.16667   0.38264   0.50000   0.00000  Uiso   1.00
O561   O     0.10655   0.53958   0.50000   0.00000  Uiso   1.00
O562   O     0.29382   0.62173   0.50680   0.00000  Uiso   1.00
O563   O     0.27211   0.40980   0.44045   0.00000  Uiso   1.00
O564   O     0.03963   0.62171   0.49352   0.00000  Uiso   1.00
O565   O     0.22679   0.46042   0.50000   0.00000  Uiso   1.00
O566   O     0.22679   0.53958   0.50000   0.00000  Uiso   1.00
O567   O     0.10655   0.46042   0.50000   0.00000  Uiso   1.00
O568   O     0.16667   0.53959   0.42946   0.00000  Uiso   1.00
O569   O     0.16667   0.46041   0.57054   0.00000  Uiso   1.00
O570   O     0.16667   0.53959   0.57054   0.00000  Uiso   1.00
O571   O     0.16667   0.46041   0.42946   0.00000  Uiso   1.00
O572   O     0.06114   0.40961   0.55929   0.00000  Uiso   1.00
C573   C     0.42090   0.50003   0.50412   0.00000  Uiso   1.00
C574   C     0.35439   0.54310   0.50608   0.00000  Uiso   1.00
C575   C     0.62406   0.50028   0.49174   0.00000  Uiso   1.00
C576   C     0.37593   0.50025   0.50825   0.00000  Uiso   1.00
C577   C     0.47492   0.35805   0.46783   0.00000  Uiso   1.00
C578   C     0.52472   0.64198   0.53258   0.00000  Uiso   1.00
C579   C     0.52508   0.35806   0.53217   0.00000  Uiso   1.00
C580   C     0.47528   0.64197   0.46743   0.00000  Uiso   1.00
C581   C     0.37384   0.41270   0.52108   0.00000  Uiso   1.00
C582   C     0.62469   0.58753   0.48028   0.00000  Uiso   1.00
C583   C     0.62612   0.41277   0.47864   0.00000  Uiso   1.00
C584   C     0.57910   0.50004   0.49588   0.00000  Uiso   1.00
C585   C     0.37536   0.58746   0.51997   0.00000  Uiso   1.00
C586   C     0.49991   0.50000   0.40692   0.00000  Uiso   1.00
C587   C     0.50009   0.50000   0.59308   0.00000  Uiso   1.00
C588   C     0.49997   0.50000   0.35519   0.00000  Uiso   1.00
C589   C     0.50003   0.50000   0.64481   0.00000  Uiso   1.00
C590   C     0.35415   0.45763   0.50667   0.00000  Uiso   1.00
C591   C     0.64563   0.54312   0.49404   0.00000  Uiso   1.00
C592   C     0.64583   0.45765   0.49319   0.00000  Uiso   1.00
Cl593  Cl    0.44141   0.38733   0.42609   0.00000  Uiso   1.00
Cl594  Cl    0.55654   0.61280   0.57626   0.00000  Uiso   1.00
Cl595  Cl    0.55860   0.38735   0.57390   0.00000  Uiso   1.00
Cl596  Cl    0.44344   0.61277   0.42376   0.00000  Uiso   1.00
Cu597  Cu    0.50000   0.54689   0.50000   0.00000  Uiso   1.00
Cu598  Cu    0.50000   0.45311   0.50000   0.00000  Uiso   1.00
H599   H     0.36909   0.38191   0.49858   0.00000  Uiso   1.00
H600   H     0.60542   0.58905   0.44695   0.00000  Uiso   1.00
H601   H     0.63087   0.38190   0.50101   0.00000  Uiso   1.00
H602   H     0.39460   0.58891   0.55333   0.00000  Uiso   1.00
N603   N     0.50000   0.61736   0.50000   0.00000  Uiso   1.00
N604   N     0.50000   0.38264   0.50000   0.00000  Uiso   1.00
O605   O     0.43988   0.53958   0.50000   0.00000  Uiso   1.00
O606   O     0.62716   0.62173   0.50680   0.00000  Uiso   1.00
O607   O     0.60544   0.40980   0.44045   0.00000  Uiso   1.00
O608   O     0.37296   0.62171   0.49352   0.00000  Uiso   1.00
O609   O     0.56012   0.46042   0.50000   0.00000  Uiso   1.00
O610   O     0.56012   0.53958   0.50000   0.00000  Uiso   1.00
O611   O     0.43988   0.46042   0.50000   0.00000  Uiso   1.00
O612   O     0.50000   0.53959   0.42946   0.00000  Uiso   1.00
O613   O     0.50000   0.46041   0.57054   0.00000  Uiso   1.00
O614   O     0.50000   0.53959   0.57054   0.00000  Uiso   1.00
O615   O     0.50000   0.46041   0.42946   0.00000  Uiso   1.00
O616   O     0.39448   0.40961   0.55929   0.00000  Uiso   1.00
C617   C     0.75423   0.50003   0.50412   0.00000  Uiso   1.00
C618   C     0.68772   0.54310   0.50608   0.00000  Uiso   1.00
C619   C     0.95740   0.50028   0.49174   0.00000  Uiso   1.00
C620   C     0.70927   0.50025   0.50825   0.00000  Uiso   1.00
C621   C     0.80825   0.35805   0.46783   0.00000  Uiso   1.00
C622   C     0.85805   0.64198   0.53258   0.00000  Uiso   1.00
C623   C     0.85841   0.35806   0.53217   0.00000  Uiso   1.00
C624   C     0.80861   0.64197   0.46743   0.00000  Uiso   1.00
C625   C     0.70717   0.41270   0.52108   0.00000  Uiso   1.00
C626   C     0.95802   0.58753   0.48028   0.00000  Uiso   1.00
C627   C     0.95945   0.41277   0.47864   0.00000  Uiso   1.00
C628   C     0.91243   0.50004   0.49588   0.00000  Uiso   1.00
C629   C     0.70869   0.58746   0.51997   0.00000  Uiso   1.00
C630   C     0.83325   0.50000   0.40692   0.00000  Uiso   1.00
C631   C     0.83342   0.50000   0.59308   0.00000  Uiso   1.00
C632   C     0.83330   0.50000   0.35519   0.00000  Uiso   1.00
C633   C     0.83336   0.50000   0.64481   0.00000  Uiso   1.00
C634   C     0.68748   0.45763   0.50667   0.00000  Uiso   1.00
C635   C     0.97897   0.54312   0.49404   0.00000  Uiso   1.00
C636   C     0.97916   0.45765   0.49319   0.00000  Uiso   1.00
Cl637  Cl    0.77474   0.38733   0.42609   0.00000  Uiso   1.00
Cl638  Cl    0.88987   0.61280   0.57626   0.00000  Uiso   1.00
Cl639  Cl    0.89193   0.38735   0.57390   0.00000  Uiso   1.00
Cl640  Cl    0.77677   0.61277   0.42376   0.00000  Uiso   1.00
Cu641  Cu    0.83333   0.54689   0.50000   0.00000  Uiso   1.00
Cu642  Cu    0.83333   0.45311   0.50000   0.00000  Uiso   1.00
H643   H     0.70242   0.38191   0.49858   0.00000  Uiso   1.00
H644   H     0.93875   0.58905   0.44695   0.00000  Uiso   1.00
H645   H     0.96421   0.38190   0.50101   0.00000  Uiso   1.00
H646   H     0.72793   0.58891   0.55333   0.00000  Uiso   1.00
N647   N     0.83333   0.61736   0.50000   0.00000  Uiso   1.00
N648   N     0.83333   0.38264   0.50000   0.00000  Uiso   1.00
O649   O     0.77321   0.53958   0.50000   0.00000  Uiso   1.00
O650   O     0.96049   0.62173   0.50680   0.00000  Uiso   1.00
O651   O     0.93878   0.40980   0.44045   0.00000  Uiso   1.00
O652   O     0.70629   0.62171   0.49352   0.00000  Uiso   1.00
O653   O     0.89345   0.46042   0.50000   0.00000  Uiso   1.00
O654   O     0.89345   0.53958   0.50000   0.00000  Uiso   1.00
O655   O     0.77321   0.46042   0.50000   0.00000  Uiso   1.00
O656   O     0.83333   0.53959   0.42946   0.00000  Uiso   1.00
O657   O     0.83333   0.46041   0.57054   0.00000  Uiso   1.00
O658   O     0.83333   0.53959   0.57054   0.00000  Uiso   1.00
O659   O     0.83333   0.46041   0.42946   0.00000  Uiso   1.00
O660   O     0.72781   0.40961   0.55929   0.00000  Uiso   1.00
C661   C     0.08757   0.83337   0.50412   0.00000  Uiso   1.00
C662   C     0.02105   0.87643   0.50608   0.00000  Uiso   1.00
C663   C     0.29073   0.83361   0.49174   0.00000  Uiso   1.00
C664   C     0.04260   0.83359   0.50825   0.00000  Uiso   1.00
C665   C     0.14159   0.69138   0.46783   0.00000  Uiso   1.00
C666   C     0.19138   0.97531   0.53258   0.00000  Uiso   1.00
C667   C     0.19175   0.69139   0.53217   0.00000  Uiso   1.00
C668   C     0.14195   0.97530   0.46743   0.00000  Uiso   1.00
C669   C     0.04050   0.74604   0.52108   0.00000  Uiso   1.00
C670   C     0.29135   0.92086   0.48028   0.00000  Uiso   1.00
C671   C     0.29278   0.74610   0.47864   0.00000  Uiso   1.00
C672   C     0.24577   0.83338   0.49588   0.00000  Uiso   1.00
C673   C     0.04203   0.92080   0.51997   0.00000  Uiso   1.00
C674   C     0.16658   0.83333   0.40692   0.00000  Uiso   1.00
C675   C     0.16675   0.83333   0.59308   0.00000  Uiso   1.00
C676   C     0.16664   0.83333   0.35519   0.00000  Uiso   1.00
C677   C     0.16670   0.83333   0.64481   0.00000  Uiso   1.00
C678   C     0.02082   0.79096   0.50667   0.00000  Uiso   1.00
C679   C     0.31230   0.87645   0.49404   0.00000  Uiso   1.00
C680   C     0.31250   0.79098   0.49319   0.00000  Uiso   1.00
Cl681  Cl    0.10808   0.72066   0.42609   0.00000  Uiso   1.00
Cl682  Cl    0.22320   0.94613   0.57626   0.00000  Uiso   1.00
Cl683  Cl    0.22527   0.72068   0.57390   0.00000  Uiso   1.00
Cl684  Cl    0.11011   0.94611   0.42376   0.00000  Uiso   1.00
Cu685  Cu    0.16667   0.88022   0.50000   0.00000  Uiso   1.00
Cu686  Cu    0.16667   0.78645   0.50000   0.00000  Uiso   1.00
H687   H     0.03575   0.71524   0.49858   0.00000  Uiso   1.00
H688   H     0.27209   0.92239   0.44695   0.00000  Uiso   1.00
H689   H     0.29754   0.71523   0.50101   0.00000  Uiso   1.00
H690   H     0.06126   0.92224   0.55333   0.00000  Uiso   1.00
N691   N     0.16667   0.95069   0.50000   0.00000  Uiso   1.00
N692   N     0.16667   0.71598   0.50000   0.00000  Uiso   1.00
O693   O     0.10655   0.87291   0.50000   0.00000  Uiso   1.00
O694   O     0.29382   0.95506   0.50680   0.00000  Uiso   1.00
O695   O     0.27211   0.74313   0.44045   0.00000  Uiso   1.00
O696   O     0.03963   0.95505   0.49352   0.00000  Uiso   1.00
O697   O     0.22679   0.79375   0.50000   0.00000  Uiso   1.00
O698   O     0.22679   0.87291   0.50000   0.00000  Uiso   1.00
O699   O     0.10655   0.79375   0.50000   0.00000  Uiso   1.00
O700   O     0.16667   0.87292   0.42946   0.00000  Uiso   1.00
O701   O     0.16667   0.79375   0.57054   0.00000  Uiso   1.00
O702   O     0.16667   0.87292   0.57054   0.00000  Uiso   1.00
O703   O     0.16667   0.79375   0.42946   0.00000  Uiso   1.00
O704   O     0.06114   0.74294   0.55929   0.00000  Uiso   1.00
C705   C     0.42090   0.83337   0.50412   0.00000  Uiso   1.00
C706   C     0.35439   0.87643   0.50608   0.00000  Uiso   1.00
C707   C     0.62406   0.83361   0.49174   0.00000  Uiso   1.00
C708   C     0.37593   0.83359   0.50825   0.00000  Uiso   1.00
C709   C     0.47492   0.69138   0.46783   0.00000  Uiso   1.00
C710   C     0.52472   0.97531   0.53258   0.00000  Uiso   1.00
C711   C     0.52508   0.69139   0.53217   0.00000  Uiso   1.00
C712   C     0.47528   0.97530   0.46743   0.00000  Uiso   1.00
C713   C     0.37384   0.74604   0.52108   0.00000  Uiso   1.00
C714   C     0.62469   0.92086   0.48028   0.00000  Uiso   1.00
C715   C     0.62612   0.74610   0.47864   0.00000  Uiso   1.00
C716   C     0.57910   0.83338   0.49588   0.00000  Uiso   1.00
C717   C     0.37536   0.92080   0.51997   0.00000  Uiso   1.00
C718   C     0.49991   0.83333   0.40692   0.00000  Uiso   1.00
C719   C     0.50009   0.83333   0.59308   0.00000  Uiso   1.00
C720   C     0.49997   0.83333   0.35519   0.00000  Uiso   1.00
C721   C     0.50003   0.83333   0.64481   0.00000  Uiso   1.00
C722   C     0.35415   0.79096   0.50667   0.00000  Uiso   1.00
C723   C     0.64563   0.87645   0.49404   0.00000  Uiso   1.00
C724   C     0.64583   0.79098   0.49319   0.00000  Uiso   1.00
Cl725  Cl    0.44141   0.72066   0.42609   0.00000  Uiso   1.00
Cl726  Cl    0.55654   0.94613   0.57626   0.00000  Uiso   1.00
Cl727  Cl    0.55860   0.72068   0.57390   0.00000  Uiso   1.00
Cl728  Cl    0.44344   0.94611   0.42376   0.00000  Uiso   1.00
Cu729  Cu    0.50000   0.88022   0.50000   0.00000  Uiso   1.00
Cu730  Cu    0.50000   0.78645   0.50000   0.00000  Uiso   1.00
H731   H     0.36909   0.71524   0.49858   0.00000  Uiso   1.00
H732   H     0.60542   0.92239   0.44695   0.00000  Uiso   1.00
H733   H     0.63087   0.71523   0.50101   0.00000  Uiso   1.00
H734   H     0.39460   0.92224   0.55333   0.00000  Uiso   1.00
N735   N     0.50000   0.95069   0.50000   0.00000  Uiso   1.00
N736   N     0.50000   0.71598   0.50000   0.00000  Uiso   1.00
O737   O     0.43988   0.87291   0.50000   0.00000  Uiso   1.00
O738   O     0.62716   0.95506   0.50680   0.00000  Uiso   1.00
O739   O     0.60544   0.74313   0.44045   0.00000  Uiso   1.00
O740   O     0.37296   0.95505   0.49352   0.00000  Uiso   1.00
O741   O     0.56012   0.79375   0.50000   0.00000  Uiso   1.00
O742   O     0.56012   0.87291   0.50000   0.00000  Uiso   1.00
O743   O     0.43988   0.79375   0.50000   0.00000  Uiso   1.00
O744   O     0.50000   0.87292   0.42946   0.00000  Uiso   1.00
O745   O     0.50000   0.79375   0.57054   0.00000  Uiso   1.00
O746   O     0.50000   0.87292   0.57054   0.00000  Uiso   1.00
O747   O     0.50000   0.79375   0.42946   0.00000  Uiso   1.00
O748   O     0.39448   0.74294   0.55929   0.00000  Uiso   1.00
C749   C     0.75423   0.83337   0.50412   0.00000  Uiso   1.00
C750   C     0.68772   0.87643   0.50608   0.00000  Uiso   1.00
C751   C     0.95740   0.83361   0.49174   0.00000  Uiso   1.00
C752   C     0.70927   0.83359   0.50825   0.00000  Uiso   1.00
C753   C     0.80825   0.69138   0.46783   0.00000  Uiso   1.00
C754   C     0.85805   0.97531   0.53258   0.00000  Uiso   1.00
C755   C     0.85841   0.69139   0.53217   0.00000  Uiso   1.00
C756   C     0.80861   0.97530   0.46743   0.00000  Uiso   1.00
C757   C     0.70717   0.74604   0.52108   0.00000  Uiso   1.00
C758   C     0.95802   0.92086   0.48028   0.00000  Uiso   1.00
C759   C     0.95945   0.74610   0.47864   0.00000  Uiso   1.00
C760   C     0.91243   0.83338   0.49588   0.00000  Uiso   1.00
C761   C     0.70869   0.92080   0.51997   0.00000  Uiso   1.00
C762   C     0.83325   0.83333   0.40692   0.00000  Uiso   1.00
C763   C     0.83342   0.83333   0.59308   0.00000  Uiso   1.00
C764   C     0.83330   0.83333   0.35519   0.00000  Uiso   1.00
C765   C     0.83336   0.83333   0.64481   0.00000  Uiso   1.00
C766   C     0.68748   0.79096   0.50667   0.00000  Uiso   1.00
C767   C     0.97897   0.87645   0.49404   0.00000  Uiso   1.00
C768   C     0.97916   0.79098   0.49319   0.00000  Uiso   1.00
Cl769  Cl    0.77474   0.72066   0.42609   0.00000  Uiso   1.00
Cl770  Cl    0.88987   0.94613   0.57626   0.00000  Uiso   1.00
Cl771  Cl    0.89193   0.72068   0.57390   0.00000  Uiso   1.00
Cl772  Cl    0.77677   0.94611   0.42376   0.00000  Uiso   1.00
Cu773  Cu    0.83333   0.88022   0.50000   0.00000  Uiso   1.00
Cu774  Cu    0.83333   0.78645   0.50000   0.00000  Uiso   1.00
H775   H     0.70242   0.71524   0.49858   0.00000  Uiso   1.00
H776   H     0.93875   0.92239   0.44695   0.00000  Uiso   1.00
H777   H     0.96421   0.71523   0.50101   0.00000  Uiso   1.00
H778   H     0.72793   0.92224   0.55333   0.00000  Uiso   1.00
N779   N     0.83333   0.95069   0.50000   0.00000  Uiso   1.00
N780   N     0.83333   0.71598   0.50000   0.00000  Uiso   1.00
O781   O     0.77321   0.87291   0.50000   0.00000  Uiso   1.00
O782   O     0.96049   0.95506   0.50680   0.00000  Uiso   1.00
O783   O     0.93878   0.74313   0.44045   0.00000  Uiso   1.00
O784   O     0.70629   0.95505   0.49352   0.00000  Uiso   1.00
O785   O     0.89345   0.79375   0.50000   0.00000  Uiso   1.00
O786   O     0.89345   0.87291   0.50000   0.00000  Uiso   1.00
O787   O     0.77321   0.79375   0.50000   0.00000  Uiso   1.00
O788   O     0.83333   0.87292   0.42946   0.00000  Uiso   1.00
O789   O     0.83333   0.79375   0.57054   0.00000  Uiso   1.00
O790   O     0.83333   0.87292   0.57054   0.00000  Uiso   1.00
O791   O     0.83333   0.79375   0.42946   0.00000  Uiso   1.00
O792   O     0.72781   0.74294   0.55929   0.00000  Uiso   1.00
C793   C     0.08757   0.16670   0.83745   0.00000  Uiso   1.00
C794   C     0.02105   0.20976   0.83942   0.00000  Uiso   1.00
C795   C     0.29073   0.16695   0.82508   0.00000  Uiso   1.00
C796   C     0.04260   0.16692   0.84159   0.00000  Uiso   1.00
C797   C     0.14159   0.02472   0.80117   0.00000  Uiso   1.00
C798   C     0.19138   0.30865   0.86591   0.00000  Uiso   1.00
C799   C     0.19175   0.02473   0.86550   0.00000  Uiso   1.00
C800   C     0.14195   0.30863   0.80076   0.00000  Uiso   1.00
C801   C     0.04050   0.07937   0.85441   0.00000  Uiso   1.00
C802   C     0.29135   0.25419   0.81361   0.00000  Uiso   1.00
C803   C     0.29278   0.07944   0.81197   0.00000  Uiso   1.00
C804   C     0.24577   0.16671   0.82922   0.00000  Uiso   1.00
C805   C     0.04203   0.25413   0.85331   0.00000  Uiso   1.00
C806   C     0.16658   0.16667   0.74026   0.00000  Uiso   1.00
C807   C     0.16675   0.16667   0.92641   0.00000  Uiso   1.00
C808   C     0.16664   0.16666   0.68853   0.00000  Uiso   1.00
C809   C     0.16670   0.16666   0.97814   0.00000  Uiso   1.00
C810   C     0.02082   0.12429   0.84001   0.00000  Uiso   1.00
C811   C     0.31230   0.20978   0.82738   0.00000  Uiso   1.00
C812   C     0.31250   0.12431   0.82652   0.00000  Uiso   1.00
Cl813  Cl    0.10808   0.05399   0.75942   0.00000  Uiso   1.00
Cl814  Cl    0.22320   0.27947   0.90960   0.00000  Uiso   1.00
Cl815  Cl    0.22527   0.05402   0.90724   0.00000  Uiso   1.00
Cl816  Cl    0.11011   0.27944   0.75709   0.00000  Uiso   1.00
Cu817  Cu    0.16667   0.21355   0.83333   0.00000  Uiso   1.00
Cu818  Cu    0.16667   0.11978   0.83333   0.00000  Uiso   1.00
H819   H     0.03575   0.04857   0.83191   0.00000  Uiso   1.00
H820   H     0.27209   0.25572   0.78028   0.00000  Uiso   1.00
H821   H     0.29754   0.04857   0.83435   0.00000  Uiso   1.00
H822   H     0.06126   0.25558   0.88667   0.00000  Uiso   1.00
N823   N     0.16667   0.28402   0.83333   0.00000  Uiso   1.00
N824   N     0.16667   0.04931   0.83333   0.00000  Uiso   1.00
O825   O     0.10655   0.20625   0.83333   0.00000  Uiso   1.00
O826   O     0.29382   0.28840   0.84013   0.00000  Uiso   1.00
O827   O     0.27211   0.07647   0.77378   0.00000  Uiso   1.00
O828   O     0.03963   0.28838   0.82686   0.00000  Uiso   1.00
O829   O     0.22679   0.12709   0.83334   0.00000  Uiso   1.00
O830   O     0.22679   0.20625   0.83334   0.00000  Uiso   1.00
O831   O     0.10655   0.12709   0.83333   0.00000  Uiso   1.00
O832   O     0.16667   0.20625   0.76280   0.00000  Uiso   1.00
O833   O     0.16667   0.12708   0.90387   0.00000  Uiso   1.00
O834   O     0.16667   0.20625   0.90387   0.00000  Uiso   1.00
O835   O     0.16667   0.12708   0.76280   0.00000  Uiso   1.00
O836   O     0.06114   0.07627   0.89262   0.00000  Uiso   1.00
C837   C     0.42090   0.16670   0.83745   0.00000  Uiso   1.00
C838   C     0.35439   0.20976   0.83942   0.00000  Uiso   1.00
C839   C     0.62406   0.16695   0.82508   0.00000  Uiso   1.00
C840   C     0.37593   0.16692   0.84159   0.00000  Uiso   1.00
C841   C     0.47492   0.02472   0.80117   0.00000  Uiso   1.00
C842   C     0.52472   0.30865   0.86591   0.00000  Uiso   1.00
C843   C     0.52508   0.02473   0.86550   0.00000  Uiso   1.00
C844   C     0.47528   0.30863   0.80076   0.00000  Uiso   1.00
C845   C     0.37384   0.07937   0.85441   0.00000  Uiso   1.00
C846   C     0.62469   0.25419   0.81361   0.00000  Uiso   1.00
C847   C     0.62612   0.07944   0.81197   0.00000  Uiso   1.00
C848   C     0.57910   0.16671   0.82922   0.00000  Uiso   1.00
C849   C     0.37536   0.25413   0.85331   0.00000  Uiso   1.00
C850   C     0.49991   0.16667   0.74026   0.00000  Uiso   1.00
C851   C     0.50009   0.16667   0.92641   0.00000  Uiso   1.00
C852   C     0.49997   0.16666   0.68853   0.00000  Uiso   1.00
C853   C     0.50003   0.16666   0.97814   0.00000  Uiso   1.00
C854   C     0.35415   0.12429   0.84001   0.00000  Uiso   1.00
C855   C     0.64563   0.20978   0.82738   0.00000  Uiso   1.00
C856   C     0.64583   0.12431   0.82652   0.00000  Uiso   1.00
Cl857  Cl    0.44141   0.05399   0.75942   0.00000  Uiso   1.00
Cl858  Cl    0.55654   0.27947   0.90960   0.00000  Uiso   1.00
Cl859  Cl    0.55860   0.05402   0.90724   0.00000  Uiso   1.00
Cl860  Cl    0.44344   0.27944   0.75709   0.00000  Uiso   1.00
Cu861  Cu    0.50000   0.21355   0.83333   0.00000  Uiso   1.00
Cu862  Cu    0.50000   0.11978   0.83333   0.00000  Uiso   1.00
H863   H     0.36909   0.04857   0.83191   0.00000  Uiso   1.00
H864   H     0.60542   0.25572   0.78028   0.00000  Uiso   1.00
H865   H     0.63087   0.04857   0.83435   0.00000  Uiso   1.00
H866   H     0.39460   0.25558   0.88667   0.00000  Uiso   1.00
N867   N     0.50000   0.28402   0.83333   0.00000  Uiso   1.00
N868   N     0.50000   0.04931   0.83333   0.00000  Uiso   1.00
O869   O     0.43988   0.20625   0.83333   0.00000  Uiso   1.00
O870   O     0.62716   0.28840   0.84013   0.00000  Uiso   1.00
O871   O     0.60544   0.07647   0.77378   0.00000  Uiso   1.00
O872   O     0.37296   0.28838   0.82686   0.00000  Uiso   1.00
O873   O     0.56012   0.12709   0.83334   0.00000  Uiso   1.00
O874   O     0.56012   0.20625   0.83334   0.00000  Uiso   1.00
O875   O     0.43988   0.12709   0.83333   0.00000  Uiso   1.00
O876   O     0.50000   0.20625   0.76280   0.00000  Uiso   1.00
O877   O     0.50000   0.12708   0.90387   0.00000  Uiso   1.00
O878   O     0.50000   0.20625   0.90387   0.00000  Uiso   1.00
O879   O     0.50000   0.12708   0.76280   0.00000  Uiso   1.00
O880   O     0.39448   0.07627   0.89262   0.00000  Uiso   1.00
C881   C     0.75423   0.16670   0.83745   0.00000  Uiso   1.00
C882   C     0.68772   0.20976   0.83942   0.00000  Uiso   1.00
C883   C     0.95740   0.16695   0.82508   0.00000  Uiso   1.00
C884   C     0.70927   0.16692   0.84159   0.00000  Uiso   1.00
C885   C     0.80825   0.02472   0.80117   0.00000  Uiso   1.00
C886   C     0.85805   0.30865   0.86591   0.00000  Uiso   1.00
C887   C     0.85841   0.02473   0.86550   0.00000  Uiso   1.00
C888   C     0.80861   0.30863   0.80076   0.00000  Uiso   1.00
C889   C     0.70717   0.07937   0.85441   0.00000  Uiso   1.00
C890   C     0.95802   0.25419   0.81361   0.00000  Uiso   1.00
C891   C     0.95945   0.07944   0.81197   0.00000  Uiso   1.00
C892   C     0.91243   0.16671   0.82922   0.00000  Uiso   1.00
C893   C     0.70869   0.25413   0.85331   0.00000  Uiso   1.00
C894   C     0.83325   0.16667   0.74026   0.00000  Uiso   1.00
C895   C     0.83342   0.16667   0.92641   0.00000  Uiso   1.00
C896   C     0.83330   0.16666   0.68853   0.00000  Uiso   1.00
C897   C     0.83336   0.16666   0.97814   0.00000  Uiso   1.00
C898   C     0.68748   0.12429   0.84001   0.00000  Uiso   1.00
C899   C     0.97897   0.20978   0.82738   0.00000  Uiso   1.00
C900   C     0.97916   0.12431   0.82652   0.00000  Uiso   1.00
Cl901  Cl    0.77474   0.05399   0.75942   0.00000  Uiso   1.00
Cl902  Cl    0.88987   0.27947   0.90960   0.00000  Uiso   1.00
Cl903  Cl    0.89193   0.05402   0.90724   0.00000  Uiso   1.00
Cl904  Cl    0.77677   0.27944   0.75709   0.00000  Uiso   1.00
Cu905  Cu    0.83333   0.21355   0.83333   0.00000  Uiso   1.00
Cu906  Cu    0.83333   0.11978   0.83333   0.00000  Uiso   1.00
H907   H     0.70242   0.04857   0.83191   0.00000  Uiso   1.00
H908   H     0.93875   0.25572   0.78028   0.00000  Uiso   1.00
H909   H     0.96421   0.04857   0.83435   0.00000  Uiso   1.00
H910   H     0.72793   0.25558   0.88667   0.00000  Uiso   1.00
N911   N     0.83333   0.28402   0.83333   0.00000  Uiso   1.00
N912   N     0.83333   0.04931   0.83333   0.00000  Uiso   1.00
O913   O     0.77321   0.20625   0.83333   0.00000  Uiso   1.00
O914   O     0.96049   0.28840   0.84013   0.00000  Uiso   1.00
O915   O     0.93878   0.07647   0.77378   0.00000  Uiso   1.00
O916   O     0.70629   0.28838   0.82686   0.00000  Uiso   1.00
O917   O     0.89345   0.12709   0.83334   0.00000  Uiso   1.00
O918   O     0.89345   0.20625   0.83334   0.00000  Uiso   1.00
O919   O     0.77321   0.12709   0.83333   0.00000  Uiso   1.00
O920   O     0.83333   0.20625   0.76280   0.00000  Uiso   1.00
O921   O     0.83333   0.12708   0.90387   0.00000  Uiso   1.00
O922   O     0.83333   0.20625   0.90387   0.00000  Uiso   1.00
O923   O     0.83333   0.12708   0.76280   0.00000  Uiso   1.00
O924   O     0.72781   0.07627   0.89262   0.00000  Uiso   1.00
C925   C     0.08757   0.50003   0.83745   0.00000  Uiso   1.00
C926   C     0.02105   0.54310   0.83942   0.00000  Uiso   1.00
C927   C     0.29073   0.50028   0.82508   0.00000  Uiso   1.00
C928   C     0.04260   0.50025   0.84159   0.00000  Uiso   1.00
C929   C     0.14159   0.35805   0.80117   0.00000  Uiso   1.00
C930   C     0.19138   0.64198   0.86591   0.00000  Uiso   1.00
C931   C     0.19175   0.35806   0.86550   0.00000  Uiso   1.00
C932   C     0.14195   0.64197   0.80076   0.00000  Uiso   1.00
C933   C     0.04050   0.41270   0.85441   0.00000  Uiso   1.00
C934   C     0.29135   0.58753   0.81361   0.00000  Uiso   1.00
C935   C     0.29278   0.41277   0.81197   0.00000  Uiso   1.00
C936   C     0.24577   0.50004   0.82922   0.00000  Uiso   1.00
C937   C     0.04203   0.58746   0.85331   0.00000  Uiso   1.00
C938   C     0.16658   0.50000   0.74026   0.00000  Uiso   1.00
C939   C     0.16675   0.50000   0.92641   0.00000  Uiso   1.00
C940   C     0.16664   0.50000   0.68853   0.00000  Uiso   1.00
C941   C     0.16670   0.50000   0.97814   0.00000  Uiso   1.00
C942   C     0.02082   0.45763   0.84001   0.00000  Uiso   1.00
C943   C     0.31230   0.54312   0.82738   0.00000  Uiso   1.00
C944   C     0.31250   0.45765   0.82652   0.00000  Uiso   1.00
Cl945  Cl    0.10808   0.38733   0.75942   0.00000  Uiso   1.00
Cl946  Cl    0.22320   0.61280   0.90960   0.00000  Uiso   1.00
Cl947  Cl    0.22527   0.38735   0.90724   0.00000  Uiso   1.00
Cl948  Cl    0.11011   0.61277   0.75709   0.00000  Uiso   1.00
Cu949  Cu    0.16667   0.54689   0.83333   0.00000  Uiso   1.00
Cu950  Cu    0.16667   0.45311   0.83333   0.00000  Uiso   1.00
H951   H     0.03575   0.38191   0.83191   0.00000  Uiso   1.00
H952   H     0.27209   0.58905   0.78028   0.00000  Uiso   1.00
H953   H     0.29754   0.38190   0.83435   0.00000  Uiso   1.00
H954   H     0.06126   0.58891   0.88667   0.00000  Uiso   1.00
N955   N     0.16667   0.61736   0.83333   0.00000  Uiso   1.00
N956   N     0.16667   0.38264   0.83333   0.00000  Uiso   1.00
O957   O     0.10655   0.53958   0.83333   0.00000  Uiso   1.00
O958   O     0.29382   0.62173   0.84013   0.00000  Uiso   1.00
O959   O     0.27211   0.40980   0.77378   0.00000  Uiso   1.00
O960   O     0.03963   0.62171   0.82686   0.00000  Uiso   1.00
O961   O     0.22679   0.46042   0.83334   0.00000  Uiso   1.00
O962   O     0.22679   0.53958   0.83334   0.00000  Uiso   1.00
O963   O     0.10655   0.46042   0.83333   0.00000  Uiso   1.00
O964   O     0.16667   0.53959   0.76280   0.00000  Uiso   1.00
O965   O     0.16667   0.46041   0.90387   0.00000  Uiso   1.00
O966   O     0.16667   0.53959   0.90387   0.00000  Uiso   1.00
O967   O     0.16667   0.46041   0.76280   0.00000  Uiso   1.00
O968   O     0.06114   0.40961   0.89262   0.00000  Uiso   1.00
C969   C     0.42090   0.50003   0.83745   0.00000  Uiso   1.00
C970   C     0.35439   0.54310   0.83942   0.00000  Uiso   1.00
C971   C     0.62406   0.50028   0.82508   0.00000  Uiso   1.00
C972   C     0.37593   0.50025   0.84159   0.00000  Uiso   1.00
C973   C     0.47492   0.35805   0.80117   0.00000  Uiso   1.00
C974   C     0.52472   0.64198   0.86591   0.00000  Uiso   1.00
C975   C     0.52508   0.35806   0.86550   0.00000  Uiso   1.00
C976   C     0.47528   0.64197   0.80076   0.00000  Uiso   1.00
C977   C     0.37384   0.41270   0.85441   0.00000  Uiso   1.00
C978   C     0.62469   0.58753   0.81361   0.00000  Uiso   1.00
C979   C     0.62612   0.41277   0.81197   0.00000  Uiso   1.00
C980   C     0.57910   0.50004   0.82922   0.00000  Uiso   1.00
C981   C     0.37536   0.58746   0.85331   0.00000  Uiso   1.00
C982   C     0.49991   0.50000   0.74026   0.00000  Uiso   1.00
C983   C     0.50009   0.50000   0.92641   0.00000  Uiso   1.00
C984   C     0.49997   0.50000   0.68853   0.00000  Uiso   1.00
C985   C     0.50003   0.50000   0.97814   0.00000  Uiso   1.00
C986   C     0.35415   0.45763   0.84001   0.00000  Uiso   1.00
C987   C     0.64563   0.54312   0.82738   0.00000  Uiso   1.00
C988   C     0.64583   0.45765   0.82652   0.00000  Uiso   1.00
Cl989  Cl    0.44141   0.38733   0.75942   0.00000  Uiso   1.00
Cl990  Cl    0.55654   0.61280   0.90960   0.00000  Uiso   1.00
Cl991  Cl    0.55860   0.38735   0.90724   0.00000  Uiso   1.00
Cl992  Cl    0.44344   0.61277   0.75709   0.00000  Uiso   1.00
Cu993  Cu    0.50000   0.54689   0.83333   0.00000  Uiso   1.00
Cu994  Cu    0.50000   0.45311   0.83333   0.00000  Uiso   1.00
H995   H     0.36909   0.38191   0.83191   0.00000  Uiso   1.00
H996   H     0.60542   0.58905   0.78028   0.00000  Uiso   1.00
H997   H     0.63087   0.38190   0.83435   0.00000  Uiso   1.00
H998   H     0.39460   0.58891   0.88667   0.00000  Uiso   1.00
N999   N     0.50000   0.61736   0.83333   0.00000  Uiso   1.00
N1000  N     0.50000   0.38264   0.83333   0.00000  Uiso   1.00
O1001  O     0.43988   0.53958   0.83333   0.00000  Uiso   1.00
O1002  O     0.62716   0.62173   0.84013   0.00000  Uiso   1.00
O1003  O     0.60544   0.40980   0.77378   0.00000  Uiso   1.00
O1004  O     0.37296   0.62171   0.82686   0.00000  Uiso   1.00
O1005  O     0.56012   0.46042   0.83334   0.00000  Uiso   1.00
O1006  O     0.56012   0.53958   0.83334   0.00000  Uiso   1.00
O1007  O     0.43988   0.46042   0.83333   0.00000  Uiso   1.00
O1008  O     0.50000   0.53959   0.76280   0.00000  Uiso   1.00
O1009  O     0.50000   0.46041   0.90387   0.00000  Uiso   1.00
O1010  O     0.50000   0.53959   0.90387   0.00000  Uiso   1.00
O1011  O     0.50000   0.46041   0.76280   0.00000  Uiso   1.00
O1012  O     0.39448   0.40961   0.89262   0.00000  Uiso   1.00
C1013  C     0.75423   0.50003   0.83745   0.00000  Uiso   1.00
C1014  C     0.68772   0.54310   0.83942   0.00000  Uiso   1.00
C1015  C     0.95740   0.50028   0.82508   0.00000  Uiso   1.00
C1016  C     0.70927   0.50025   0.84159   0.00000  Uiso   1.00
C1017  C     0.80825   0.35805   0.80117   0.00000  Uiso   1.00
C1018  C     0.85805   0.64198   0.86591   0.00000  Uiso   1.00
C1019  C     0.85841   0.35806   0.86550   0.00000  Uiso   1.00
C1020  C     0.80861   0.64197   0.80076   0.00000  Uiso   1.00
C1021  C     0.70717   0.41270   0.85441   0.00000  Uiso   1.00
C1022  C     0.95802   0.58753   0.81361   0.00000  Uiso   1.00
C1023  C     0.95945   0.41277   0.81197   0.00000  Uiso   1.00
C1024  C     0.91243   0.50004   0.82922   0.00000  Uiso   1.00
C1025  C     0.70869   0.58746   0.85331   0.00000  Uiso   1.00
C1026  C     0.83325   0.50000   0.74026   0.00000  Uiso   1.00
C1027  C     0.83342   0.50000   0.92641   0.00000  Uiso   1.00
C1028  C     0.83330   0.50000   0.68853   0.00000  Uiso   1.00
C1029  C     0.83336   0.50000   0.97814   0.00000  Uiso   1.00
C1030  C     0.68748   0.45763   0.84001   0.00000  Uiso   1.00
C1031  C     0.97897   0.54312   0.82738   0.00000  Uiso   1.00
C1032  C     0.97916   0.45765   0.82652   0.00000  Uiso   1.00
Cl1033 Cl    0.77474   0.38733   0.75942   0.00000  Uiso   1.00
Cl1034 Cl    0.88987   0.61280   0.90960   0.00000  Uiso   1.00
Cl1035 Cl    0.89193   0.38735   0.90724   0.00000  Uiso   1.00
Cl1036 Cl    0.77677   0.61277   0.75709   0.00000  Uiso   1.00
Cu1037 Cu    0.83333   0.54689   0.83333   0.00000  Uiso   1.00
Cu1038 Cu    0.83333   0.45311   0.83333   0.00000  Uiso   1.00
H1039  H     0.70242   0.38191   0.83191   0.00000  Uiso   1.00
H1040  H     0.93875   0.58905   0.78028   0.00000  Uiso   1.00
H1041  H     0.96421   0.38190   0.83435   0.00000  Uiso   1.00
H1042  H     0.72793   0.58891   0.88667   0.00000  Uiso   1.00
N1043  N     0.83333   0.61736   0.83333   0.00000  Uiso   1.00
N1044  N     0.83333   0.38264   0.83333   0.00000  Uiso   1.00
O1045  O     0.77321   0.53958   0.83333   0.00000  Uiso   1.00
O1046  O     0.96049   0.62173   0.84013   0.00000  Uiso   1.00
O1047  O     0.93878   0.40980   0.77378   0.00000  Uiso   1.00
O1048  O     0.70629   0.62171   0.82686   0.00000  Uiso   1.00
O1049  O     0.89345   0.46042   0.83334   0.00000  Uiso   1.00
O1050  O     0.89345   0.53958   0.83334   0.00000  Uiso   1.00
O1051  O     0.77321   0.46042   0.83333   0.00000  Uiso   1.00
O1052  O     0.83333   0.53959   0.76280   0.00000  Uiso   1.00
O1053  O     0.83333   0.46041   0.90387   0.00000  Uiso   1.00
O1054  O     0.83333   0.53959   0.90387   0.00000  Uiso   1.00
O1055  O     0.83333   0.46041   0.76280   0.00000  Uiso   1.00
O1056  O     0.72781   0.40961   0.89262   0.00000  Uiso   1.00
C1057  C     0.08757   0.83337   0.83745   0.00000  Uiso   1.00
C1058  C     0.02105   0.87643   0.83942   0.00000  Uiso   1.00
C1059  C     0.29073   0.83361   0.82508   0.00000  Uiso   1.00
C1060  C     0.04260   0.83359   0.84159   0.00000  Uiso   1.00
C1061  C     0.14159   0.69138   0.80117   0.00000  Uiso   1.00
C1062  C     0.19138   0.97531   0.86591   0.00000  Uiso   1.00
C1063  C     0.19175   0.69139   0.86550   0.00000  Uiso   1.00
C1064  C     0.14195   0.97530   0.80076   0.00000  Uiso   1.00
C1065  C     0.04050   0.74604   0.85441   0.00000  Uiso   1.00
C1066  C     0.29135   0.92086   0.81361   0.00000  Uiso   1.00
C1067  C     0.29278   0.74610   0.81197   0.00000  Uiso   1.00
C1068  C     0.24577   0.83338   0.82922   0.00000  Uiso   1.00
C1069  C     0.04203   0.92080   0.85331   0.00000  Uiso   1.00
C1070  C     0.16658   0.83333   0.74026   0.00000  Uiso   1.00
C1071  C     0.16675   0.83333   0.92641   0.00000  Uiso   1.00
C1072  C     0.16664   0.83333   0.68853   0.00000  Uiso   1.00
C1073  C     0.16670   0.83333   0.97814   0.00000  Uiso   1.00
C1074  C     0.02082   0.79096   0.84001   0.00000  Uiso   1.00
C1075  C     0.31230   0.87645   0.82738   0.00000  Uiso   1.00
C1076  C     0.31250   0.79098   0.82652   0.00000  Uiso   1.00
Cl1077 Cl    0.10808   0.72066   0.75942   0.00000  Uiso   1.00
Cl1078 Cl    0.22320   0.94613   0.90960   0.00000  Uiso   1.00
Cl1079 Cl    0.22527   0.72068   0.90724   0.00000  Uiso   1.00
Cl1080 Cl    0.11011   0.94611   0.75709   0.00000  Uiso   1.00
Cu1081 Cu    0.16667   0.88022   0.83333   0.00000  Uiso   1.00
Cu1082 Cu    0.16667   0.78645   0.83333   0.00000  Uiso   1.00
H1083  H     0.03575   0.71524   0.83191   0.00000  Uiso   1.00
H1084  H     0.27209   0.92239   0.78028   0.00000  Uiso   1.00
H1085  H     0.29754   0.71523   0.83435   0.00000  Uiso   1.00
H1086  H     0.06126   0.92224   0.88667   0.00000  Uiso   1.00
N1087  N     0.16667   0.95069   0.83333   0.00000  Uiso   1.00
N1088  N     0.16667   0.71598   0.83333   0.00000  Uiso   1.00
O1089  O     0.10655   0.87291   0.83333   0.00000  Uiso   1.00
O1090  O     0.29382   0.95506   0.84013   0.00000  Uiso   1.00
O1091  O     0.27211   0.74313   0.77378   0.00000  Uiso   1.00
O1092  O     0.03963   0.95505   0.82686   0.00000  Uiso   1.00
O1093  O     0.22679   0.79375   0.83334   0.00000  Uiso   1.00
O1094  O     0.22679   0.87291   0.83334   0.00000  Uiso   1.00
O1095  O     0.10655   0.79375   0.83333   0.00000  Uiso   1.00
O1096  O     0.16667   0.87292   0.76280   0.00000  Uiso   1.00
O1097  O     0.16667   0.79375   0.90387   0.00000  Uiso   1.00
O1098  O     0.16667   0.87292   0.90387   0.00000  Uiso   1.00
O1099  O     0.16667   0.79375   0.76280   0.00000  Uiso   1.00
O1100  O     0.06114   0.74294   0.89262   0.00000  Uiso   1.00
C1101  C     0.42090   0.83337   0.83745   0.00000  Uiso   1.00
C1102  C     0.35439   0.87643   0.83942   0.00000  Uiso   1.00
C1103  C     0.62406   0.83361   0.82508   0.00000  Uiso   1.00
C1104  C     0.37593   0.83359   0.84159   0.00000  Uiso   1.00
C1105  C     0.47492   0.69138   0.80117   0.00000  Uiso   1.00
C1106  C     0.52472   0.97531   0.86591   0.00000  Uiso   1.00
C1107  C     0.52508   0.69139   0.86550   0.00000  Uiso   1.00
C1108  C     0.47528   0.97530   0.80076   0.00000  Uiso   1.00
C1109  C     0.37384   0.74604   0.85441   0.00000  Uiso   1.00
C1110  C     0.62469   0.92086   0.81361   0.00000  Uiso   1.00
C1111  C     0.62612   0.74610   0.81197   0.00000  Uiso   1.00
C1112  C     0.57910   0.83338   0.82922   0.00000  Uiso   1.00
C1113  C     0.37536   0.92080   0.85331   0.00000  Uiso   1.00
C1114  C     0.49991   0.83333   0.74026   0.00000  Uiso   1.00
C1115  C     0.50009   0.83333   0.92641   0.00000  Uiso   1.00
C1116  C     0.49997   0.83333   0.68853   0.00000  Uiso   1.00
C1117  C     0.50003   0.83333   0.97814   0.00000  Uiso   1.00
C1118  C     0.35415   0.79096   0.84001   0.00000  Uiso   1.00
C1119  C     0.64563   0.87645   0.82738   0.00000  Uiso   1.00
C1120  C     0.64583   0.79098   0.82652   0.00000  Uiso   1.00
Cl1121 Cl    0.44141   0.72066   0.75942   0.00000  Uiso   1.00
Cl1122 Cl    0.55654   0.94613   0.90960   0.00000  Uiso   1.00
Cl1123 Cl    0.55860   0.72068   0.90724   0.00000  Uiso   1.00
Cl1124 Cl    0.44344   0.94611   0.75709   0.00000  Uiso   1.00
Cu1125 Cu    0.50000   0.88022   0.83333   0.00000  Uiso   1.00
Cu1126 Cu    0.50000   0.78645   0.83333   0.00000  Uiso   1.00
H1127  H     0.36909   0.71524   0.83191   0.00000  Uiso   1.00
H1128  H     0.60542   0.92239   0.78028   0.00000  Uiso   1.00
H1129  H     0.63087   0.71523   0.83435   0.00000  Uiso   1.00
H1130  H     0.39460   0.92224   0.88667   0.00000  Uiso   1.00
N1131  N     0.50000   0.95069   0.83333   0.00000  Uiso   1.00
N1132  N     0.50000   0.71598   0.83333   0.00000  Uiso   1.00
O1133  O     0.43988   0.87291   0.83333   0.00000  Uiso   1.00
O1134  O     0.62716   0.95506   0.84013   0.00000  Uiso   1.00
O1135  O     0.60544   0.74313   0.77378   0.00000  Uiso   1.00
O1136  O     0.37296   0.95505   0.82686   0.00000  Uiso   1.00
O1137  O     0.56012   0.79375   0.83334   0.00000  Uiso   1.00
O1138  O     0.56012   0.87291   0.83334   0.00000  Uiso   1.00
O1139  O     0.43988   0.79375   0.83333   0.00000  Uiso   1.00
O1140  O     0.50000   0.87292   0.76280   0.00000  Uiso   1.00
O1141  O     0.50000   0.79375   0.90387   0.00000  Uiso   1.00
O1142  O     0.50000   0.87292   0.90387   0.00000  Uiso   1.00
O1143  O     0.50000   0.79375   0.76280   0.00000  Uiso   1.00
O1144  O     0.39448   0.74294   0.89262   0.00000  Uiso   1.00
C1145  C     0.75423   0.83337   0.83745   0.00000  Uiso   1.00
C1146  C     0.68772   0.87643   0.83942   0.00000  Uiso   1.00
C1147  C     0.95740   0.83361   0.82508   0.00000  Uiso   1.00
C1148  C     0.70927   0.83359   0.84159   0.00000  Uiso   1.00
C1149  C     0.80825   0.69138   0.80117   0.00000  Uiso   1.00
C1150  C     0.85805   0.97531   0.86591   0.00000  Uiso   1.00
C1151  C     0.85841   0.69139   0.86550   0.00000  Uiso   1.00
C1152  C     0.80861   0.97530   0.80076   0.00000  Uiso   1.00
C1153  C     0.70717   0.74604   0.85441   0.00000  Uiso   1.00
C1154  C     0.95802   0.92086   0.81361   0.00000  Uiso   1.00
C1155  C     0.95945   0.74610   0.81197   0.00000  Uiso   1.00
C1156  C     0.91243   0.83338   0.82922   0.00000  Uiso   1.00
C1157  C     0.70869   0.92080   0.85331   0.00000  Uiso   1.00
C1158  C     0.83325   0.83333   0.74026   0.00000  Uiso   1.00
C1159  C     0.83342   0.83333   0.92641   0.00000  Uiso   1.00
C1160  C     0.83330   0.83333   0.68853   0.00000  Uiso   1.00
C1161  C     0.83336   0.83333   0.97814   0.00000  Uiso   1.00
C1162  C     0.68748   0.79096   0.84001   0.00000  Uiso   1.00
C1163  C     0.97897   0.87645   0.82738   0.00000  Uiso   1.00
C1164  C     0.97916   0.79098   0.82652   0.00000  Uiso   1.00
Cl1165 Cl    0.77474   0.72066   0.75942   0.00000  Uiso   1.00
Cl1166 Cl    0.88987   0.94613   0.90960   0.00000  Uiso   1.00
Cl1167 Cl    0.89193   0.72068   0.90724   0.00000  Uiso   1.00
Cl1168 Cl    0.77677   0.94611   0.75709   0.00000  Uiso   1.00
Cu1169 Cu    0.83333   0.88022   0.83333   0.00000  Uiso   1.00
Cu1170 Cu    0.83333   0.78645   0.83333   0.00000  Uiso   1.00
H1171  H     0.70242   0.71524   0.83191   0.00000  Uiso   1.00
H1172  H     0.93875   0.92239   0.78028   0.00000  Uiso   1.00
H1173  H     0.96421   0.71523   0.83435   0.00000  Uiso   1.00
H1174  H     0.72793   0.92224   0.88667   0.00000  Uiso   1.00
N1175  N     0.83333   0.95069   0.83333   0.00000  Uiso   1.00
N1176  N     0.83333   0.71598   0.83333   0.00000  Uiso   1.00
O1177  O     0.77321   0.87291   0.83333   0.00000  Uiso   1.00
O1178  O     0.96049   0.95506   0.84013   0.00000  Uiso   1.00
O1179  O     0.93878   0.74313   0.77378   0.00000  Uiso   1.00
O1180  O     0.70629   0.95505   0.82686   0.00000  Uiso   1.00
O1181  O     0.89345   0.79375   0.83334   0.00000  Uiso   1.00
O1182  O     0.89345   0.87291   0.83334   0.00000  Uiso   1.00
O1183  O     0.77321   0.79375   0.83333   0.00000  Uiso   1.00
O1184  O     0.83333   0.87292   0.76280   0.00000  Uiso   1.00
O1185  O     0.83333   0.79375   0.90387   0.00000  Uiso   1.00
O1186  O     0.83333   0.87292   0.90387   0.00000  Uiso   1.00
O1187  O     0.83333   0.79375   0.76280   0.00000  Uiso   1.00
O1188  O     0.72781   0.74294   0.89262   0.00000  Uiso   1.00
loop_
_geom_bond_atom_site_label_1
_geom_bond_atom_site_label_2
_geom_bond_distance
_geom_bond_site_symmetry_2
_ccdc_geom_bond_type
C1     C4      1.483   .     S
C1     O33     1.302   .     A
C1     O39     1.304   .     A
C2     C4      1.420   .     A
C2     C13     1.490   .     S
C2     C107    1.405   1_455 S
C3     C20     1.418   .     A
C3     C19     1.420   .     A
C3     C12     1.483   .     S
C4     C18     1.418   .     A
C5     N32     1.373   .     A
C5     Cl21    1.763   .     S
C5     C272    1.420   1_545 S
C6     N31     1.373   .     A
C6     Cl22    1.763   .     S
C6     C139    1.420   .     S
C7     N32     1.373   .     A
C7     Cl23    1.763   .     S
C7     C270    1.420   1_545 S
C8     Cl24    1.763   .     S
C8     N31     1.373   .     A
C8     C137    1.420   .     S
C9     H27     1.084   .     S
C9     C18     1.489   .     S
C9     O44     1.221   .     D
C10    C19     1.490   .     S
C10    O34     1.220   .     D
C10    H28     1.086   .     S
C11    O35     1.221   .     D
C11    C20     1.489   .     S
C11    H29     1.084   .     S
C12    O38     1.302   .     A
C12    O37     1.304   .     A
C13    H30     1.086   .     S
C13    O36     1.220   .     D
C14    C16     1.408   .     S
C14    O40     1.292   .     A
C14    O43     1.292   .     A
C15    O41     1.292   .     A
C15    C17     1.408   .     S
C15    O42     1.292   .     A
C16    C809    1.190   1_554 S
C17    C412    1.190   .     S
C18    C108    1.400   1_455 S
C19    C46     1.405   .     S
C20    C62     1.400   .     S
Cu25   O42     1.931   .     S
Cu25   N31     2.025   .     S
Cu25   O38     1.982   .     S
Cu25   O40     1.931   .     S
Cu25   Cu26    2.695   .     S
Cu25   O33     1.982   .     S
Cu26   O37     1.982   .     S
Cu26   N32     2.025   .     S
Cu26   O41     1.931   .     S
Cu26   O43     1.931   .     S
Cu26   O39     1.982   .     S
C45    C48     1.483   .     S
C45    O77     1.302   .     A
C45    O83     1.304   .     A
C46    C48     1.420   .     A
C46    C57     1.490   .     S
C47    C64     1.418   .     A
C47    C63     1.420   .     A
C47    C56     1.483   .     S
C48    C62     1.418   .     A
C49    N76     1.373   .     A
C49    Cl65    1.763   .     S
C49    C316    1.420   1_545 S
C50    N75     1.373   .     A
C50    Cl66    1.763   .     S
C50    C183    1.420   .     S
C51    N76     1.373   .     A
C51    Cl67    1.763   .     S
C51    C314    1.420   1_545 S
C52    Cl68    1.763   .     S
C52    N75     1.373   .     A
C52    C181    1.420   .     S
C53    H71     1.084   .     S
C53    C62     1.489   .     S
C53    O88     1.221   .     D
C54    C63     1.490   .     S
C54    O78     1.220   .     D
C54    H72     1.086   .     S
C55    O79     1.221   .     D
C55    C64     1.489   .     S
C55    H73     1.084   .     S
C56    O82     1.302   .     A
C56    O81     1.304   .     A
C57    H74     1.086   .     S
C57    O80     1.220   .     D
C58    C60     1.408   .     S
C58    O84     1.292   .     A
C58    O87     1.292   .     A
C59    O85     1.292   .     A
C59    C61     1.408   .     S
C59    O86     1.292   .     A
C60    C853    1.190   1_554 S
C61    C456    1.190   .     S
C63    C90     1.405   .     S
C64    C106    1.400   .     S
Cu69   O86     1.931   .     S
Cu69   N75     2.025   .     S
Cu69   O82     1.982   .     S
Cu69   O84     1.931   .     S
Cu69   Cu70    2.695   .     S
Cu69   O77     1.982   .     S
Cu70   O81     1.982   .     S
Cu70   N76     2.025   .     S
Cu70   O85     1.931   .     S
Cu70   O87     1.931   .     S
Cu70   O83     1.982   .     S
C89    C92     1.483   .     S
C89    O121    1.302   .     A
C89    O127    1.304   .     A
C90    C92     1.420   .     A
C90    C101    1.490   .     S
C91    C108    1.418   .     A
C91    C107    1.420   .     A
C91    C100    1.483   .     S
C92    C106    1.418   .     A
C93    N120    1.373   .     A
C93    Cl109   1.763   .     S
C93    C360    1.420   1_545 S
C94    N119    1.373   .     A
C94    Cl110   1.763   .     S
C94    C227    1.420   .     S
C95    N120    1.373   .     A
C95    Cl111   1.763   .     S
C95    C358    1.420   1_545 S
C96    Cl112   1.763   .     S
C96    N119    1.373   .     A
C96    C225    1.420   .     S
C97    H115    1.084   .     S
C97    C106    1.489   .     S
C97    O132    1.221   .     D
C98    C107    1.490   .     S
C98    O122    1.220   .     D
C98    H116    1.086   .     S
C99    O123    1.221   .     D
C99    C108    1.489   .     S
C99    H117    1.084   .     S
C100   O126    1.302   .     A
C100   O125    1.304   .     A
C101   H118    1.086   .     S
C101   O124    1.220   .     D
C102   C104    1.408   .     S
C102   O128    1.292   .     A
C102   O131    1.292   .     A
C103   O129    1.292   .     A
C103   C105    1.408   .     S
C103   O130    1.292   .     A
C104   C897    1.190   1_554 S
C105   C500    1.190   .     S
C107   C2      1.405   1_655 S
C108   C18     1.400   1_655 S
Cu113  O130    1.931   .     S
Cu113  N119    2.025   .     S
Cu113  O126    1.982   .     S
Cu113  O128    1.931   .     S
Cu113  Cu114   2.695   .     S
Cu113  O121    1.982   .     S
Cu114  O125    1.982   .     S
Cu114  N120    2.025   .     S
Cu114  O129    1.931   .     S
Cu114  O131    1.931   .     S
Cu114  O127    1.982   .     S
C133   C136    1.483   .     S
C133   O165    1.302   .     A
C133   O171    1.304   .     A
C134   C136    1.420   .     A
C134   C145    1.490   .     S
C134   C239    1.405   1_455 S
C135   C152    1.418   .     A
C135   C151    1.420   .     A
C135   C144    1.483   .     S
C136   C150    1.418   .     A
C137   N164    1.373   .     A
C137   Cl153   1.763   .     S
C138   N163    1.373   .     A
C138   Cl154   1.763   .     S
C138   C271    1.420   .     S
C139   N164    1.373   .     A
C139   Cl155   1.763   .     S
C140   Cl156   1.763   .     S
C140   N163    1.373   .     A
C140   C269    1.420   .     S
C141   H159    1.084   .     S
C141   C150    1.489   .     S
C141   O176    1.221   .     D
C142   C151    1.490   .     S
C142   O166    1.220   .     D
C142   H160    1.086   .     S
C143   O167    1.221   .     D
C143   C152    1.489   .     S
C143   H161    1.084   .     S
C144   O170    1.302   .     A
C144   O169    1.304   .     A
C145   H162    1.086   .     S
C145   O168    1.220   .     D
C146   C148    1.408   .     S
C146   O172    1.292   .     A
C146   O175    1.292   .     A
C147   O173    1.292   .     A
C147   C149    1.408   .     S
C147   O174    1.292   .     A
C148   C941    1.190   1_554 S
C149   C544    1.190   .     S
C150   C240    1.400   1_455 S
C151   C178    1.405   .     S
C152   C194    1.400   .     S
Cu157  O174    1.931   .     S
Cu157  N163    2.025   .     S
Cu157  O170    1.982   .     S
Cu157  O172    1.931   .     S
Cu157  Cu158   2.695   .     S
Cu157  O165    1.982   .     S
Cu158  O169    1.982   .     S
Cu158  N164    2.025   .     S
Cu158  O173    1.931   .     S
Cu158  O175    1.931   .     S
Cu158  O171    1.982   .     S
C177   C180    1.483   .     S
C177   O209    1.302   .     A
C177   O215    1.304   .     A
C178   C180    1.420   .     A
C178   C189    1.490   .     S
C179   C196    1.418   .     A
C179   C195    1.420   .     A
C179   C188    1.483   .     S
C180   C194    1.418   .     A
C181   N208    1.373   .     A
C181   Cl197   1.763   .     S
C182   N207    1.373   .     A
C182   Cl198   1.763   .     S
C182   C315    1.420   .     S
C183   N208    1.373   .     A
C183   Cl199   1.763   .     S
C184   Cl200   1.763   .     S
C184   N207    1.373   .     A
C184   C313    1.420   .     S
C185   H203    1.084   .     S
C185   C194    1.489   .     S
C185   O220    1.221   .     D
C186   C195    1.490   .     S
C186   O210    1.220   .     D
C186   H204    1.086   .     S
C187   O211    1.221   .     D
C187   C196    1.489   .     S
C187   H205    1.084   .     S
C188   O214    1.302   .     A
C188   O213    1.304   .     A
C189   H206    1.086   .     S
C189   O212    1.220   .     D
C190   C192    1.408   .     S
C190   O216    1.292   .     A
C190   O219    1.292   .     A
C191   O217    1.292   .     A
C191   C193    1.408   .     S
C191   O218    1.292   .     A
C192   C985    1.190   1_554 S
C193   C588    1.190   .     S
C195   C222    1.405   .     S
C196   C238    1.400   .     S
Cu201  O218    1.931   .     S
Cu201  N207    2.025   .     S
Cu201  O214    1.982   .     S
Cu201  O216    1.931   .     S
Cu201  Cu202   2.695   .     S
Cu201  O209    1.982   .     S
Cu202  O213    1.982   .     S
Cu202  N208    2.025   .     S
Cu202  O217    1.931   .     S
Cu202  O219    1.931   .     S
Cu202  O215    1.982   .     S
C221   C224    1.483   .     S
C221   O253    1.302   .     A
C221   O259    1.304   .     A
C222   C224    1.420   .     A
C222   C233    1.490   .     S
C223   C240    1.418   .     A
C223   C239    1.420   .     A
C223   C232    1.483   .     S
C224   C238    1.418   .     A
C225   N252    1.373   .     A
C225   Cl241   1.763   .     S
C226   N251    1.373   .     A
C226   Cl242   1.763   .     S
C226   C359    1.420   .     S
C227   N252    1.373   .     A
C227   Cl243   1.763   .     S
C228   Cl244   1.763   .     S
C228   N251    1.373   .     A
C228   C357    1.420   .     S
C229   H247    1.084   .     S
C229   C238    1.489   .     S
C229   O264    1.221   .     D
C230   C239    1.490   .     S
C230   O254    1.220   .     D
C230   H248    1.086   .     S
C231   O255    1.221   .     D
C231   C240    1.489   .     S
C231   H249    1.084   .     S
C232   O258    1.302   .     A
C232   O257    1.304   .     A
C233   H250    1.086   .     S
C233   O256    1.220   .     D
C234   C236    1.408   .     S
C234   O260    1.292   .     A
C234   O263    1.292   .     A
C235   O261    1.292   .     A
C235   C237    1.408   .     S
C235   O262    1.292   .     A
C236   C1029   1.190   1_554 S
C237   C632    1.190   .     S
C239   C134    1.405   1_655 S
C240   C150    1.400   1_655 S
Cu245  O262    1.931   .     S
Cu245  N251    2.025   .     S
Cu245  O258    1.982   .     S
Cu245  O260    1.931   .     S
Cu245  Cu246   2.695   .     S
Cu245  O253    1.982   .     S
Cu246  O257    1.982   .     S
Cu246  N252    2.025   .     S
Cu246  O261    1.931   .     S
Cu246  O263    1.931   .     S
Cu246  O259    1.982   .     S
C265   C268    1.483   .     S
C265   O297    1.302   .     A
C265   O303    1.304   .     A
C266   C268    1.420   .     A
C266   C277    1.490   .     S
C266   C371    1.405   1_455 S
C267   C284    1.418   .     A
C267   C283    1.420   .     A
C267   C276    1.483   .     S
C268   C282    1.418   .     A
C269   N296    1.373   .     A
C269   Cl285   1.763   .     S
C270   N295    1.373   .     A
C270   Cl286   1.763   .     S
C270   C7      1.420   1_565 S
C271   N296    1.373   .     A
C271   Cl287   1.763   .     S
C272   Cl288   1.763   .     S
C272   N295    1.373   .     A
C272   C5      1.420   1_565 S
C273   H291    1.084   .     S
C273   C282    1.489   .     S
C273   O308    1.221   .     D
C274   C283    1.490   .     S
C274   O298    1.220   .     D
C274   H292    1.086   .     S
C275   O299    1.221   .     D
C275   C284    1.489   .     S
C275   H293    1.084   .     S
C276   O302    1.302   .     A
C276   O301    1.304   .     A
C277   H294    1.086   .     S
C277   O300    1.220   .     D
C278   C280    1.408   .     S
C278   O304    1.292   .     A
C278   O307    1.292   .     A
C279   O305    1.292   .     A
C279   C281    1.408   .     S
C279   O306    1.292   .     A
C280   C1073   1.190   1_554 S
C281   C676    1.190   .     S
C282   C372    1.400   1_455 S
C283   C310    1.405   .     S
C284   C326    1.400   .     S
Cu289  O306    1.931   .     S
Cu289  N295    2.025   .     S
Cu289  O302    1.982   .     S
Cu289  O304    1.931   .     S
Cu289  Cu290   2.695   .     S
Cu289  O297    1.982   .     S
Cu290  O301    1.982   .     S
Cu290  N296    2.025   .     S
Cu290  O305    1.931   .     S
Cu290  O307    1.931   .     S
Cu290  O303    1.982   .     S
C309   C312    1.483   .     S
C309   O341    1.302   .     A
C309   O347    1.304   .     A
C310   C312    1.420   .     A
C310   C321    1.490   .     S
C311   C328    1.418   .     A
C311   C327    1.420   .     A
C311   C320    1.483   .     S
C312   C326    1.418   .     A
C313   N340    1.373   .     A
C313   Cl329   1.763   .     S
C314   N339    1.373   .     A
C314   Cl330   1.763   .     S
C314   C51     1.420   1_565 S
C315   N340    1.373   .     A
C315   Cl331   1.763   .     S
C316   Cl332   1.763   .     S
C316   N339    1.373   .     A
C316   C49     1.420   1_565 S
C317   H335    1.084   .     S
C317   C326    1.489   .     S
C317   O352    1.221   .     D
C318   C327    1.490   .     S
C318   O342    1.220   .     D
C318   H336    1.086   .     S
C319   O343    1.221   .     D
C319   C328    1.489   .     S
C319   H337    1.084   .     S
C320   O346    1.302   .     A
C320   O345    1.304   .     A
C321   H338    1.086   .     S
C321   O344    1.220   .     D
C322   C324    1.408   .     S
C322   O348    1.292   .     A
C322   O351    1.292   .     A
C323   O349    1.292   .     A
C323   C325    1.408   .     S
C323   O350    1.292   .     A
C324   C1117   1.190   1_554 S
C325   C720    1.190   .     S
C327   C354    1.405   .     S
C328   C370    1.400   .     S
Cu333  O350    1.931   .     S
Cu333  N339    2.025   .     S
Cu333  O346    1.982   .     S
Cu333  O348    1.931   .     S
Cu333  Cu334   2.695   .     S
Cu333  O341    1.982   .     S
Cu334  O345    1.982   .     S
Cu334  N340    2.025   .     S
Cu334  O349    1.931   .     S
Cu334  O351    1.931   .     S
Cu334  O347    1.982   .     S
C353   C356    1.483   .     S
C353   O385    1.302   .     A
C353   O391    1.304   .     A
C354   C356    1.420   .     A
C354   C365    1.490   .     S
C355   C372    1.418   .     A
C355   C371    1.420   .     A
C355   C364    1.483   .     S
C356   C370    1.418   .     A
C357   N384    1.373   .     A
C357   Cl373   1.763   .     S
C358   N383    1.373   .     A
C358   Cl374   1.763   .     S
C358   C95     1.420   1_565 S
C359   N384    1.373   .     A
C359   Cl375   1.763   .     S
C360   Cl376   1.763   .     S
C360   N383    1.373   .     A
C360   C93     1.420   1_565 S
C361   H379    1.084   .     S
C361   C370    1.489   .     S
C361   O396    1.221   .     D
C362   C371    1.490   .     S
C362   O386    1.220   .     D
C362   H380    1.086   .     S
C363   O387    1.221   .     D
C363   C372    1.489   .     S
C363   H381    1.084   .     S
C364   O390    1.302   .     A
C364   O389    1.304   .     A
C365   H382    1.086   .     S
C365   O388    1.220   .     D
C366   C368    1.408   .     S
C366   O392    1.292   .     A
C366   O395    1.292   .     A
C367   O393    1.292   .     A
C367   C369    1.408   .     S
C367   O394    1.292   .     A
C368   C1161   1.190   1_554 S
C369   C764    1.190   .     S
C371   C266    1.405   1_655 S
C372   C282    1.400   1_655 S
Cu377  O394    1.931   .     S
Cu377  N383    2.025   .     S
Cu377  O390    1.982   .     S
Cu377  O392    1.931   .     S
Cu377  Cu378   2.695   .     S
Cu377  O385    1.982   .     S
Cu378  O389    1.982   .     S
Cu378  N384    2.025   .     S
Cu378  O393    1.931   .     S
Cu378  O395    1.931   .     S
Cu378  O391    1.982   .     S
C397   C400    1.483   .     S
C397   O429    1.302   .     A
C397   O435    1.304   .     A
C398   C400    1.420   .     A
C398   C409    1.490   .     S
C398   C503    1.405   1_455 S
C399   C416    1.418   .     A
C399   C415    1.420   .     A
C399   C408    1.483   .     S
C400   C414    1.418   .     A
C401   N428    1.373   .     A
C401   Cl417   1.763   .     S
C401   C668    1.420   1_545 S
C402   N427    1.373   .     A
C402   Cl418   1.763   .     S
C402   C535    1.420   .     S
C403   N428    1.373   .     A
C403   Cl419   1.763   .     S
C403   C666    1.420   1_545 S
C404   Cl420   1.763   .     S
C404   N427    1.373   .     A
C404   C533    1.420   .     S
C405   H423    1.084   .     S
C405   C414    1.489   .     S
C405   O440    1.221   .     D
C406   C415    1.490   .     S
C406   O430    1.220   .     D
C406   H424    1.086   .     S
C407   O431    1.221   .     D
C407   C416    1.489   .     S
C407   H425    1.084   .     S
C408   O434    1.302   .     A
C408   O433    1.304   .     A
C409   H426    1.086   .     S
C409   O432    1.220   .     D
C410   C412    1.408   .     S
C410   O436    1.292   .     A
C410   O439    1.292   .     A
C411   O437    1.292   .     A
C411   C413    1.408   .     S
C411   O438    1.292   .     A
C413   C808    1.190   .     S
C414   C504    1.400   1_455 S
C415   C442    1.405   .     S
C416   C458    1.400   .     S
Cu421  O438    1.931   .     S
Cu421  N427    2.025   .     S
Cu421  O434    1.982   .     S
Cu421  O436    1.931   .     S
Cu421  Cu422   2.695   .     S
Cu421  O429    1.982   .     S
Cu422  O433    1.982   .     S
Cu422  N428    2.025   .     S
Cu422  O437    1.931   .     S
Cu422  O439    1.931   .     S
Cu422  O435    1.982   .     S
C441   C444    1.483   .     S
C441   O473    1.302   .     A
C441   O479    1.304   .     A
C442   C444    1.420   .     A
C442   C453    1.490   .     S
C443   C460    1.418   .     A
C443   C459    1.420   .     A
C443   C452    1.483   .     S
C444   C458    1.418   .     A
C445   N472    1.373   .     A
C445   Cl461   1.763   .     S
C445   C712    1.420   1_545 S
C446   N471    1.373   .     A
C446   Cl462   1.763   .     S
C446   C579    1.420   .     S
C447   N472    1.373   .     A
C447   Cl463   1.763   .     S
C447   C710    1.420   1_545 S
C448   Cl464   1.763   .     S
C448   N471    1.373   .     A
C448   C577    1.420   .     S
C449   H467    1.084   .     S
C449   C458    1.489   .     S
C449   O484    1.221   .     D
C450   C459    1.490   .     S
C450   O474    1.220   .     D
C450   H468    1.086   .     S
C451   O475    1.221   .     D
C451   C460    1.489   .     S
C451   H469    1.084   .     S
C452   O478    1.302   .     A
C452   O477    1.304   .     A
C453   H470    1.086   .     S
C453   O476    1.220   .     D
C454   C456    1.408   .     S
C454   O480    1.292   .     A
C454   O483    1.292   .     A
C455   O481    1.292   .     A
C455   C457    1.408   .     S
C455   O482    1.292   .     A
C457   C852    1.190   .     S
C459   C486    1.405   .     S
C460   C502    1.400   .     S
Cu465  O482    1.931   .     S
Cu465  N471    2.025   .     S
Cu465  O478    1.982   .     S
Cu465  O480    1.931   .     S
Cu465  Cu466   2.695   .     S
Cu465  O473    1.982   .     S
Cu466  O477    1.982   .     S
Cu466  N472    2.025   .     S
Cu466  O481    1.931   .     S
Cu466  O483    1.931   .     S
Cu466  O479    1.982   .     S
C485   C488    1.483   .     S
C485   O517    1.302   .     A
C485   O523    1.304   .     A
C486   C488    1.420   .     A
C486   C497    1.490   .     S
C487   C504    1.418   .     A
C487   C503    1.420   .     A
C487   C496    1.483   .     S
C488   C502    1.418   .     A
C489   N516    1.373   .     A
C489   Cl505   1.763   .     S
C489   C756    1.420   1_545 S
C490   N515    1.373   .     A
C490   Cl506   1.763   .     S
C490   C623    1.420   .     S
C491   N516    1.373   .     A
C491   Cl507   1.763   .     S
C491   C754    1.420   1_545 S
C492   Cl508   1.763   .     S
C492   N515    1.373   .     A
C492   C621    1.420   .     S
C493   H511    1.084   .     S
C493   C502    1.489   .     S
C493   O528    1.221   .     D
C494   C503    1.490   .     S
C494   O518    1.220   .     D
C494   H512    1.086   .     S
C495   O519    1.221   .     D
C495   C504    1.489   .     S
C495   H513    1.084   .     S
C496   O522    1.302   .     A
C496   O521    1.304   .     A
C497   H514    1.086   .     S
C497   O520    1.220   .     D
C498   C500    1.408   .     S
C498   O524    1.292   .     A
C498   O527    1.292   .     A
C499   O525    1.292   .     A
C499   C501    1.408   .     S
C499   O526    1.292   .     A
C501   C896    1.190   .     S
C503   C398    1.405   1_655 S
C504   C414    1.400   1_655 S
Cu509  O526    1.931   .     S
Cu509  N515    2.025   .     S
Cu509  O522    1.982   .     S
Cu509  O524    1.931   .     S
Cu509  Cu510   2.695   .     S
Cu509  O517    1.982   .     S
Cu510  O521    1.982   .     S
Cu510  N516    2.025   .     S
Cu510  O525    1.931   .     S
Cu510  O527    1.931   .     S
Cu510  O523    1.982   .     S
C529   C532    1.483   .     S
C529   O561    1.302   .     A
C529   O567    1.304   .     A
C530   C532    1.420   .     A
C530   C541    1.490   .     S
C530   C635    1.405   1_455 S
C531   C548    1.418   .     A
C531   C547    1.420   .     A
C531   C540    1.483   .     S
C532   C546    1.418   .     A
C533   N560    1.373   .     A
C533   Cl549   1.763   .     S
C534   N559    1.373   .     A
C534   Cl550   1.763   .     S
C534   C667    1.420   .     S
C535   N560    1.373   .     A
C535   Cl551   1.763   .     S
C536   Cl552   1.763   .     S
C536   N559    1.373   .     A
C536   C665    1.420   .     S
C537   H555    1.084   .     S
C537   C546    1.489   .     S
C537   O572    1.221   .     D
C538   C547    1.490   .     S
C538   O562    1.220   .     D
C538   H556    1.086   .     S
C539   O563    1.221   .     D
C539   C548    1.489   .     S
C539   H557    1.084   .     S
C540   O566    1.302   .     A
C540   O565    1.304   .     A
C541   H558    1.086   .     S
C541   O564    1.220   .     D
C542   C544    1.408   .     S
C542   O568    1.292   .     A
C542   O571    1.292   .     A
C543   O569    1.292   .     A
C543   C545    1.408   .     S
C543   O570    1.292   .     A
C545   C940    1.190   .     S
C546   C636    1.400   1_455 S
C547   C574    1.405   .     S
C548   C590    1.400   .     S
Cu553  O570    1.931   .     S
Cu553  N559    2.025   .     S
Cu553  O566    1.982   .     S
Cu553  O568    1.931   .     S
Cu553  Cu554   2.695   .     S
Cu553  O561    1.982   .     S
Cu554  O565    1.982   .     S
Cu554  N560    2.025   .     S
Cu554  O569    1.931   .     S
Cu554  O571    1.931   .     S
Cu554  O567    1.982   .     S
C573   C576    1.483   .     S
C573   O605    1.302   .     A
C573   O611    1.304   .     A
C574   C576    1.420   .     A
C574   C585    1.490   .     S
C575   C592    1.418   .     A
C575   C591    1.420   .     A
C575   C584    1.483   .     S
C576   C590    1.418   .     A
C577   N604    1.373   .     A
C577   Cl593   1.763   .     S
C578   N603    1.373   .     A
C578   Cl594   1.763   .     S
C578   C711    1.420   .     S
C579   N604    1.373   .     A
C579   Cl595   1.763   .     S
C580   Cl596   1.763   .     S
C580   N603    1.373   .     A
C580   C709    1.420   .     S
C581   H599    1.084   .     S
C581   C590    1.489   .     S
C581   O616    1.221   .     D
C582   C591    1.490   .     S
C582   O606    1.220   .     D
C582   H600    1.086   .     S
C583   O607    1.221   .     D
C583   C592    1.489   .     S
C583   H601    1.084   .     S
C584   O610    1.302   .     A
C584   O609    1.304   .     A
C585   H602    1.086   .     S
C585   O608    1.220   .     D
C586   C588    1.408   .     S
C586   O612    1.292   .     A
C586   O615    1.292   .     A
C587   O613    1.292   .     A
C587   C589    1.408   .     S
C587   O614    1.292   .     A
C589   C984    1.190   .     S
C591   C618    1.405   .     S
C592   C634    1.400   .     S
Cu597  O614    1.931   .     S
Cu597  N603    2.025   .     S
Cu597  O610    1.982   .     S
Cu597  O612    1.931   .     S
Cu597  Cu598   2.695   .     S
Cu597  O605    1.982   .     S
Cu598  O609    1.982   .     S
Cu598  N604    2.025   .     S
Cu598  O613    1.931   .     S
Cu598  O615    1.931   .     S
Cu598  O611    1.982   .     S
C617   C620    1.483   .     S
C617   O649    1.302   .     A
C617   O655    1.304   .     A
C618   C620    1.420   .     A
C618   C629    1.490   .     S
C619   C636    1.418   .     A
C619   C635    1.420   .     A
C619   C628    1.483   .     S
C620   C634    1.418   .     A
C621   N648    1.373   .     A
C621   Cl637   1.763   .     S
C622   N647    1.373   .     A
C622   Cl638   1.763   .     S
C622   C755    1.420   .     S
C623   N648    1.373   .     A
C623   Cl639   1.763   .     S
C624   Cl640   1.763   .     S
C624   N647    1.373   .     A
C624   C753    1.420   .     S
C625   H643    1.084   .     S
C625   C634    1.489   .     S
C625   O660    1.221   .     D
C626   C635    1.490   .     S
C626   O650    1.220   .     D
C626   H644    1.086   .     S
C627   O651    1.221   .     D
C627   C636    1.489   .     S
C627   H645    1.084   .     S
C628   O654    1.302   .     A
C628   O653    1.304   .     A
C629   H646    1.086   .     S
C629   O652    1.220   .     D
C630   C632    1.408   .     S
C630   O656    1.292   .     A
C630   O659    1.292   .     A
C631   O657    1.292   .     A
C631   C633    1.408   .     S
C631   O658    1.292   .     A
C633   C1028   1.190   .     S
C635   C530    1.405   1_655 S
C636   C546    1.400   1_655 S
Cu641  O658    1.931   .     S
Cu641  N647    2.025   .     S
Cu641  O654    1.982   .     S
Cu641  O656    1.931   .     S
Cu641  Cu642   2.695   .     S
Cu641  O649    1.982   .     S
Cu642  O653    1.982   .     S
Cu642  N648    2.025   .     S
Cu642  O657    1.931   .     S
Cu642  O659    1.931   .     S
Cu642  O655    1.982   .     S
C661   C664    1.483   .     S
C661   O693    1.302   .     A
C661   O699    1.304   .     A
C662   C664    1.420   .     A
C662   C673    1.490   .     S
C662   C767    1.405   1_455 S
C663   C680    1.418   .     A
C663   C679    1.420   .     A
C663   C672    1.483   .     S
C664   C678    1.418   .     A
C665   N692    1.373   .     A
C665   Cl681   1.763   .     S
C666   N691    1.373   .     A
C666   Cl682   1.763   .     S
C666   C403    1.420   1_565 S
C667   N692    1.373   .     A
C667   Cl683   1.763   .     S
C668   Cl684   1.763   .     S
C668   N691    1.373   .     A
C668   C401    1.420   1_565 S
C669   H687    1.084   .     S
C669   C678    1.489   .     S
C669   O704    1.221   .     D
C670   C679    1.490   .     S
C670   O694    1.220   .     D
C670   H688    1.086   .     S
C671   O695    1.221   .     D
C671   C680    1.489   .     S
C671   H689    1.084   .     S
C672   O698    1.302   .     A
C672   O697    1.304   .     A
C673   H690    1.086   .     S
C673   O696    1.220   .     D
C674   C676    1.408   .     S
C674   O700    1.292   .     A
C674   O703    1.292   .     A
C675   O701    1.292   .     A
C675   C677    1.408   .     S
C675   O702    1.292   .     A
C677   C1072   1.190   .     S
C678   C768    1.400   1_455 S
C679   C706    1.405   .     S
C680   C722    1.400   .     S
Cu685  O702    1.931   .     S
Cu685  N691    2.025   .     S
Cu685  O698    1.982   .     S
Cu685  O700    1.931   .     S
Cu685  Cu686   2.695   .     S
Cu685  O693    1.982   .     S
Cu686  O697    1.982   .     S
Cu686  N692    2.025   .     S
Cu686  O701    1.931   .     S
Cu686  O703    1.931   .     S
Cu686  O699    1.982   .     S
C705   C708    1.483   .     S
C705   O737    1.302   .     A
C705   O743    1.304   .     A
C706   C708    1.420   .     A
C706   C717    1.490   .     S
C707   C724    1.418   .     A
C707   C723    1.420   .     A
C707   C716    1.483   .     S
C708   C722    1.418   .     A
C709   N736    1.373   .     A
C709   Cl725   1.763   .     S
C710   N735    1.373   .     A
C710   Cl726   1.763   .     S
C710   C447    1.420   1_565 S
C711   N736    1.373   .     A
C711   Cl727   1.763   .     S
C712   Cl728   1.763   .     S
C712   N735    1.373   .     A
C712   C445    1.420   1_565 S
C713   H731    1.084   .     S
C713   C722    1.489   .     S
C713   O748    1.221   .     D
C714   C723    1.490   .     S
C714   O738    1.220   .     D
C714   H732    1.086   .     S
C715   O739    1.221   .     D
C715   C724    1.489   .     S
C715   H733    1.084   .     S
C716   O742    1.302   .     A
C716   O741    1.304   .     A
C717   H734    1.086   .     S
C717   O740    1.220   .     D
C718   C720    1.408   .     S
C718   O744    1.292   .     A
C718   O747    1.292   .     A
C719   O745    1.292   .     A
C719   C721    1.408   .     S
C719   O746    1.292   .     A
C721   C1116   1.190   .     S
C723   C750    1.405   .     S
C724   C766    1.400   .     S
Cu729  O746    1.931   .     S
Cu729  N735    2.025   .     S
Cu729  O742    1.982   .     S
Cu729  O744    1.931   .     S
Cu729  Cu730   2.695   .     S
Cu729  O737    1.982   .     S
Cu730  O741    1.982   .     S
Cu730  N736    2.025   .     S
Cu730  O745    1.931   .     S
Cu730  O747    1.931   .     S
Cu730  O743    1.982   .     S
C749   C752    1.483   .     S
C749   O781    1.302   .     A
C749   O787    1.304   .     A
C750   C752    1.420   .     A
C750   C761    1.490   .     S
C751   C768    1.418   .     A
C751   C767    1.420   .     A
C751   C760    1.483   .     S
C752   C766    1.418   .     A
C753   N780    1.373   .     A
C753   Cl769   1.763   .     S
C754   N779    1.373   .     A
C754   Cl770   1.763   .     S
C754   C491    1.420   1_565 S
C755   N780    1.373   .     A
C755   Cl771   1.763   .     S
C756   Cl772   1.763   .     S
C756   N779    1.373   .     A
C756   C489    1.420   1_565 S
C757   H775    1.084   .     S
C757   C766    1.489   .     S
C757   O792    1.221   .     D
C758   C767    1.490   .     S
C758   O782    1.220   .     D
C758   H776    1.086   .     S
C759   O783    1.221   .     D
C759   C768    1.489   .     S
C759   H777    1.084   .     S
C760   O786    1.302   .     A
C760   O785    1.304   .     A
C761   H778    1.086   .     S
C761   O784    1.220   .     D
C762   C764    1.408   .     S
C762   O788    1.292   .     A
C762   O791    1.292   .     A
C763   O789    1.292   .     A
C763   C765    1.408   .     S
C763   O790    1.292   .     A
C765   C1160   1.190   .     S
C767   C662    1.405   1_655 S
C768   C678    1.400   1_655 S
Cu773  O790    1.931   .     S
Cu773  N779    2.025   .     S
Cu773  O786    1.982   .     S
Cu773  O788    1.931   .     S
Cu773  Cu774   2.695   .     S
Cu773  O781    1.982   .     S
Cu774  O785    1.982   .     S
Cu774  N780    2.025   .     S
Cu774  O789    1.931   .     S
Cu774  O791    1.931   .     S
Cu774  O787    1.982   .     S
C793   C796    1.483   .     S
C793   O825    1.302   .     A
C793   O831    1.304   .     A
C794   C796    1.420   .     A
C794   C805    1.490   .     S
C794   C899    1.405   1_455 S
C795   C812    1.418   .     A
C795   C811    1.420   .     A
C795   C804    1.483   .     S
C796   C810    1.418   .     A
C797   N824    1.373   .     A
C797   Cl813   1.763   .     S
C797   C1064   1.420   1_545 S
C798   N823    1.373   .     A
C798   Cl814   1.763   .     S
C798   C931    1.420   .     S
C799   N824    1.373   .     A
C799   Cl815   1.763   .     S
C799   C1062   1.420   1_545 S
C800   Cl816   1.763   .     S
C800   N823    1.373   .     A
C800   C929    1.420   .     S
C801   H819    1.084   .     S
C801   C810    1.489   .     S
C801   O836    1.221   .     D
C802   C811    1.490   .     S
C802   O826    1.220   .     D
C802   H820    1.086   .     S
C803   O827    1.221   .     D
C803   C812    1.489   .     S
C803   H821    1.084   .     S
C804   O830    1.302   .     A
C804   O829    1.304   .     A
C805   H822    1.086   .     S
C805   O828    1.220   .     D
C806   C808    1.408   .     S
C806   O832    1.292   .     A
C806   O835    1.292   .     A
C807   O833    1.292   .     A
C807   C809    1.408   .     S
C807   O834    1.292   .     A
C809   C16     1.190   1_556 S
C810   C900    1.400   1_455 S
C811   C838    1.405   .     S
C812   C854    1.400   .     S
Cu817  O834    1.931   .     S
Cu817  N823    2.025   .     S
Cu817  O830    1.982   .     S
Cu817  O832    1.931   .     S
Cu817  Cu818   2.695   .     S
Cu817  O825    1.982   .     S
Cu818  O829    1.982   .     S
Cu818  N824    2.025   .     S
Cu818  O833    1.931   .     S
Cu818  O835    1.931   .     S
Cu818  O831    1.982   .     S
C837   C840    1.483   .     S
C837   O869    1.302   .     A
C837   O875    1.304   .     A
C838   C840    1.420   .     A
C838   C849    1.490   .     S
C839   C856    1.418   .     A
C839   C855    1.420   .     A
C839   C848    1.483   .     S
C840   C854    1.418   .     A
C841   N868    1.373   .     A
C841   Cl857   1.763   .     S
C841   C1108   1.420   1_545 S
C842   N867    1.373   .     A
C842   Cl858   1.763   .     S
C842   C975    1.420   .     S
C843   N868    1.373   .     A
C843   Cl859   1.763   .     S
C843   C1106   1.420   1_545 S
C844   Cl860   1.763   .     S
C844   N867    1.373   .     A
C844   C973    1.420   .     S
C845   H863    1.084   .     S
C845   C854    1.489   .     S
C845   O880    1.221   .     D
C846   C855    1.490   .     S
C846   O870    1.220   .     D
C846   H864    1.086   .     S
C847   O871    1.221   .     D
C847   C856    1.489   .     S
C847   H865    1.084   .     S
C848   O874    1.302   .     A
C848   O873    1.304   .     A
C849   H866    1.086   .     S
C849   O872    1.220   .     D
C850   C852    1.408   .     S
C850   O876    1.292   .     A
C850   O879    1.292   .     A
C851   O877    1.292   .     A
C851   C853    1.408   .     S
C851   O878    1.292   .     A
C853   C60     1.190   1_556 S
C855   C882    1.405   .     S
C856   C898    1.400   .     S
Cu861  O878    1.931   .     S
Cu861  N867    2.025   .     S
Cu861  O874    1.982   .     S
Cu861  O876    1.931   .     S
Cu861  Cu862   2.695   .     S
Cu861  O869    1.982   .     S
Cu862  O873    1.982   .     S
Cu862  N868    2.025   .     S
Cu862  O877    1.931   .     S
Cu862  O879    1.931   .     S
Cu862  O875    1.982   .     S
C881   C884    1.483   .     S
C881   O913    1.302   .     A
C881   O919    1.304   .     A
C882   C884    1.420   .     A
C882   C893    1.490   .     S
C883   C900    1.418   .     A
C883   C899    1.420   .     A
C883   C892    1.483   .     S
C884   C898    1.418   .     A
C885   N912    1.373   .     A
C885   Cl901   1.763   .     S
C885   C1152   1.420   1_545 S
C886   N911    1.373   .     A
C886   Cl902   1.763   .     S
C886   C1019   1.420   .     S
C887   N912    1.373   .     A
C887   Cl903   1.763   .     S
C887   C1150   1.420   1_545 S
C888   Cl904   1.763   .     S
C888   N911    1.373   .     A
C888   C1017   1.420   .     S
C889   H907    1.084   .     S
C889   C898    1.489   .     S
C889   O924    1.221   .     D
C890   C899    1.490   .     S
C890   O914    1.220   .     D
C890   H908    1.086   .     S
C891   O915    1.221   .     D
C891   C900    1.489   .     S
C891   H909    1.084   .     S
C892   O918    1.302   .     A
C892   O917    1.304   .     A
C893   H910    1.086   .     S
C893   O916    1.220   .     D
C894   C896    1.408   .     S
C894   O920    1.292   .     A
C894   O923    1.292   .     A
C895   O921    1.292   .     A
C895   C897    1.408   .     S
C895   O922    1.292   .     A
C897   C104    1.190   1_556 S
C899   C794    1.405   1_655 S
C900   C810    1.400   1_655 S
Cu905  O922    1.931   .     S
Cu905  N911    2.025   .     S
Cu905  O918    1.982   .     S
Cu905  O920    1.931   .     S
Cu905  Cu906   2.695   .     S
Cu905  O913    1.982   .     S
Cu906  O917    1.982   .     S
Cu906  N912    2.025   .     S
Cu906  O921    1.931   .     S
Cu906  O923    1.931   .     S
Cu906  O919    1.982   .     S
C925   C928    1.483   .     S
C925   O957    1.302   .     A
C925   O963    1.304   .     A
C926   C928    1.420   .     A
C926   C937    1.490   .     S
C926   C1031   1.405   1_455 S
C927   C944    1.418   .     A
C927   C943    1.420   .     A
C927   C936    1.483   .     S
C928   C942    1.418   .     A
C929   N956    1.373   .     A
C929   Cl945   1.763   .     S
C930   N955    1.373   .     A
C930   Cl946   1.763   .     S
C930   C1063   1.420   .     S
C931   N956    1.373   .     A
C931   Cl947   1.763   .     S
C932   Cl948   1.763   .     S
C932   N955    1.373   .     A
C932   C1061   1.420   .     S
C933   H951    1.084   .     S
C933   C942    1.489   .     S
C933   O968    1.221   .     D
C934   C943    1.490   .     S
C934   O958    1.220   .     D
C934   H952    1.086   .     S
C935   O959    1.221   .     D
C935   C944    1.489   .     S
C935   H953    1.084   .     S
C936   O962    1.302   .     A
C936   O961    1.304   .     A
C937   H954    1.086   .     S
C937   O960    1.220   .     D
C938   C940    1.408   .     S
C938   O964    1.292   .     A
C938   O967    1.292   .     A
C939   O965    1.292   .     A
C939   C941    1.408   .     S
C939   O966    1.292   .     A
C941   C148    1.190   1_556 S
C942   C1032   1.400   1_455 S
C943   C970    1.405   .     S
C944   C986    1.400   .     S
Cu949  O966    1.931   .     S
Cu949  N955    2.025   .     S
Cu949  O962    1.982   .     S
Cu949  O964    1.931   .     S
Cu949  Cu950   2.695   .     S
Cu949  O957    1.982   .     S
Cu950  O961    1.982   .     S
Cu950  N956    2.025   .     S
Cu950  O965    1.931   .     S
Cu950  O967    1.931   .     S
Cu950  O963    1.982   .     S
C969   C972    1.483   .     S
C969   O1001   1.302   .     A
C969   O1007   1.304   .     A
C970   C972    1.420   .     A
C970   C981    1.490   .     S
C971   C988    1.418   .     A
C971   C987    1.420   .     A
C971   C980    1.483   .     S
C972   C986    1.418   .     A
C973   N1000   1.373   .     A
C973   Cl989   1.763   .     S
C974   N999    1.373   .     A
C974   Cl990   1.763   .     S
C974   C1107   1.420   .     S
C975   N1000   1.373   .     A
C975   Cl991   1.763   .     S
C976   Cl992   1.763   .     S
C976   N999    1.373   .     A
C976   C1105   1.420   .     S
C977   H995    1.084   .     S
C977   C986    1.489   .     S
C977   O1012   1.221   .     D
C978   C987    1.490   .     S
C978   O1002   1.220   .     D
C978   H996    1.086   .     S
C979   O1003   1.221   .     D
C979   C988    1.489   .     S
C979   H997    1.084   .     S
C980   O1006   1.302   .     A
C980   O1005   1.304   .     A
C981   H998    1.086   .     S
C981   O1004   1.220   .     D
C982   C984    1.408   .     S
C982   O1008   1.292   .     A
C982   O1011   1.292   .     A
C983   O1009   1.292   .     A
C983   C985    1.408   .     S
C983   O1010   1.292   .     A
C985   C192    1.190   1_556 S
C987   C1014   1.405   .     S
C988   C1030   1.400   .     S
Cu993  O1010   1.931   .     S
Cu993  N999    2.025   .     S
Cu993  O1006   1.982   .     S
Cu993  O1008   1.931   .     S
Cu993  Cu994   2.695   .     S
Cu993  O1001   1.982   .     S
Cu994  O1005   1.982   .     S
Cu994  N1000   2.025   .     S
Cu994  O1009   1.931   .     S
Cu994  O1011   1.931   .     S
Cu994  O1007   1.982   .     S
C1013  C1016   1.483   .     S
C1013  O1045   1.302   .     A
C1013  O1051   1.304   .     A
C1014  C1016   1.420   .     A
C1014  C1025   1.490   .     S
C1015  C1032   1.418   .     A
C1015  C1031   1.420   .     A
C1015  C1024   1.483   .     S
C1016  C1030   1.418   .     A
C1017  N1044   1.373   .     A
C1017  Cl1033  1.763   .     S
C1018  N1043   1.373   .     A
C1018  Cl1034  1.763   .     S
C1018  C1151   1.420   .     S
C1019  N1044   1.373   .     A
C1019  Cl1035  1.763   .     S
C1020  Cl1036  1.763   .     S
C1020  N1043   1.373   .     A
C1020  C1149   1.420   .     S
C1021  H1039   1.084   .     S
C1021  C1030   1.489   .     S
C1021  O1056   1.221   .     D
C1022  C1031   1.490   .     S
C1022  O1046   1.220   .     D
C1022  H1040   1.086   .     S
C1023  O1047   1.221   .     D
C1023  C1032   1.489   .     S
C1023  H1041   1.084   .     S
C1024  O1050   1.302   .     A
C1024  O1049   1.304   .     A
C1025  H1042   1.086   .     S
C1025  O1048   1.220   .     D
C1026  C1028   1.408   .     S
C1026  O1052   1.292   .     A
C1026  O1055   1.292   .     A
C1027  O1053   1.292   .     A
C1027  C1029   1.408   .     S
C1027  O1054   1.292   .     A
C1029  C236    1.190   1_556 S
C1031  C926    1.405   1_655 S
C1032  C942    1.400   1_655 S
Cu1037 O1054   1.931   .     S
Cu1037 N1043   2.025   .     S
Cu1037 O1050   1.982   .     S
Cu1037 O1052   1.931   .     S
Cu1037 Cu1038  2.695   .     S
Cu1037 O1045   1.982   .     S
Cu1038 O1049   1.982   .     S
Cu1038 N1044   2.025   .     S
Cu1038 O1053   1.931   .     S
Cu1038 O1055   1.931   .     S
Cu1038 O1051   1.982   .     S
C1057  C1060   1.483   .     S
C1057  O1089   1.302   .     A
C1057  O1095   1.304   .     A
C1058  C1060   1.420   .     A
C1058  C1069   1.490   .     S
C1058  C1163   1.405   1_455 S
C1059  C1076   1.418   .     A
C1059  C1075   1.420   .     A
C1059  C1068   1.483   .     S
C1060  C1074   1.418   .     A
C1061  N1088   1.373   .     A
C1061  Cl1077  1.763   .     S
C1062  N1087   1.373   .     A
C1062  Cl1078  1.763   .     S
C1062  C799    1.420   1_565 S
C1063  N1088   1.373   .     A
C1063  Cl1079  1.763   .     S
C1064  Cl1080  1.763   .     S
C1064  N1087   1.373   .     A
C1064  C797    1.420   1_565 S
C1065  H1083   1.084   .     S
C1065  C1074   1.489   .     S
C1065  O1100   1.221   .     D
C1066  C1075   1.490   .     S
C1066  O1090   1.220   .     D
C1066  H1084   1.086   .     S
C1067  O1091   1.221   .     D
C1067  C1076   1.489   .     S
C1067  H1085   1.084   .     S
C1068  O1094   1.302   .     A
C1068  O1093   1.304   .     A
C1069  H1086   1.086   .     S
C1069  O1092   1.220   .     D
C1070  C1072   1.408   .     S
C1070  O1096   1.292   .     A
C1070  O1099   1.292   .     A
C1071  O1097   1.292   .     A
C1071  C1073   1.408   .     S
C1071  O1098   1.292   .     A
C1073  C280    1.190   1_556 S
C1074  C1164   1.400   1_455 S
C1075  C1102   1.405   .     S
C1076  C1118   1.400   .     S
Cu1081 O1098   1.931   .     S
Cu1081 N1087   2.025   .     S
Cu1081 O1094   1.982   .     S
Cu1081 O1096   1.931   .     S
Cu1081 Cu1082  2.695   .     S
Cu1081 O1089   1.982   .     S
Cu1082 O1093   1.982   .     S
Cu1082 N1088   2.025   .     S
Cu1082 O1097   1.931   .     S
Cu1082 O1099   1.931   .     S
Cu1082 O1095   1.982   .     S
C1101  C1104   1.483   .     S
C1101  O1133   1.302   .     A
C1101  O1139   1.304   .     A
C1102  C1104   1.420   .     A
C1102  C1113   1.490   .     S
C1103  C1120   1.418   .     A
C1103  C1119   1.420   .     A
C1103  C1112   1.483   .     S
C1104  C1118   1.418   .     A
C1105  N1132   1.373   .     A
C1105  Cl1121  1.763   .     S
C1106  N1131   1.373   .     A
C1106  Cl1122  1.763   .     S
C1106  C843    1.420   1_565 S
C1107  N1132   1.373   .     A
C1107  Cl1123  1.763   .     S
C1108  Cl1124  1.763   .     S
C1108  N1131   1.373   .     A
C1108  C841    1.420   1_565 S
C1109  H1127   1.084   .     S
C1109  C1118   1.489   .     S
C1109  O1144   1.221   .     D
C1110  C1119   1.490   .     S
C1110  O1134   1.220   .     D
C1110  H1128   1.086   .     S
C1111  O1135   1.221   .     D
C1111  C1120   1.489   .     S
C1111  H1129   1.084   .     S
C1112  O1138   1.302   .     A
C1112  O1137   1.304   .     A
C1113  H1130   1.086   .     S
C1113  O1136   1.220   .     D
C1114  C1116   1.408   .     S
C1114  O1140   1.292   .     A
C1114  O1143   1.292   .     A
C1115  O1141   1.292   .     A
C1115  C1117   1.408   .     S
C1115  O1142   1.292   .     A
C1117  C324    1.190   1_556 S
C1119  C1146   1.405   .     S
C1120  C1162   1.400   .     S
Cu1125 O1142   1.931   .     S
Cu1125 N1131   2.025   .     S
Cu1125 O1138   1.982   .     S
Cu1125 O1140   1.931   .     S
Cu1125 Cu1126  2.695   .     S
Cu1125 O1133   1.982   .     S
Cu1126 O1137   1.982   .     S
Cu1126 N1132   2.025   .     S
Cu1126 O1141   1.931   .     S
Cu1126 O1143   1.931   .     S
Cu1126 O1139   1.982   .     S
C1145  C1148   1.483   .     S
C1145  O1177   1.302   .     A
C1145  O1183   1.304   .     A
C1146  C1148   1.420   .     A
C1146  C1157   1.490   .     S
C1147  C1164   1.418   .     A
C1147  C1163   1.420   .     A
C1147  C1156   1.483   .     S
C1148  C1162   1.418   .     A
C1149  N1176   1.373   .     A
C1149  Cl1165  1.763   .     S
C1150  N1175   1.373   .     A
C1150  Cl1166  1.763   .     S
C1150  C887    1.420   1_565 S
C1151  N1176   1.373   .     A
C1151  Cl1167  1.763   .     S
C1152  Cl1168  1.763   .     S
C1152  N1175   1.373   .     A
C1152  C885    1.420   1_565 S
C1153  H1171   1.084   .     S
C1153  C1162   1.489   .     S
C1153  O1188   1.221   .     D
C1154  C1163   1.490   .     S
C1154  O1178   1.220   .     D
C1154  H1172   1.086   .     S
C1155  O1179   1.221   .     D
C1155  C1164   1.489   .     S
C1155  H1173   1.084   .     S
C1156  O1182   1.302   .     A
C1156  O1181   1.304   .     A
C1157  H1174   1.086   .     S
C1157  O1180   1.220   .     D
C1158  C1160   1.408   .     S
C1158  O1184   1.292   .     A
C1158  O1187   1.292   .     A
C1159  O1185   1.292   .     A
C1159  C1161   1.408   .     S
C1159  O1186   1.292   .     A
C1161  C368    1.190   1_556 S
C1163  C1058   1.405   1_655 S
C1164  C1074   1.400   1_655 S
Cu1169 O1186   1.931   .     S
Cu1169 N1175   2.025   .     S
Cu1169 O1182   1.982   .     S
Cu1169 O1184   1.931   .     S
Cu1169 Cu1170  2.695   .     S
Cu1169 O1177   1.982   .     S
Cu1170 O1181   1.982   .     S
Cu1170 N1176   2.025   .     S
Cu1170 O1185   1.931   .     S
Cu1170 O1187   1.931   .     S
Cu1170 O1183   1.982   .     S
