data_str_m2_o10_o16_pcu_sym.150
_audit_creation_date              2020-01-03
_audit_creation_method            'Materials Studio'
_symmetry_space_group_name_H-M    'P1'
_symmetry_Int_Tables_number       1
_symmetry_cell_setting            triclinic
loop_
_symmetry_equiv_pos_as_xyz
  x,y,z
_cell_length_a                    22.6017
_cell_length_b                    26.1024
_cell_length_c                    26.8263
_cell_angle_alpha                 96.1074
_cell_angle_beta                  77.5319
_cell_angle_gamma                 103.6785
loop_
_atom_site_label
_atom_site_type_symbol
_atom_site_fract_x
_atom_site_fract_y
_atom_site_fract_z
_atom_site_U_iso_or_equiv
_atom_site_adp_type
_atom_site_occupancy
C1     C     0.18204   0.26672   0.25127   0.00000  Uiso   1.00
C2     C     0.13940   0.16797   0.48781   0.00000  Uiso   1.00
C3     C     0.15538   0.18368   0.43672   0.00000  Uiso   1.00
C4     C     0.18592   0.18036   0.01833   0.00000  Uiso   1.00
C5     C     0.24541   0.21174   0.49890   0.00000  Uiso   1.00
C6     C     0.25754   0.23168   0.45076   0.00000  Uiso   1.00
C7     C     0.21280   0.21878   0.42067   0.00000  Uiso   1.00
C8     C     0.17523   0.16260   0.06769   0.00000  Uiso   1.00
C9     C     0.27884   0.20790   0.07821   0.00000  Uiso   1.00
C10    C     0.11309   0.16445   0.40320   0.00000  Uiso   1.00
C11    C     0.19010   0.32300   0.25301   0.00000  Uiso   1.00
C12    C     0.13349   0.16580   0.34713   0.00000  Uiso   1.00
C13    C     0.14664   0.01062   0.24140   0.00000  Uiso   1.00
C14    C     0.15225   0.06667   0.24675   0.00000  Uiso   1.00
C15    C     0.20017   0.17019   0.15318   0.00000  Uiso   1.00
C16    C     0.29165   0.22428   0.02852   0.00000  Uiso   1.00
C17    C     0.21989   0.17834   0.09839   0.00000  Uiso   1.00
C18    C     0.05223   0.13798   0.42308   0.00000  Uiso   1.00
C19    C     0.03436   0.12752   0.47445   0.00000  Uiso   1.00
C20    C     0.07739   0.14117   0.00637   0.00000  Uiso   1.00
Cu21   Cu    0.10710   0.16105   0.24435   0.00000  Uiso   1.00
Cu22   Cu    0.22623   0.17228   0.25564   0.00000  Uiso   1.00
H23    H     0.31392   0.22037   0.10150   0.00000  Uiso   1.00
H24    H     0.10708   0.31981   0.22718   0.00000  Uiso   1.00
H25    H     0.32974   0.12569   0.21064   0.00000  Uiso   1.00
H26    H     0.30172   0.25768   0.43637   0.00000  Uiso   1.00
H27    H     0.00381   0.24809   0.01374   0.00000  Uiso   1.00
H28    H     0.13183   0.13727   0.08388   0.00000  Uiso   1.00
H29    H     0.01874   0.12388   0.39854   0.00000  Uiso   1.00
H30    H     0.06007   0.13123   0.04559   0.00000  Uiso   1.00
H31    H     0.32047   0.10728   0.48941   0.00000  Uiso   1.00
H32    H     0.22321   0.23791   0.38519   0.00000  Uiso   1.00
H33    H     0.23119   0.01390   0.26534   0.00000  Uiso   1.00
N34    N     0.31574   0.18074   0.26416   0.00000  Uiso   1.00
N35    N     0.01759   0.15259   0.23584   0.00000  Uiso   1.00
O36    O     0.12797   0.23807   0.24633   0.00000  Uiso   1.00
O37    O     0.22858   0.24755   0.25586   0.00000  Uiso   1.00
O38    O     0.09181   0.15960   0.31839   0.00000  Uiso   1.00
O39    O     0.19242   0.16908   0.32793   0.00000  Uiso   1.00
O40    O     0.10476   0.08578   0.24413   0.00000  Uiso   1.00
O41    O     0.20536   0.09526   0.25367   0.00000  Uiso   1.00
O42    O     0.14092   0.16425   0.17207   0.00000  Uiso   1.00
O43    O     0.24152   0.17373   0.18160   0.00000  Uiso   1.00
N44    N     0.00562   0.21922   0.29904   0.00000  Uiso   1.00
H45    H     0.04296   0.21739   0.31281   0.00000  Uiso   1.00
C46    C     0.00138   0.27266   0.29405   0.00000  Uiso   1.00
H47    H     0.03940   0.30092   0.30912   0.00000  Uiso   1.00
H48    H     0.29110   0.28057   0.31807   0.00000  Uiso   1.00
H49    H     0.00542   0.28022   0.25339   0.00000  Uiso   1.00
C50    C     0.51537   0.26672   0.25127   0.00000  Uiso   1.00
C51    C     0.47273   0.16797   0.48781   0.00000  Uiso   1.00
C52    C     0.48871   0.18368   0.43672   0.00000  Uiso   1.00
C53    C     0.51925   0.18036   0.01833   0.00000  Uiso   1.00
C54    C     0.57874   0.21174   0.49890   0.00000  Uiso   1.00
C55    C     0.59087   0.23168   0.45076   0.00000  Uiso   1.00
C56    C     0.54613   0.21878   0.42067   0.00000  Uiso   1.00
C57    C     0.50857   0.16260   0.06769   0.00000  Uiso   1.00
C58    C     0.61218   0.20790   0.07821   0.00000  Uiso   1.00
C59    C     0.44642   0.16445   0.40320   0.00000  Uiso   1.00
C60    C     0.52343   0.32300   0.25301   0.00000  Uiso   1.00
C61    C     0.46682   0.16580   0.34713   0.00000  Uiso   1.00
C62    C     0.47998   0.01062   0.24140   0.00000  Uiso   1.00
C63    C     0.48558   0.06667   0.24675   0.00000  Uiso   1.00
C64    C     0.53350   0.17019   0.15318   0.00000  Uiso   1.00
C65    C     0.62498   0.22428   0.02852   0.00000  Uiso   1.00
C66    C     0.55322   0.17834   0.09839   0.00000  Uiso   1.00
C67    C     0.38557   0.13798   0.42308   0.00000  Uiso   1.00
C68    C     0.36769   0.12752   0.47445   0.00000  Uiso   1.00
C69    C     0.41072   0.14117   0.00637   0.00000  Uiso   1.00
Cu70   Cu    0.44043   0.16105   0.24435   0.00000  Uiso   1.00
Cu71   Cu    0.55957   0.17228   0.25564   0.00000  Uiso   1.00
H72    H     0.64725   0.22037   0.10150   0.00000  Uiso   1.00
H73    H     0.44041   0.31981   0.22718   0.00000  Uiso   1.00
H74    H     0.66307   0.12569   0.21064   0.00000  Uiso   1.00
H75    H     0.63505   0.25768   0.43637   0.00000  Uiso   1.00
H76    H     0.33714   0.24809   0.01374   0.00000  Uiso   1.00
H77    H     0.46516   0.13727   0.08388   0.00000  Uiso   1.00
H78    H     0.35207   0.12388   0.39854   0.00000  Uiso   1.00
H79    H     0.39340   0.13123   0.04559   0.00000  Uiso   1.00
H80    H     0.65381   0.10728   0.48941   0.00000  Uiso   1.00
H81    H     0.55655   0.23791   0.38519   0.00000  Uiso   1.00
H82    H     0.56452   0.01390   0.26534   0.00000  Uiso   1.00
N83    N     0.64908   0.18074   0.26416   0.00000  Uiso   1.00
N84    N     0.35092   0.15259   0.23584   0.00000  Uiso   1.00
O85    O     0.46131   0.23807   0.24633   0.00000  Uiso   1.00
O86    O     0.56191   0.24755   0.25586   0.00000  Uiso   1.00
O87    O     0.42515   0.15960   0.31839   0.00000  Uiso   1.00
O88    O     0.52575   0.16908   0.32793   0.00000  Uiso   1.00
O89    O     0.43809   0.08578   0.24413   0.00000  Uiso   1.00
O90    O     0.53869   0.09526   0.25367   0.00000  Uiso   1.00
O91    O     0.47425   0.16425   0.17207   0.00000  Uiso   1.00
O92    O     0.57485   0.17373   0.18160   0.00000  Uiso   1.00
N93    N     0.33895   0.21922   0.29904   0.00000  Uiso   1.00
H94    H     0.37629   0.21739   0.31281   0.00000  Uiso   1.00
C95    C     0.33471   0.27266   0.29405   0.00000  Uiso   1.00
H96    H     0.37273   0.30092   0.30912   0.00000  Uiso   1.00
H97    H     0.62444   0.28057   0.31807   0.00000  Uiso   1.00
H98    H     0.33875   0.28022   0.25339   0.00000  Uiso   1.00
C99    C     0.84870   0.26672   0.25127   0.00000  Uiso   1.00
C100   C     0.80606   0.16797   0.48781   0.00000  Uiso   1.00
C101   C     0.82204   0.18368   0.43672   0.00000  Uiso   1.00
C102   C     0.85258   0.18036   0.01833   0.00000  Uiso   1.00
C103   C     0.91208   0.21174   0.49890   0.00000  Uiso   1.00
C104   C     0.92420   0.23168   0.45076   0.00000  Uiso   1.00
C105   C     0.87946   0.21878   0.42067   0.00000  Uiso   1.00
C106   C     0.84190   0.16260   0.06769   0.00000  Uiso   1.00
C107   C     0.94551   0.20790   0.07821   0.00000  Uiso   1.00
C108   C     0.77976   0.16445   0.40320   0.00000  Uiso   1.00
C109   C     0.85676   0.32300   0.25301   0.00000  Uiso   1.00
C110   C     0.80015   0.16580   0.34713   0.00000  Uiso   1.00
C111   C     0.81331   0.01062   0.24140   0.00000  Uiso   1.00
C112   C     0.81892   0.06667   0.24675   0.00000  Uiso   1.00
C113   C     0.86683   0.17019   0.15318   0.00000  Uiso   1.00
C114   C     0.95831   0.22428   0.02852   0.00000  Uiso   1.00
C115   C     0.88656   0.17834   0.09839   0.00000  Uiso   1.00
C116   C     0.71890   0.13798   0.42308   0.00000  Uiso   1.00
C117   C     0.70103   0.12752   0.47445   0.00000  Uiso   1.00
C118   C     0.74405   0.14117   0.00637   0.00000  Uiso   1.00
Cu119  Cu    0.77377   0.16105   0.24435   0.00000  Uiso   1.00
Cu120  Cu    0.89290   0.17228   0.25564   0.00000  Uiso   1.00
H121   H     0.98058   0.22037   0.10150   0.00000  Uiso   1.00
H122   H     0.77375   0.31981   0.22718   0.00000  Uiso   1.00
H123   H     0.99640   0.12569   0.21064   0.00000  Uiso   1.00
H124   H     0.96838   0.25768   0.43637   0.00000  Uiso   1.00
H125   H     0.67047   0.24809   0.01374   0.00000  Uiso   1.00
H126   H     0.79850   0.13727   0.08388   0.00000  Uiso   1.00
H127   H     0.68541   0.12388   0.39854   0.00000  Uiso   1.00
H128   H     0.72673   0.13123   0.04559   0.00000  Uiso   1.00
H129   H     0.98714   0.10728   0.48941   0.00000  Uiso   1.00
H130   H     0.88988   0.23791   0.38519   0.00000  Uiso   1.00
H131   H     0.89785   0.01390   0.26534   0.00000  Uiso   1.00
N132   N     0.98241   0.18074   0.26416   0.00000  Uiso   1.00
N133   N     0.68426   0.15259   0.23584   0.00000  Uiso   1.00
O134   O     0.79464   0.23807   0.24633   0.00000  Uiso   1.00
O135   O     0.89524   0.24755   0.25586   0.00000  Uiso   1.00
O136   O     0.75848   0.15960   0.31839   0.00000  Uiso   1.00
O137   O     0.85908   0.16908   0.32793   0.00000  Uiso   1.00
O138   O     0.77142   0.08578   0.24413   0.00000  Uiso   1.00
O139   O     0.87203   0.09526   0.25367   0.00000  Uiso   1.00
O140   O     0.80758   0.16425   0.17207   0.00000  Uiso   1.00
O141   O     0.90819   0.17373   0.18160   0.00000  Uiso   1.00
N142   N     0.67229   0.21922   0.29904   0.00000  Uiso   1.00
H143   H     0.70962   0.21739   0.31281   0.00000  Uiso   1.00
C144   C     0.66804   0.27266   0.29405   0.00000  Uiso   1.00
H145   H     0.70607   0.30092   0.30912   0.00000  Uiso   1.00
H146   H     0.95777   0.28057   0.31807   0.00000  Uiso   1.00
H147   H     0.67208   0.28022   0.25339   0.00000  Uiso   1.00
C148   C     0.18204   0.60005   0.25127   0.00000  Uiso   1.00
C149   C     0.13940   0.50130   0.48781   0.00000  Uiso   1.00
C150   C     0.15538   0.51701   0.43672   0.00000  Uiso   1.00
C151   C     0.18592   0.51369   0.01833   0.00000  Uiso   1.00
C152   C     0.24541   0.54507   0.49890   0.00000  Uiso   1.00
C153   C     0.25754   0.56501   0.45076   0.00000  Uiso   1.00
C154   C     0.21280   0.55212   0.42067   0.00000  Uiso   1.00
C155   C     0.17523   0.49594   0.06769   0.00000  Uiso   1.00
C156   C     0.27884   0.54123   0.07821   0.00000  Uiso   1.00
C157   C     0.11309   0.49778   0.40320   0.00000  Uiso   1.00
C158   C     0.19010   0.65633   0.25301   0.00000  Uiso   1.00
C159   C     0.13349   0.49913   0.34713   0.00000  Uiso   1.00
C160   C     0.14664   0.34395   0.24140   0.00000  Uiso   1.00
C161   C     0.15225   0.40001   0.24675   0.00000  Uiso   1.00
C162   C     0.20017   0.50352   0.15318   0.00000  Uiso   1.00
C163   C     0.29165   0.55761   0.02852   0.00000  Uiso   1.00
C164   C     0.21989   0.51167   0.09839   0.00000  Uiso   1.00
C165   C     0.05223   0.47132   0.42308   0.00000  Uiso   1.00
C166   C     0.03436   0.46085   0.47445   0.00000  Uiso   1.00
C167   C     0.07739   0.47451   0.00637   0.00000  Uiso   1.00
Cu168  Cu    0.10710   0.49439   0.24435   0.00000  Uiso   1.00
Cu169  Cu    0.22623   0.50561   0.25564   0.00000  Uiso   1.00
H170   H     0.31392   0.55371   0.10150   0.00000  Uiso   1.00
H171   H     0.10708   0.65315   0.22718   0.00000  Uiso   1.00
H172   H     0.32974   0.45902   0.21064   0.00000  Uiso   1.00
H173   H     0.30172   0.59101   0.43637   0.00000  Uiso   1.00
H174   H     0.00381   0.58143   0.01374   0.00000  Uiso   1.00
H175   H     0.13183   0.47060   0.08388   0.00000  Uiso   1.00
H176   H     0.01874   0.45721   0.39854   0.00000  Uiso   1.00
H177   H     0.06007   0.46456   0.04559   0.00000  Uiso   1.00
H178   H     0.32047   0.44061   0.48941   0.00000  Uiso   1.00
H179   H     0.22321   0.57125   0.38519   0.00000  Uiso   1.00
H180   H     0.23119   0.34723   0.26534   0.00000  Uiso   1.00
N181   N     0.31574   0.51407   0.26416   0.00000  Uiso   1.00
N182   N     0.01759   0.48593   0.23584   0.00000  Uiso   1.00
O183   O     0.12797   0.57141   0.24633   0.00000  Uiso   1.00
O184   O     0.22858   0.58089   0.25586   0.00000  Uiso   1.00
O185   O     0.09181   0.49293   0.31839   0.00000  Uiso   1.00
O186   O     0.19242   0.50241   0.32793   0.00000  Uiso   1.00
O187   O     0.10476   0.41911   0.24413   0.00000  Uiso   1.00
O188   O     0.20536   0.42859   0.25367   0.00000  Uiso   1.00
O189   O     0.14092   0.49759   0.17207   0.00000  Uiso   1.00
O190   O     0.24152   0.50707   0.18160   0.00000  Uiso   1.00
N191   N     0.00562   0.55255   0.29904   0.00000  Uiso   1.00
H192   H     0.04296   0.55073   0.31281   0.00000  Uiso   1.00
C193   C     0.00138   0.60599   0.29405   0.00000  Uiso   1.00
H194   H     0.03940   0.63426   0.30912   0.00000  Uiso   1.00
H195   H     0.29110   0.61390   0.31807   0.00000  Uiso   1.00
H196   H     0.00542   0.61355   0.25339   0.00000  Uiso   1.00
C197   C     0.51537   0.60005   0.25127   0.00000  Uiso   1.00
C198   C     0.47273   0.50130   0.48781   0.00000  Uiso   1.00
C199   C     0.48871   0.51701   0.43672   0.00000  Uiso   1.00
C200   C     0.51925   0.51369   0.01833   0.00000  Uiso   1.00
C201   C     0.57874   0.54507   0.49890   0.00000  Uiso   1.00
C202   C     0.59087   0.56501   0.45076   0.00000  Uiso   1.00
C203   C     0.54613   0.55212   0.42067   0.00000  Uiso   1.00
C204   C     0.50857   0.49594   0.06769   0.00000  Uiso   1.00
C205   C     0.61218   0.54123   0.07821   0.00000  Uiso   1.00
C206   C     0.44642   0.49778   0.40320   0.00000  Uiso   1.00
C207   C     0.52343   0.65633   0.25301   0.00000  Uiso   1.00
C208   C     0.46682   0.49913   0.34713   0.00000  Uiso   1.00
C209   C     0.47998   0.34395   0.24140   0.00000  Uiso   1.00
C210   C     0.48558   0.40001   0.24675   0.00000  Uiso   1.00
C211   C     0.53350   0.50352   0.15318   0.00000  Uiso   1.00
C212   C     0.62498   0.55761   0.02852   0.00000  Uiso   1.00
C213   C     0.55322   0.51167   0.09839   0.00000  Uiso   1.00
C214   C     0.38557   0.47132   0.42308   0.00000  Uiso   1.00
C215   C     0.36769   0.46085   0.47445   0.00000  Uiso   1.00
C216   C     0.41072   0.47451   0.00637   0.00000  Uiso   1.00
Cu217  Cu    0.44043   0.49439   0.24435   0.00000  Uiso   1.00
Cu218  Cu    0.55957   0.50561   0.25564   0.00000  Uiso   1.00
H219   H     0.64725   0.55371   0.10150   0.00000  Uiso   1.00
H220   H     0.44041   0.65315   0.22718   0.00000  Uiso   1.00
H221   H     0.66307   0.45902   0.21064   0.00000  Uiso   1.00
H222   H     0.63505   0.59101   0.43637   0.00000  Uiso   1.00
H223   H     0.33714   0.58143   0.01374   0.00000  Uiso   1.00
H224   H     0.46516   0.47060   0.08388   0.00000  Uiso   1.00
H225   H     0.35207   0.45721   0.39854   0.00000  Uiso   1.00
H226   H     0.39340   0.46456   0.04559   0.00000  Uiso   1.00
H227   H     0.65381   0.44061   0.48941   0.00000  Uiso   1.00
H228   H     0.55655   0.57125   0.38519   0.00000  Uiso   1.00
H229   H     0.56452   0.34723   0.26534   0.00000  Uiso   1.00
N230   N     0.64908   0.51407   0.26416   0.00000  Uiso   1.00
N231   N     0.35092   0.48593   0.23584   0.00000  Uiso   1.00
O232   O     0.46131   0.57141   0.24633   0.00000  Uiso   1.00
O233   O     0.56191   0.58089   0.25586   0.00000  Uiso   1.00
O234   O     0.42515   0.49293   0.31839   0.00000  Uiso   1.00
O235   O     0.52575   0.50241   0.32793   0.00000  Uiso   1.00
O236   O     0.43809   0.41911   0.24413   0.00000  Uiso   1.00
O237   O     0.53869   0.42859   0.25367   0.00000  Uiso   1.00
O238   O     0.47425   0.49759   0.17207   0.00000  Uiso   1.00
O239   O     0.57485   0.50707   0.18160   0.00000  Uiso   1.00
N240   N     0.33895   0.55255   0.29904   0.00000  Uiso   1.00
H241   H     0.37629   0.55073   0.31281   0.00000  Uiso   1.00
C242   C     0.33471   0.60599   0.29405   0.00000  Uiso   1.00
H243   H     0.37273   0.63426   0.30912   0.00000  Uiso   1.00
H244   H     0.62444   0.61390   0.31807   0.00000  Uiso   1.00
H245   H     0.33875   0.61355   0.25339   0.00000  Uiso   1.00
C246   C     0.84870   0.60005   0.25127   0.00000  Uiso   1.00
C247   C     0.80606   0.50130   0.48781   0.00000  Uiso   1.00
C248   C     0.82204   0.51701   0.43672   0.00000  Uiso   1.00
C249   C     0.85258   0.51369   0.01833   0.00000  Uiso   1.00
C250   C     0.91208   0.54507   0.49890   0.00000  Uiso   1.00
C251   C     0.92420   0.56501   0.45076   0.00000  Uiso   1.00
C252   C     0.87946   0.55212   0.42067   0.00000  Uiso   1.00
C253   C     0.84190   0.49594   0.06769   0.00000  Uiso   1.00
C254   C     0.94551   0.54123   0.07821   0.00000  Uiso   1.00
C255   C     0.77976   0.49778   0.40320   0.00000  Uiso   1.00
C256   C     0.85676   0.65633   0.25301   0.00000  Uiso   1.00
C257   C     0.80015   0.49913   0.34713   0.00000  Uiso   1.00
C258   C     0.81331   0.34395   0.24140   0.00000  Uiso   1.00
C259   C     0.81892   0.40001   0.24675   0.00000  Uiso   1.00
C260   C     0.86683   0.50352   0.15318   0.00000  Uiso   1.00
C261   C     0.95831   0.55761   0.02852   0.00000  Uiso   1.00
C262   C     0.88656   0.51167   0.09839   0.00000  Uiso   1.00
C263   C     0.71890   0.47132   0.42308   0.00000  Uiso   1.00
C264   C     0.70103   0.46085   0.47445   0.00000  Uiso   1.00
C265   C     0.74405   0.47451   0.00637   0.00000  Uiso   1.00
Cu266  Cu    0.77377   0.49439   0.24435   0.00000  Uiso   1.00
Cu267  Cu    0.89290   0.50561   0.25564   0.00000  Uiso   1.00
H268   H     0.98058   0.55371   0.10150   0.00000  Uiso   1.00
H269   H     0.77375   0.65315   0.22718   0.00000  Uiso   1.00
H270   H     0.99640   0.45902   0.21064   0.00000  Uiso   1.00
H271   H     0.96838   0.59101   0.43637   0.00000  Uiso   1.00
H272   H     0.67047   0.58143   0.01374   0.00000  Uiso   1.00
H273   H     0.79850   0.47060   0.08388   0.00000  Uiso   1.00
H274   H     0.68541   0.45721   0.39854   0.00000  Uiso   1.00
H275   H     0.72673   0.46456   0.04559   0.00000  Uiso   1.00
H276   H     0.98714   0.44061   0.48941   0.00000  Uiso   1.00
H277   H     0.88988   0.57125   0.38519   0.00000  Uiso   1.00
H278   H     0.89785   0.34723   0.26534   0.00000  Uiso   1.00
N279   N     0.98241   0.51407   0.26416   0.00000  Uiso   1.00
N280   N     0.68426   0.48593   0.23584   0.00000  Uiso   1.00
O281   O     0.79464   0.57141   0.24633   0.00000  Uiso   1.00
O282   O     0.89524   0.58089   0.25586   0.00000  Uiso   1.00
O283   O     0.75848   0.49293   0.31839   0.00000  Uiso   1.00
O284   O     0.85908   0.50241   0.32793   0.00000  Uiso   1.00
O285   O     0.77142   0.41911   0.24413   0.00000  Uiso   1.00
O286   O     0.87203   0.42859   0.25367   0.00000  Uiso   1.00
O287   O     0.80758   0.49759   0.17207   0.00000  Uiso   1.00
O288   O     0.90819   0.50707   0.18160   0.00000  Uiso   1.00
N289   N     0.67229   0.55255   0.29904   0.00000  Uiso   1.00
H290   H     0.70962   0.55073   0.31281   0.00000  Uiso   1.00
C291   C     0.66804   0.60599   0.29405   0.00000  Uiso   1.00
H292   H     0.70607   0.63426   0.30912   0.00000  Uiso   1.00
H293   H     0.95777   0.61390   0.31807   0.00000  Uiso   1.00
H294   H     0.67208   0.61355   0.25339   0.00000  Uiso   1.00
C295   C     0.18204   0.93338   0.25127   0.00000  Uiso   1.00
C296   C     0.13940   0.83464   0.48781   0.00000  Uiso   1.00
C297   C     0.15538   0.85035   0.43672   0.00000  Uiso   1.00
C298   C     0.18592   0.84702   0.01833   0.00000  Uiso   1.00
C299   C     0.24541   0.87841   0.49890   0.00000  Uiso   1.00
C300   C     0.25754   0.89834   0.45076   0.00000  Uiso   1.00
C301   C     0.21280   0.88545   0.42067   0.00000  Uiso   1.00
C302   C     0.17523   0.82927   0.06769   0.00000  Uiso   1.00
C303   C     0.27884   0.87457   0.07821   0.00000  Uiso   1.00
C304   C     0.11309   0.83112   0.40320   0.00000  Uiso   1.00
C305   C     0.19010   0.98967   0.25301   0.00000  Uiso   1.00
C306   C     0.13349   0.83247   0.34713   0.00000  Uiso   1.00
C307   C     0.14664   0.67728   0.24140   0.00000  Uiso   1.00
C308   C     0.15225   0.73334   0.24675   0.00000  Uiso   1.00
C309   C     0.20017   0.83686   0.15318   0.00000  Uiso   1.00
C310   C     0.29165   0.89095   0.02852   0.00000  Uiso   1.00
C311   C     0.21989   0.84501   0.09839   0.00000  Uiso   1.00
C312   C     0.05223   0.80465   0.42308   0.00000  Uiso   1.00
C313   C     0.03436   0.79419   0.47445   0.00000  Uiso   1.00
C314   C     0.07739   0.80784   0.00637   0.00000  Uiso   1.00
Cu315  Cu    0.10710   0.82772   0.24435   0.00000  Uiso   1.00
Cu316  Cu    0.22623   0.83895   0.25564   0.00000  Uiso   1.00
H317   H     0.31392   0.88704   0.10150   0.00000  Uiso   1.00
H318   H     0.10708   0.98648   0.22718   0.00000  Uiso   1.00
H319   H     0.32974   0.79235   0.21064   0.00000  Uiso   1.00
H320   H     0.30172   0.92435   0.43637   0.00000  Uiso   1.00
H321   H     0.00381   0.91476   0.01374   0.00000  Uiso   1.00
H322   H     0.13183   0.80393   0.08388   0.00000  Uiso   1.00
H323   H     0.01874   0.79054   0.39854   0.00000  Uiso   1.00
H324   H     0.06007   0.79789   0.04559   0.00000  Uiso   1.00
H325   H     0.32047   0.77394   0.48941   0.00000  Uiso   1.00
H326   H     0.22321   0.90458   0.38519   0.00000  Uiso   1.00
H327   H     0.23119   0.68057   0.26534   0.00000  Uiso   1.00
N328   N     0.31574   0.84741   0.26416   0.00000  Uiso   1.00
N329   N     0.01759   0.81926   0.23584   0.00000  Uiso   1.00
O330   O     0.12797   0.90474   0.24633   0.00000  Uiso   1.00
O331   O     0.22858   0.91422   0.25586   0.00000  Uiso   1.00
O332   O     0.09181   0.82627   0.31839   0.00000  Uiso   1.00
O333   O     0.19242   0.83575   0.32793   0.00000  Uiso   1.00
O334   O     0.10476   0.75245   0.24413   0.00000  Uiso   1.00
O335   O     0.20536   0.76193   0.25367   0.00000  Uiso   1.00
O336   O     0.14092   0.83092   0.17207   0.00000  Uiso   1.00
O337   O     0.24152   0.84040   0.18160   0.00000  Uiso   1.00
N338   N     0.00562   0.88588   0.29904   0.00000  Uiso   1.00
H339   H     0.04296   0.88406   0.31281   0.00000  Uiso   1.00
C340   C     0.00138   0.93932   0.29405   0.00000  Uiso   1.00
H341   H     0.03940   0.96759   0.30912   0.00000  Uiso   1.00
H342   H     0.29110   0.94724   0.31807   0.00000  Uiso   1.00
H343   H     0.00542   0.94689   0.25339   0.00000  Uiso   1.00
C344   C     0.51537   0.93338   0.25127   0.00000  Uiso   1.00
C345   C     0.47273   0.83464   0.48781   0.00000  Uiso   1.00
C346   C     0.48871   0.85035   0.43672   0.00000  Uiso   1.00
C347   C     0.51925   0.84702   0.01833   0.00000  Uiso   1.00
C348   C     0.57874   0.87841   0.49890   0.00000  Uiso   1.00
C349   C     0.59087   0.89834   0.45076   0.00000  Uiso   1.00
C350   C     0.54613   0.88545   0.42067   0.00000  Uiso   1.00
C351   C     0.50857   0.82927   0.06769   0.00000  Uiso   1.00
C352   C     0.61218   0.87457   0.07821   0.00000  Uiso   1.00
C353   C     0.44642   0.83112   0.40320   0.00000  Uiso   1.00
C354   C     0.52343   0.98967   0.25301   0.00000  Uiso   1.00
C355   C     0.46682   0.83247   0.34713   0.00000  Uiso   1.00
C356   C     0.47998   0.67728   0.24140   0.00000  Uiso   1.00
C357   C     0.48558   0.73334   0.24675   0.00000  Uiso   1.00
C358   C     0.53350   0.83686   0.15318   0.00000  Uiso   1.00
C359   C     0.62498   0.89095   0.02852   0.00000  Uiso   1.00
C360   C     0.55322   0.84501   0.09839   0.00000  Uiso   1.00
C361   C     0.38557   0.80465   0.42308   0.00000  Uiso   1.00
C362   C     0.36769   0.79419   0.47445   0.00000  Uiso   1.00
C363   C     0.41072   0.80784   0.00637   0.00000  Uiso   1.00
Cu364  Cu    0.44043   0.82772   0.24435   0.00000  Uiso   1.00
Cu365  Cu    0.55957   0.83895   0.25564   0.00000  Uiso   1.00
H366   H     0.64725   0.88704   0.10150   0.00000  Uiso   1.00
H367   H     0.44041   0.98648   0.22718   0.00000  Uiso   1.00
H368   H     0.66307   0.79235   0.21064   0.00000  Uiso   1.00
H369   H     0.63505   0.92435   0.43637   0.00000  Uiso   1.00
H370   H     0.33714   0.91476   0.01374   0.00000  Uiso   1.00
H371   H     0.46516   0.80393   0.08388   0.00000  Uiso   1.00
H372   H     0.35207   0.79054   0.39854   0.00000  Uiso   1.00
H373   H     0.39340   0.79789   0.04559   0.00000  Uiso   1.00
H374   H     0.65381   0.77394   0.48941   0.00000  Uiso   1.00
H375   H     0.55655   0.90458   0.38519   0.00000  Uiso   1.00
H376   H     0.56452   0.68057   0.26534   0.00000  Uiso   1.00
N377   N     0.64908   0.84741   0.26416   0.00000  Uiso   1.00
N378   N     0.35092   0.81926   0.23584   0.00000  Uiso   1.00
O379   O     0.46131   0.90474   0.24633   0.00000  Uiso   1.00
O380   O     0.56191   0.91422   0.25586   0.00000  Uiso   1.00
O381   O     0.42515   0.82627   0.31839   0.00000  Uiso   1.00
O382   O     0.52575   0.83575   0.32793   0.00000  Uiso   1.00
O383   O     0.43809   0.75245   0.24413   0.00000  Uiso   1.00
O384   O     0.53869   0.76193   0.25367   0.00000  Uiso   1.00
O385   O     0.47425   0.83092   0.17207   0.00000  Uiso   1.00
O386   O     0.57485   0.84040   0.18160   0.00000  Uiso   1.00
N387   N     0.33895   0.88588   0.29904   0.00000  Uiso   1.00
H388   H     0.37629   0.88406   0.31281   0.00000  Uiso   1.00
C389   C     0.33471   0.93932   0.29405   0.00000  Uiso   1.00
H390   H     0.37273   0.96759   0.30912   0.00000  Uiso   1.00
H391   H     0.62444   0.94724   0.31807   0.00000  Uiso   1.00
H392   H     0.33875   0.94689   0.25339   0.00000  Uiso   1.00
C393   C     0.84870   0.93338   0.25127   0.00000  Uiso   1.00
C394   C     0.80606   0.83464   0.48781   0.00000  Uiso   1.00
C395   C     0.82204   0.85035   0.43672   0.00000  Uiso   1.00
C396   C     0.85258   0.84702   0.01833   0.00000  Uiso   1.00
C397   C     0.91208   0.87841   0.49890   0.00000  Uiso   1.00
C398   C     0.92420   0.89834   0.45076   0.00000  Uiso   1.00
C399   C     0.87946   0.88545   0.42067   0.00000  Uiso   1.00
C400   C     0.84190   0.82927   0.06769   0.00000  Uiso   1.00
C401   C     0.94551   0.87457   0.07821   0.00000  Uiso   1.00
C402   C     0.77976   0.83112   0.40320   0.00000  Uiso   1.00
C403   C     0.85676   0.98967   0.25301   0.00000  Uiso   1.00
C404   C     0.80015   0.83247   0.34713   0.00000  Uiso   1.00
C405   C     0.81331   0.67728   0.24140   0.00000  Uiso   1.00
C406   C     0.81892   0.73334   0.24675   0.00000  Uiso   1.00
C407   C     0.86683   0.83686   0.15318   0.00000  Uiso   1.00
C408   C     0.95831   0.89095   0.02852   0.00000  Uiso   1.00
C409   C     0.88656   0.84501   0.09839   0.00000  Uiso   1.00
C410   C     0.71890   0.80465   0.42308   0.00000  Uiso   1.00
C411   C     0.70103   0.79419   0.47445   0.00000  Uiso   1.00
C412   C     0.74405   0.80784   0.00637   0.00000  Uiso   1.00
Cu413  Cu    0.77377   0.82772   0.24435   0.00000  Uiso   1.00
Cu414  Cu    0.89290   0.83895   0.25564   0.00000  Uiso   1.00
H415   H     0.98058   0.88704   0.10150   0.00000  Uiso   1.00
H416   H     0.77375   0.98648   0.22718   0.00000  Uiso   1.00
H417   H     0.99640   0.79235   0.21064   0.00000  Uiso   1.00
H418   H     0.96838   0.92435   0.43637   0.00000  Uiso   1.00
H419   H     0.67047   0.91476   0.01374   0.00000  Uiso   1.00
H420   H     0.79850   0.80393   0.08388   0.00000  Uiso   1.00
H421   H     0.68541   0.79054   0.39854   0.00000  Uiso   1.00
H422   H     0.72673   0.79789   0.04559   0.00000  Uiso   1.00
H423   H     0.98714   0.77394   0.48941   0.00000  Uiso   1.00
H424   H     0.88988   0.90458   0.38519   0.00000  Uiso   1.00
H425   H     0.89785   0.68057   0.26534   0.00000  Uiso   1.00
N426   N     0.98241   0.84741   0.26416   0.00000  Uiso   1.00
N427   N     0.68426   0.81926   0.23584   0.00000  Uiso   1.00
O428   O     0.79464   0.90474   0.24633   0.00000  Uiso   1.00
O429   O     0.89524   0.91422   0.25586   0.00000  Uiso   1.00
O430   O     0.75848   0.82627   0.31839   0.00000  Uiso   1.00
O431   O     0.85908   0.83575   0.32793   0.00000  Uiso   1.00
O432   O     0.77142   0.75245   0.24413   0.00000  Uiso   1.00
O433   O     0.87203   0.76193   0.25367   0.00000  Uiso   1.00
O434   O     0.80758   0.83092   0.17207   0.00000  Uiso   1.00
O435   O     0.90819   0.84040   0.18160   0.00000  Uiso   1.00
N436   N     0.67229   0.88588   0.29904   0.00000  Uiso   1.00
H437   H     0.70962   0.88406   0.31281   0.00000  Uiso   1.00
C438   C     0.66804   0.93932   0.29405   0.00000  Uiso   1.00
H439   H     0.70607   0.96759   0.30912   0.00000  Uiso   1.00
H440   H     0.95777   0.94724   0.31807   0.00000  Uiso   1.00
H441   H     0.67208   0.94689   0.25339   0.00000  Uiso   1.00
C442   C     0.18204   0.26672   0.75127   0.00000  Uiso   1.00
C443   C     0.13940   0.16797   0.98781   0.00000  Uiso   1.00
C444   C     0.15538   0.18368   0.93672   0.00000  Uiso   1.00
C445   C     0.18592   0.18036   0.51833   0.00000  Uiso   1.00
C446   C     0.24541   0.21174   0.99890   0.00000  Uiso   1.00
C447   C     0.25754   0.23168   0.95076   0.00000  Uiso   1.00
C448   C     0.21280   0.21878   0.92067   0.00000  Uiso   1.00
C449   C     0.17523   0.16260   0.56769   0.00000  Uiso   1.00
C450   C     0.27884   0.20790   0.57821   0.00000  Uiso   1.00
C451   C     0.11309   0.16445   0.90320   0.00000  Uiso   1.00
C452   C     0.19010   0.32300   0.75301   0.00000  Uiso   1.00
C453   C     0.13349   0.16580   0.84713   0.00000  Uiso   1.00
C454   C     0.14664   0.01062   0.74140   0.00000  Uiso   1.00
C455   C     0.15225   0.06667   0.74675   0.00000  Uiso   1.00
C456   C     0.20017   0.17019   0.65318   0.00000  Uiso   1.00
C457   C     0.29165   0.22428   0.52852   0.00000  Uiso   1.00
C458   C     0.21989   0.17834   0.59839   0.00000  Uiso   1.00
C459   C     0.05223   0.13798   0.92308   0.00000  Uiso   1.00
C460   C     0.03436   0.12752   0.97445   0.00000  Uiso   1.00
C461   C     0.07739   0.14117   0.50637   0.00000  Uiso   1.00
Cu462  Cu    0.10710   0.16105   0.74435   0.00000  Uiso   1.00
Cu463  Cu    0.22623   0.17228   0.75564   0.00000  Uiso   1.00
H464   H     0.31392   0.22037   0.60150   0.00000  Uiso   1.00
H465   H     0.10708   0.31981   0.72718   0.00000  Uiso   1.00
H466   H     0.32974   0.12569   0.71064   0.00000  Uiso   1.00
H467   H     0.30172   0.25768   0.93637   0.00000  Uiso   1.00
H468   H     0.00381   0.24809   0.51374   0.00000  Uiso   1.00
H469   H     0.13183   0.13727   0.58388   0.00000  Uiso   1.00
H470   H     0.01874   0.12388   0.89854   0.00000  Uiso   1.00
H471   H     0.06007   0.13123   0.54559   0.00000  Uiso   1.00
H472   H     0.32047   0.10728   0.98941   0.00000  Uiso   1.00
H473   H     0.22321   0.23791   0.88519   0.00000  Uiso   1.00
H474   H     0.23119   0.01390   0.76534   0.00000  Uiso   1.00
N475   N     0.31574   0.18074   0.76416   0.00000  Uiso   1.00
N476   N     0.01759   0.15259   0.73584   0.00000  Uiso   1.00
O477   O     0.12797   0.23807   0.74633   0.00000  Uiso   1.00
O478   O     0.22858   0.24755   0.75586   0.00000  Uiso   1.00
O479   O     0.09181   0.15960   0.81839   0.00000  Uiso   1.00
O480   O     0.19242   0.16908   0.82793   0.00000  Uiso   1.00
O481   O     0.10476   0.08578   0.74413   0.00000  Uiso   1.00
O482   O     0.20536   0.09526   0.75367   0.00000  Uiso   1.00
O483   O     0.14092   0.16425   0.67207   0.00000  Uiso   1.00
O484   O     0.24152   0.17373   0.68160   0.00000  Uiso   1.00
N485   N     0.00562   0.21922   0.79904   0.00000  Uiso   1.00
H486   H     0.04296   0.21739   0.81281   0.00000  Uiso   1.00
C487   C     0.00138   0.27266   0.79405   0.00000  Uiso   1.00
H488   H     0.03940   0.30092   0.80912   0.00000  Uiso   1.00
H489   H     0.29110   0.28057   0.81807   0.00000  Uiso   1.00
H490   H     0.00542   0.28022   0.75339   0.00000  Uiso   1.00
C491   C     0.51537   0.26672   0.75127   0.00000  Uiso   1.00
C492   C     0.47273   0.16797   0.98781   0.00000  Uiso   1.00
C493   C     0.48871   0.18368   0.93672   0.00000  Uiso   1.00
C494   C     0.51925   0.18036   0.51833   0.00000  Uiso   1.00
C495   C     0.57874   0.21174   0.99890   0.00000  Uiso   1.00
C496   C     0.59087   0.23168   0.95076   0.00000  Uiso   1.00
C497   C     0.54613   0.21878   0.92067   0.00000  Uiso   1.00
C498   C     0.50857   0.16260   0.56769   0.00000  Uiso   1.00
C499   C     0.61218   0.20790   0.57821   0.00000  Uiso   1.00
C500   C     0.44642   0.16445   0.90320   0.00000  Uiso   1.00
C501   C     0.52343   0.32300   0.75301   0.00000  Uiso   1.00
C502   C     0.46682   0.16580   0.84713   0.00000  Uiso   1.00
C503   C     0.47998   0.01062   0.74140   0.00000  Uiso   1.00
C504   C     0.48558   0.06667   0.74675   0.00000  Uiso   1.00
C505   C     0.53350   0.17019   0.65318   0.00000  Uiso   1.00
C506   C     0.62498   0.22428   0.52852   0.00000  Uiso   1.00
C507   C     0.55322   0.17834   0.59839   0.00000  Uiso   1.00
C508   C     0.38557   0.13798   0.92308   0.00000  Uiso   1.00
C509   C     0.36769   0.12752   0.97445   0.00000  Uiso   1.00
C510   C     0.41072   0.14117   0.50637   0.00000  Uiso   1.00
Cu511  Cu    0.44043   0.16105   0.74435   0.00000  Uiso   1.00
Cu512  Cu    0.55957   0.17228   0.75564   0.00000  Uiso   1.00
H513   H     0.64725   0.22037   0.60150   0.00000  Uiso   1.00
H514   H     0.44041   0.31981   0.72718   0.00000  Uiso   1.00
H515   H     0.66307   0.12569   0.71064   0.00000  Uiso   1.00
H516   H     0.63505   0.25768   0.93637   0.00000  Uiso   1.00
H517   H     0.33714   0.24809   0.51374   0.00000  Uiso   1.00
H518   H     0.46516   0.13727   0.58388   0.00000  Uiso   1.00
H519   H     0.35207   0.12388   0.89854   0.00000  Uiso   1.00
H520   H     0.39340   0.13123   0.54559   0.00000  Uiso   1.00
H521   H     0.65381   0.10728   0.98941   0.00000  Uiso   1.00
H522   H     0.55655   0.23791   0.88519   0.00000  Uiso   1.00
H523   H     0.56452   0.01390   0.76534   0.00000  Uiso   1.00
N524   N     0.64908   0.18074   0.76416   0.00000  Uiso   1.00
N525   N     0.35092   0.15259   0.73584   0.00000  Uiso   1.00
O526   O     0.46131   0.23807   0.74633   0.00000  Uiso   1.00
O527   O     0.56191   0.24755   0.75586   0.00000  Uiso   1.00
O528   O     0.42515   0.15960   0.81839   0.00000  Uiso   1.00
O529   O     0.52575   0.16908   0.82793   0.00000  Uiso   1.00
O530   O     0.43809   0.08578   0.74413   0.00000  Uiso   1.00
O531   O     0.53869   0.09526   0.75367   0.00000  Uiso   1.00
O532   O     0.47425   0.16425   0.67207   0.00000  Uiso   1.00
O533   O     0.57485   0.17373   0.68160   0.00000  Uiso   1.00
N534   N     0.33895   0.21922   0.79904   0.00000  Uiso   1.00
H535   H     0.37629   0.21739   0.81281   0.00000  Uiso   1.00
C536   C     0.33471   0.27266   0.79405   0.00000  Uiso   1.00
H537   H     0.37273   0.30092   0.80912   0.00000  Uiso   1.00
H538   H     0.62444   0.28057   0.81807   0.00000  Uiso   1.00
H539   H     0.33875   0.28022   0.75339   0.00000  Uiso   1.00
C540   C     0.84870   0.26672   0.75127   0.00000  Uiso   1.00
C541   C     0.80606   0.16797   0.98781   0.00000  Uiso   1.00
C542   C     0.82204   0.18368   0.93672   0.00000  Uiso   1.00
C543   C     0.85258   0.18036   0.51833   0.00000  Uiso   1.00
C544   C     0.91208   0.21174   0.99890   0.00000  Uiso   1.00
C545   C     0.92420   0.23168   0.95076   0.00000  Uiso   1.00
C546   C     0.87946   0.21878   0.92067   0.00000  Uiso   1.00
C547   C     0.84190   0.16260   0.56769   0.00000  Uiso   1.00
C548   C     0.94551   0.20790   0.57821   0.00000  Uiso   1.00
C549   C     0.77976   0.16445   0.90320   0.00000  Uiso   1.00
C550   C     0.85676   0.32300   0.75301   0.00000  Uiso   1.00
C551   C     0.80015   0.16580   0.84713   0.00000  Uiso   1.00
C552   C     0.81331   0.01062   0.74140   0.00000  Uiso   1.00
C553   C     0.81892   0.06667   0.74675   0.00000  Uiso   1.00
C554   C     0.86683   0.17019   0.65318   0.00000  Uiso   1.00
C555   C     0.95831   0.22428   0.52852   0.00000  Uiso   1.00
C556   C     0.88656   0.17834   0.59839   0.00000  Uiso   1.00
C557   C     0.71890   0.13798   0.92308   0.00000  Uiso   1.00
C558   C     0.70103   0.12752   0.97445   0.00000  Uiso   1.00
C559   C     0.74405   0.14117   0.50637   0.00000  Uiso   1.00
Cu560  Cu    0.77377   0.16105   0.74435   0.00000  Uiso   1.00
Cu561  Cu    0.89290   0.17228   0.75564   0.00000  Uiso   1.00
H562   H     0.98058   0.22037   0.60150   0.00000  Uiso   1.00
H563   H     0.77375   0.31981   0.72718   0.00000  Uiso   1.00
H564   H     0.99640   0.12569   0.71064   0.00000  Uiso   1.00
H565   H     0.96838   0.25768   0.93637   0.00000  Uiso   1.00
H566   H     0.67047   0.24809   0.51374   0.00000  Uiso   1.00
H567   H     0.79850   0.13727   0.58388   0.00000  Uiso   1.00
H568   H     0.68541   0.12388   0.89854   0.00000  Uiso   1.00
H569   H     0.72673   0.13123   0.54559   0.00000  Uiso   1.00
H570   H     0.98714   0.10728   0.98941   0.00000  Uiso   1.00
H571   H     0.88988   0.23791   0.88519   0.00000  Uiso   1.00
H572   H     0.89785   0.01390   0.76534   0.00000  Uiso   1.00
N573   N     0.98241   0.18074   0.76416   0.00000  Uiso   1.00
N574   N     0.68426   0.15259   0.73584   0.00000  Uiso   1.00
O575   O     0.79464   0.23807   0.74633   0.00000  Uiso   1.00
O576   O     0.89524   0.24755   0.75586   0.00000  Uiso   1.00
O577   O     0.75848   0.15960   0.81839   0.00000  Uiso   1.00
O578   O     0.85908   0.16908   0.82793   0.00000  Uiso   1.00
O579   O     0.77142   0.08578   0.74413   0.00000  Uiso   1.00
O580   O     0.87203   0.09526   0.75367   0.00000  Uiso   1.00
O581   O     0.80758   0.16425   0.67207   0.00000  Uiso   1.00
O582   O     0.90819   0.17373   0.68160   0.00000  Uiso   1.00
N583   N     0.67229   0.21922   0.79904   0.00000  Uiso   1.00
H584   H     0.70962   0.21739   0.81281   0.00000  Uiso   1.00
C585   C     0.66804   0.27266   0.79405   0.00000  Uiso   1.00
H586   H     0.70607   0.30092   0.80912   0.00000  Uiso   1.00
H587   H     0.95777   0.28057   0.81807   0.00000  Uiso   1.00
H588   H     0.67208   0.28022   0.75339   0.00000  Uiso   1.00
C589   C     0.18204   0.60005   0.75127   0.00000  Uiso   1.00
C590   C     0.13940   0.50130   0.98781   0.00000  Uiso   1.00
C591   C     0.15538   0.51701   0.93672   0.00000  Uiso   1.00
C592   C     0.18592   0.51369   0.51833   0.00000  Uiso   1.00
C593   C     0.24541   0.54507   0.99890   0.00000  Uiso   1.00
C594   C     0.25754   0.56501   0.95076   0.00000  Uiso   1.00
C595   C     0.21280   0.55212   0.92067   0.00000  Uiso   1.00
C596   C     0.17523   0.49594   0.56769   0.00000  Uiso   1.00
C597   C     0.27884   0.54123   0.57821   0.00000  Uiso   1.00
C598   C     0.11309   0.49778   0.90320   0.00000  Uiso   1.00
C599   C     0.19010   0.65633   0.75301   0.00000  Uiso   1.00
C600   C     0.13349   0.49913   0.84713   0.00000  Uiso   1.00
C601   C     0.14664   0.34395   0.74140   0.00000  Uiso   1.00
C602   C     0.15225   0.40001   0.74675   0.00000  Uiso   1.00
C603   C     0.20017   0.50352   0.65318   0.00000  Uiso   1.00
C604   C     0.29165   0.55761   0.52852   0.00000  Uiso   1.00
C605   C     0.21989   0.51167   0.59839   0.00000  Uiso   1.00
C606   C     0.05223   0.47132   0.92308   0.00000  Uiso   1.00
C607   C     0.03436   0.46085   0.97445   0.00000  Uiso   1.00
C608   C     0.07739   0.47451   0.50637   0.00000  Uiso   1.00
Cu609  Cu    0.10710   0.49439   0.74435   0.00000  Uiso   1.00
Cu610  Cu    0.22623   0.50561   0.75564   0.00000  Uiso   1.00
H611   H     0.31392   0.55371   0.60150   0.00000  Uiso   1.00
H612   H     0.10708   0.65315   0.72718   0.00000  Uiso   1.00
H613   H     0.32974   0.45902   0.71064   0.00000  Uiso   1.00
H614   H     0.30172   0.59101   0.93637   0.00000  Uiso   1.00
H615   H     0.00381   0.58143   0.51374   0.00000  Uiso   1.00
H616   H     0.13183   0.47060   0.58388   0.00000  Uiso   1.00
H617   H     0.01874   0.45721   0.89854   0.00000  Uiso   1.00
H618   H     0.06007   0.46456   0.54559   0.00000  Uiso   1.00
H619   H     0.32047   0.44061   0.98941   0.00000  Uiso   1.00
H620   H     0.22321   0.57125   0.88519   0.00000  Uiso   1.00
H621   H     0.23119   0.34723   0.76534   0.00000  Uiso   1.00
N622   N     0.31574   0.51407   0.76416   0.00000  Uiso   1.00
N623   N     0.01759   0.48593   0.73584   0.00000  Uiso   1.00
O624   O     0.12797   0.57141   0.74633   0.00000  Uiso   1.00
O625   O     0.22858   0.58089   0.75586   0.00000  Uiso   1.00
O626   O     0.09181   0.49293   0.81839   0.00000  Uiso   1.00
O627   O     0.19242   0.50241   0.82793   0.00000  Uiso   1.00
O628   O     0.10476   0.41911   0.74413   0.00000  Uiso   1.00
O629   O     0.20536   0.42859   0.75367   0.00000  Uiso   1.00
O630   O     0.14092   0.49759   0.67207   0.00000  Uiso   1.00
O631   O     0.24152   0.50707   0.68160   0.00000  Uiso   1.00
N632   N     0.00562   0.55255   0.79904   0.00000  Uiso   1.00
H633   H     0.04296   0.55073   0.81281   0.00000  Uiso   1.00
C634   C     0.00138   0.60599   0.79405   0.00000  Uiso   1.00
H635   H     0.03940   0.63426   0.80912   0.00000  Uiso   1.00
H636   H     0.29110   0.61390   0.81807   0.00000  Uiso   1.00
H637   H     0.00542   0.61355   0.75339   0.00000  Uiso   1.00
C638   C     0.51537   0.60005   0.75127   0.00000  Uiso   1.00
C639   C     0.47273   0.50130   0.98781   0.00000  Uiso   1.00
C640   C     0.48871   0.51701   0.93672   0.00000  Uiso   1.00
C641   C     0.51925   0.51369   0.51833   0.00000  Uiso   1.00
C642   C     0.57874   0.54507   0.99890   0.00000  Uiso   1.00
C643   C     0.59087   0.56501   0.95076   0.00000  Uiso   1.00
C644   C     0.54613   0.55212   0.92067   0.00000  Uiso   1.00
C645   C     0.50857   0.49594   0.56769   0.00000  Uiso   1.00
C646   C     0.61218   0.54123   0.57821   0.00000  Uiso   1.00
C647   C     0.44642   0.49778   0.90320   0.00000  Uiso   1.00
C648   C     0.52343   0.65633   0.75301   0.00000  Uiso   1.00
C649   C     0.46682   0.49913   0.84713   0.00000  Uiso   1.00
C650   C     0.47998   0.34395   0.74140   0.00000  Uiso   1.00
C651   C     0.48558   0.40001   0.74675   0.00000  Uiso   1.00
C652   C     0.53350   0.50352   0.65318   0.00000  Uiso   1.00
C653   C     0.62498   0.55761   0.52852   0.00000  Uiso   1.00
C654   C     0.55322   0.51167   0.59839   0.00000  Uiso   1.00
C655   C     0.38557   0.47132   0.92308   0.00000  Uiso   1.00
C656   C     0.36769   0.46085   0.97445   0.00000  Uiso   1.00
C657   C     0.41072   0.47451   0.50637   0.00000  Uiso   1.00
Cu658  Cu    0.44043   0.49439   0.74435   0.00000  Uiso   1.00
Cu659  Cu    0.55957   0.50561   0.75564   0.00000  Uiso   1.00
H660   H     0.64725   0.55371   0.60150   0.00000  Uiso   1.00
H661   H     0.44041   0.65315   0.72718   0.00000  Uiso   1.00
H662   H     0.66307   0.45902   0.71064   0.00000  Uiso   1.00
H663   H     0.63505   0.59101   0.93637   0.00000  Uiso   1.00
H664   H     0.33714   0.58143   0.51374   0.00000  Uiso   1.00
H665   H     0.46516   0.47060   0.58388   0.00000  Uiso   1.00
H666   H     0.35207   0.45721   0.89854   0.00000  Uiso   1.00
H667   H     0.39340   0.46456   0.54559   0.00000  Uiso   1.00
H668   H     0.65381   0.44061   0.98941   0.00000  Uiso   1.00
H669   H     0.55655   0.57125   0.88519   0.00000  Uiso   1.00
H670   H     0.56452   0.34723   0.76534   0.00000  Uiso   1.00
N671   N     0.64908   0.51407   0.76416   0.00000  Uiso   1.00
N672   N     0.35092   0.48593   0.73584   0.00000  Uiso   1.00
O673   O     0.46131   0.57141   0.74633   0.00000  Uiso   1.00
O674   O     0.56191   0.58089   0.75586   0.00000  Uiso   1.00
O675   O     0.42515   0.49293   0.81839   0.00000  Uiso   1.00
O676   O     0.52575   0.50241   0.82793   0.00000  Uiso   1.00
O677   O     0.43809   0.41911   0.74413   0.00000  Uiso   1.00
O678   O     0.53869   0.42859   0.75367   0.00000  Uiso   1.00
O679   O     0.47425   0.49759   0.67207   0.00000  Uiso   1.00
O680   O     0.57485   0.50707   0.68160   0.00000  Uiso   1.00
N681   N     0.33895   0.55255   0.79904   0.00000  Uiso   1.00
H682   H     0.37629   0.55073   0.81281   0.00000  Uiso   1.00
C683   C     0.33471   0.60599   0.79405   0.00000  Uiso   1.00
H684   H     0.37273   0.63426   0.80912   0.00000  Uiso   1.00
H685   H     0.62444   0.61390   0.81807   0.00000  Uiso   1.00
H686   H     0.33875   0.61355   0.75339   0.00000  Uiso   1.00
C687   C     0.84870   0.60005   0.75127   0.00000  Uiso   1.00
C688   C     0.80606   0.50130   0.98781   0.00000  Uiso   1.00
C689   C     0.82204   0.51701   0.93672   0.00000  Uiso   1.00
C690   C     0.85258   0.51369   0.51833   0.00000  Uiso   1.00
C691   C     0.91208   0.54507   0.99890   0.00000  Uiso   1.00
C692   C     0.92420   0.56501   0.95076   0.00000  Uiso   1.00
C693   C     0.87946   0.55212   0.92067   0.00000  Uiso   1.00
C694   C     0.84190   0.49594   0.56769   0.00000  Uiso   1.00
C695   C     0.94551   0.54123   0.57821   0.00000  Uiso   1.00
C696   C     0.77976   0.49778   0.90320   0.00000  Uiso   1.00
C697   C     0.85676   0.65633   0.75301   0.00000  Uiso   1.00
C698   C     0.80015   0.49913   0.84713   0.00000  Uiso   1.00
C699   C     0.81331   0.34395   0.74140   0.00000  Uiso   1.00
C700   C     0.81892   0.40001   0.74675   0.00000  Uiso   1.00
C701   C     0.86683   0.50352   0.65318   0.00000  Uiso   1.00
C702   C     0.95831   0.55761   0.52852   0.00000  Uiso   1.00
C703   C     0.88656   0.51167   0.59839   0.00000  Uiso   1.00
C704   C     0.71890   0.47132   0.92308   0.00000  Uiso   1.00
C705   C     0.70103   0.46085   0.97445   0.00000  Uiso   1.00
C706   C     0.74405   0.47451   0.50637   0.00000  Uiso   1.00
Cu707  Cu    0.77377   0.49439   0.74435   0.00000  Uiso   1.00
Cu708  Cu    0.89290   0.50561   0.75564   0.00000  Uiso   1.00
H709   H     0.98058   0.55371   0.60150   0.00000  Uiso   1.00
H710   H     0.77375   0.65315   0.72718   0.00000  Uiso   1.00
H711   H     0.99640   0.45902   0.71064   0.00000  Uiso   1.00
H712   H     0.96838   0.59101   0.93637   0.00000  Uiso   1.00
H713   H     0.67047   0.58143   0.51374   0.00000  Uiso   1.00
H714   H     0.79850   0.47060   0.58388   0.00000  Uiso   1.00
H715   H     0.68541   0.45721   0.89854   0.00000  Uiso   1.00
H716   H     0.72673   0.46456   0.54559   0.00000  Uiso   1.00
H717   H     0.98714   0.44061   0.98941   0.00000  Uiso   1.00
H718   H     0.88988   0.57125   0.88519   0.00000  Uiso   1.00
H719   H     0.89785   0.34723   0.76534   0.00000  Uiso   1.00
N720   N     0.98241   0.51407   0.76416   0.00000  Uiso   1.00
N721   N     0.68426   0.48593   0.73584   0.00000  Uiso   1.00
O722   O     0.79464   0.57141   0.74633   0.00000  Uiso   1.00
O723   O     0.89524   0.58089   0.75586   0.00000  Uiso   1.00
O724   O     0.75848   0.49293   0.81839   0.00000  Uiso   1.00
O725   O     0.85908   0.50241   0.82793   0.00000  Uiso   1.00
O726   O     0.77142   0.41911   0.74413   0.00000  Uiso   1.00
O727   O     0.87203   0.42859   0.75367   0.00000  Uiso   1.00
O728   O     0.80758   0.49759   0.67207   0.00000  Uiso   1.00
O729   O     0.90819   0.50707   0.68160   0.00000  Uiso   1.00
N730   N     0.67229   0.55255   0.79904   0.00000  Uiso   1.00
H731   H     0.70962   0.55073   0.81281   0.00000  Uiso   1.00
C732   C     0.66804   0.60599   0.79405   0.00000  Uiso   1.00
H733   H     0.70607   0.63426   0.80912   0.00000  Uiso   1.00
H734   H     0.95777   0.61390   0.81807   0.00000  Uiso   1.00
H735   H     0.67208   0.61355   0.75339   0.00000  Uiso   1.00
C736   C     0.18204   0.93338   0.75127   0.00000  Uiso   1.00
C737   C     0.13940   0.83464   0.98781   0.00000  Uiso   1.00
C738   C     0.15538   0.85035   0.93672   0.00000  Uiso   1.00
C739   C     0.18592   0.84702   0.51833   0.00000  Uiso   1.00
C740   C     0.24541   0.87841   0.99890   0.00000  Uiso   1.00
C741   C     0.25754   0.89834   0.95076   0.00000  Uiso   1.00
C742   C     0.21280   0.88545   0.92067   0.00000  Uiso   1.00
C743   C     0.17523   0.82927   0.56769   0.00000  Uiso   1.00
C744   C     0.27884   0.87457   0.57821   0.00000  Uiso   1.00
C745   C     0.11309   0.83112   0.90320   0.00000  Uiso   1.00
C746   C     0.19010   0.98967   0.75301   0.00000  Uiso   1.00
C747   C     0.13349   0.83247   0.84713   0.00000  Uiso   1.00
C748   C     0.14664   0.67728   0.74140   0.00000  Uiso   1.00
C749   C     0.15225   0.73334   0.74675   0.00000  Uiso   1.00
C750   C     0.20017   0.83686   0.65318   0.00000  Uiso   1.00
C751   C     0.29165   0.89095   0.52852   0.00000  Uiso   1.00
C752   C     0.21989   0.84501   0.59839   0.00000  Uiso   1.00
C753   C     0.05223   0.80465   0.92308   0.00000  Uiso   1.00
C754   C     0.03436   0.79419   0.97445   0.00000  Uiso   1.00
C755   C     0.07739   0.80784   0.50637   0.00000  Uiso   1.00
Cu756  Cu    0.10710   0.82772   0.74435   0.00000  Uiso   1.00
Cu757  Cu    0.22623   0.83895   0.75564   0.00000  Uiso   1.00
H758   H     0.31392   0.88704   0.60150   0.00000  Uiso   1.00
H759   H     0.10708   0.98648   0.72718   0.00000  Uiso   1.00
H760   H     0.32974   0.79235   0.71064   0.00000  Uiso   1.00
H761   H     0.30172   0.92435   0.93637   0.00000  Uiso   1.00
H762   H     0.00381   0.91476   0.51374   0.00000  Uiso   1.00
H763   H     0.13183   0.80393   0.58388   0.00000  Uiso   1.00
H764   H     0.01874   0.79054   0.89854   0.00000  Uiso   1.00
H765   H     0.06007   0.79789   0.54559   0.00000  Uiso   1.00
H766   H     0.32047   0.77394   0.98941   0.00000  Uiso   1.00
H767   H     0.22321   0.90458   0.88519   0.00000  Uiso   1.00
H768   H     0.23119   0.68057   0.76534   0.00000  Uiso   1.00
N769   N     0.31574   0.84741   0.76416   0.00000  Uiso   1.00
N770   N     0.01759   0.81926   0.73584   0.00000  Uiso   1.00
O771   O     0.12797   0.90474   0.74633   0.00000  Uiso   1.00
O772   O     0.22858   0.91422   0.75586   0.00000  Uiso   1.00
O773   O     0.09181   0.82627   0.81839   0.00000  Uiso   1.00
O774   O     0.19242   0.83575   0.82793   0.00000  Uiso   1.00
O775   O     0.10476   0.75245   0.74413   0.00000  Uiso   1.00
O776   O     0.20536   0.76193   0.75367   0.00000  Uiso   1.00
O777   O     0.14092   0.83092   0.67207   0.00000  Uiso   1.00
O778   O     0.24152   0.84040   0.68160   0.00000  Uiso   1.00
N779   N     0.00562   0.88588   0.79904   0.00000  Uiso   1.00
H780   H     0.04296   0.88406   0.81281   0.00000  Uiso   1.00
C781   C     0.00138   0.93932   0.79405   0.00000  Uiso   1.00
H782   H     0.03940   0.96759   0.80912   0.00000  Uiso   1.00
H783   H     0.29110   0.94724   0.81807   0.00000  Uiso   1.00
H784   H     0.00542   0.94689   0.75339   0.00000  Uiso   1.00
C785   C     0.51537   0.93338   0.75127   0.00000  Uiso   1.00
C786   C     0.47273   0.83464   0.98781   0.00000  Uiso   1.00
C787   C     0.48871   0.85035   0.93672   0.00000  Uiso   1.00
C788   C     0.51925   0.84702   0.51833   0.00000  Uiso   1.00
C789   C     0.57874   0.87841   0.99890   0.00000  Uiso   1.00
C790   C     0.59087   0.89834   0.95076   0.00000  Uiso   1.00
C791   C     0.54613   0.88545   0.92067   0.00000  Uiso   1.00
C792   C     0.50857   0.82927   0.56769   0.00000  Uiso   1.00
C793   C     0.61218   0.87457   0.57821   0.00000  Uiso   1.00
C794   C     0.44642   0.83112   0.90320   0.00000  Uiso   1.00
C795   C     0.52343   0.98967   0.75301   0.00000  Uiso   1.00
C796   C     0.46682   0.83247   0.84713   0.00000  Uiso   1.00
C797   C     0.47998   0.67728   0.74140   0.00000  Uiso   1.00
C798   C     0.48558   0.73334   0.74675   0.00000  Uiso   1.00
C799   C     0.53350   0.83686   0.65318   0.00000  Uiso   1.00
C800   C     0.62498   0.89095   0.52852   0.00000  Uiso   1.00
C801   C     0.55322   0.84501   0.59839   0.00000  Uiso   1.00
C802   C     0.38557   0.80465   0.92308   0.00000  Uiso   1.00
C803   C     0.36769   0.79419   0.97445   0.00000  Uiso   1.00
C804   C     0.41072   0.80784   0.50637   0.00000  Uiso   1.00
Cu805  Cu    0.44043   0.82772   0.74435   0.00000  Uiso   1.00
Cu806  Cu    0.55957   0.83895   0.75564   0.00000  Uiso   1.00
H807   H     0.64725   0.88704   0.60150   0.00000  Uiso   1.00
H808   H     0.44041   0.98648   0.72718   0.00000  Uiso   1.00
H809   H     0.66307   0.79235   0.71064   0.00000  Uiso   1.00
H810   H     0.63505   0.92435   0.93637   0.00000  Uiso   1.00
H811   H     0.33714   0.91476   0.51374   0.00000  Uiso   1.00
H812   H     0.46516   0.80393   0.58388   0.00000  Uiso   1.00
H813   H     0.35207   0.79054   0.89854   0.00000  Uiso   1.00
H814   H     0.39340   0.79789   0.54559   0.00000  Uiso   1.00
H815   H     0.65381   0.77394   0.98941   0.00000  Uiso   1.00
H816   H     0.55655   0.90458   0.88519   0.00000  Uiso   1.00
H817   H     0.56452   0.68057   0.76534   0.00000  Uiso   1.00
N818   N     0.64908   0.84741   0.76416   0.00000  Uiso   1.00
N819   N     0.35092   0.81926   0.73584   0.00000  Uiso   1.00
O820   O     0.46131   0.90474   0.74633   0.00000  Uiso   1.00
O821   O     0.56191   0.91422   0.75586   0.00000  Uiso   1.00
O822   O     0.42515   0.82627   0.81839   0.00000  Uiso   1.00
O823   O     0.52575   0.83575   0.82793   0.00000  Uiso   1.00
O824   O     0.43809   0.75245   0.74413   0.00000  Uiso   1.00
O825   O     0.53869   0.76193   0.75367   0.00000  Uiso   1.00
O826   O     0.47425   0.83092   0.67207   0.00000  Uiso   1.00
O827   O     0.57485   0.84040   0.68160   0.00000  Uiso   1.00
N828   N     0.33895   0.88588   0.79904   0.00000  Uiso   1.00
H829   H     0.37629   0.88406   0.81281   0.00000  Uiso   1.00
C830   C     0.33471   0.93932   0.79405   0.00000  Uiso   1.00
H831   H     0.37273   0.96759   0.80912   0.00000  Uiso   1.00
H832   H     0.62444   0.94724   0.81807   0.00000  Uiso   1.00
H833   H     0.33875   0.94689   0.75339   0.00000  Uiso   1.00
C834   C     0.84870   0.93338   0.75127   0.00000  Uiso   1.00
C835   C     0.80606   0.83464   0.98781   0.00000  Uiso   1.00
C836   C     0.82204   0.85035   0.93672   0.00000  Uiso   1.00
C837   C     0.85258   0.84702   0.51833   0.00000  Uiso   1.00
C838   C     0.91208   0.87841   0.99890   0.00000  Uiso   1.00
C839   C     0.92420   0.89834   0.95076   0.00000  Uiso   1.00
C840   C     0.87946   0.88545   0.92067   0.00000  Uiso   1.00
C841   C     0.84190   0.82927   0.56769   0.00000  Uiso   1.00
C842   C     0.94551   0.87457   0.57821   0.00000  Uiso   1.00
C843   C     0.77976   0.83112   0.90320   0.00000  Uiso   1.00
C844   C     0.85676   0.98967   0.75301   0.00000  Uiso   1.00
C845   C     0.80015   0.83247   0.84713   0.00000  Uiso   1.00
C846   C     0.81331   0.67728   0.74140   0.00000  Uiso   1.00
C847   C     0.81892   0.73334   0.74675   0.00000  Uiso   1.00
C848   C     0.86683   0.83686   0.65318   0.00000  Uiso   1.00
C849   C     0.95831   0.89095   0.52852   0.00000  Uiso   1.00
C850   C     0.88656   0.84501   0.59839   0.00000  Uiso   1.00
C851   C     0.71890   0.80465   0.92308   0.00000  Uiso   1.00
C852   C     0.70103   0.79419   0.97445   0.00000  Uiso   1.00
C853   C     0.74405   0.80784   0.50637   0.00000  Uiso   1.00
Cu854  Cu    0.77377   0.82772   0.74435   0.00000  Uiso   1.00
Cu855  Cu    0.89290   0.83895   0.75564   0.00000  Uiso   1.00
H856   H     0.98058   0.88704   0.60150   0.00000  Uiso   1.00
H857   H     0.77375   0.98648   0.72718   0.00000  Uiso   1.00
H858   H     0.99640   0.79235   0.71064   0.00000  Uiso   1.00
H859   H     0.96838   0.92435   0.93637   0.00000  Uiso   1.00
H860   H     0.67047   0.91476   0.51374   0.00000  Uiso   1.00
H861   H     0.79850   0.80393   0.58388   0.00000  Uiso   1.00
H862   H     0.68541   0.79054   0.89854   0.00000  Uiso   1.00
H863   H     0.72673   0.79789   0.54559   0.00000  Uiso   1.00
H864   H     0.98714   0.77394   0.98941   0.00000  Uiso   1.00
H865   H     0.88988   0.90458   0.88519   0.00000  Uiso   1.00
H866   H     0.89785   0.68057   0.76534   0.00000  Uiso   1.00
N867   N     0.98241   0.84741   0.76416   0.00000  Uiso   1.00
N868   N     0.68426   0.81926   0.73584   0.00000  Uiso   1.00
O869   O     0.79464   0.90474   0.74633   0.00000  Uiso   1.00
O870   O     0.89524   0.91422   0.75586   0.00000  Uiso   1.00
O871   O     0.75848   0.82627   0.81839   0.00000  Uiso   1.00
O872   O     0.85908   0.83575   0.82793   0.00000  Uiso   1.00
O873   O     0.77142   0.75245   0.74413   0.00000  Uiso   1.00
O874   O     0.87203   0.76193   0.75367   0.00000  Uiso   1.00
O875   O     0.80758   0.83092   0.67207   0.00000  Uiso   1.00
O876   O     0.90819   0.84040   0.68160   0.00000  Uiso   1.00
N877   N     0.67229   0.88588   0.79904   0.00000  Uiso   1.00
H878   H     0.70962   0.88406   0.81281   0.00000  Uiso   1.00
C879   C     0.66804   0.93932   0.79405   0.00000  Uiso   1.00
H880   H     0.70607   0.96759   0.80912   0.00000  Uiso   1.00
H881   H     0.95777   0.94724   0.81807   0.00000  Uiso   1.00
H882   H     0.67208   0.94689   0.75339   0.00000  Uiso   1.00
loop_
_geom_bond_atom_site_label_1
_geom_bond_atom_site_label_2
_geom_bond_distance
_geom_bond_site_symmetry_2
_ccdc_geom_bond_type
C1     C11     1.434   .     S
C1     O37     1.300   .     A
C1     O36     1.299   .     A
C2     C3      1.419   .     A
C2     C445    1.426   .     S
C2     C461    1.418   .     S
C3     C7      1.410   .     A
C3     C10     1.422   .     A
C4     C8      1.402   .     A
C4     C443    1.426   1_554 S
C4     C446    1.421   1_554 S
C5     C6      1.391   .     A
C5     C445    1.421   .     S
C5     C457    1.404   .     S
C6     C7      1.386   .     A
C6     H26     1.084   .     S
C7     H32     1.077   .     S
C8     C17     1.399   .     A
C8     H28     1.076   .     S
C9     C17     1.398   .     A
C9     C16     1.393   .     A
C9     H23     1.083   .     S
C10    C12     1.477   .     S
C10    C18     1.402   .     A
C11    C160    1.335   .     S
C11    H180    1.087   .     S
C12    O39     1.306   .     A
C12    O38     1.312   .     A
C13    C14     1.433   .     S
C13    C305    1.335   1_545 S
C13    H318    1.082   1_545 S
C14    O41     1.294   .     A
C14    O40     1.304   .     A
C15    O42     1.304   .     A
C15    O43     1.310   .     A
C15    C17     1.464   .     S
C16    C446    1.404   1_554 S
C16    H76     1.084   .     S
C18    H29     1.083   .     S
C18    C19     1.387   .     A
C19    C461    1.392   .     S
C19    H129    1.083   1_455 S
C20    H30     1.077   .     S
C20    C460    1.392   1_554 S
C20    C443    1.418   1_554 S
Cu21   N35     2.042   .     S
Cu21   O40     1.952   .     S
Cu21   O42     1.928   .     S
Cu21   O36     1.951   .     S
Cu21   Cu22    2.718   .     S
Cu21   O38     1.944   .     S
Cu22   N34     2.042   .     S
Cu22   O39     1.928   .     S
Cu22   O41     1.951   .     S
Cu22   O37     1.952   .     S
Cu22   O43     1.944   .     S
H24    C160    1.082   .     S
H25    N84     1.029   .     S
H27    C114    1.084   1_455 S
H31    C68     1.083   .     S
H33    C305    1.087   1_545 S
N34    N84     1.283   .     S
N34    N93     1.387   .     S
N35    N132    1.283   1_455 S
N35    H123    1.029   1_455 S
N44    H45     1.004   .     S
N44    C46     1.443   .     S
N44    N132    1.387   1_455 S
C46    H49     1.110   .     S
C46    H47     1.110   .     S
C46    H146    1.106   1_455 S
H48    C95     1.106   .     S
C50    C60     1.434   .     S
C50    O86     1.300   .     A
C50    O85     1.299   .     A
C51    C52     1.419   .     A
C51    C494    1.426   .     S
C51    C510    1.418   .     S
C52    C56     1.410   .     A
C52    C59     1.422   .     A
C53    C57     1.402   .     A
C53    C492    1.426   1_554 S
C53    C495    1.421   1_554 S
C54    C55     1.391   .     A
C54    C494    1.421   .     S
C54    C506    1.404   .     S
C55    C56     1.386   .     A
C55    H75     1.084   .     S
C56    H81     1.077   .     S
C57    C66     1.399   .     A
C57    H77     1.076   .     S
C58    C66     1.398   .     A
C58    C65     1.393   .     A
C58    H72     1.083   .     S
C59    C61     1.477   .     S
C59    C67     1.402   .     A
C60    C209    1.335   .     S
C60    H229    1.087   .     S
C61    O88     1.306   .     A
C61    O87     1.312   .     A
C62    C63     1.433   .     S
C62    C354    1.335   1_545 S
C62    H367    1.082   1_545 S
C63    O90     1.294   .     A
C63    O89     1.304   .     A
C64    O91     1.304   .     A
C64    O92     1.310   .     A
C64    C66     1.464   .     S
C65    C495    1.404   1_554 S
C65    H125    1.084   .     S
C67    H78     1.083   .     S
C67    C68     1.387   .     A
C68    C510    1.392   .     S
C69    H79     1.077   .     S
C69    C509    1.392   1_554 S
C69    C492    1.418   1_554 S
Cu70   N84     2.042   .     S
Cu70   O89     1.952   .     S
Cu70   O91     1.928   .     S
Cu70   O85     1.951   .     S
Cu70   Cu71    2.718   .     S
Cu70   O87     1.944   .     S
Cu71   N83     2.042   .     S
Cu71   O88     1.928   .     S
Cu71   O90     1.951   .     S
Cu71   O86     1.952   .     S
Cu71   O92     1.944   .     S
H73    C209    1.082   .     S
H74    N133    1.029   .     S
H80    C117    1.083   .     S
H82    C354    1.087   1_545 S
N83    N133    1.283   .     S
N83    N142    1.387   .     S
N93    H94     1.004   .     S
N93    C95     1.443   .     S
C95    H98     1.110   .     S
C95    H96     1.110   .     S
H97    C144    1.106   .     S
C99    C109    1.434   .     S
C99    O135    1.300   .     A
C99    O134    1.299   .     A
C100   C101    1.419   .     A
C100   C543    1.426   .     S
C100   C559    1.418   .     S
C101   C105    1.410   .     A
C101   C108    1.422   .     A
C102   C106    1.402   .     A
C102   C541    1.426   1_554 S
C102   C544    1.421   1_554 S
C103   C104    1.391   .     A
C103   C543    1.421   .     S
C103   C555    1.404   .     S
C104   C105    1.386   .     A
C104   H124    1.084   .     S
C105   H130    1.077   .     S
C106   C115    1.399   .     A
C106   H126    1.076   .     S
C107   C115    1.398   .     A
C107   C114    1.393   .     A
C107   H121    1.083   .     S
C108   C110    1.477   .     S
C108   C116    1.402   .     A
C109   C258    1.335   .     S
C109   H278    1.087   .     S
C110   O137    1.306   .     A
C110   O136    1.312   .     A
C111   C112    1.433   .     S
C111   C403    1.335   1_545 S
C111   H416    1.082   1_545 S
C112   O139    1.294   .     A
C112   O138    1.304   .     A
C113   O140    1.304   .     A
C113   O141    1.310   .     A
C113   C115    1.464   .     S
C114   C544    1.404   1_554 S
C114   H27     1.084   1_655 S
C116   H127    1.083   .     S
C116   C117    1.387   .     A
C117   C559    1.392   .     S
C118   H128    1.077   .     S
C118   C558    1.392   1_554 S
C118   C541    1.418   1_554 S
Cu119  N133    2.042   .     S
Cu119  O138    1.952   .     S
Cu119  O140    1.928   .     S
Cu119  O134    1.951   .     S
Cu119  Cu120   2.718   .     S
Cu119  O136    1.944   .     S
Cu120  N132    2.042   .     S
Cu120  O137    1.928   .     S
Cu120  O139    1.951   .     S
Cu120  O135    1.952   .     S
Cu120  O141    1.944   .     S
H122   C258    1.082   .     S
H123   N35     1.029   1_655 S
H129   C19     1.083   1_655 S
H131   C403    1.087   1_545 S
N132   N35     1.283   1_655 S
N132   N44     1.387   1_655 S
N142   H143    1.004   .     S
N142   C144    1.443   .     S
C144   H147    1.110   .     S
C144   H145    1.110   .     S
H146   C46     1.106   1_655 S
C148   C158    1.434   .     S
C148   O184    1.300   .     A
C148   O183    1.299   .     A
C149   C150    1.419   .     A
C149   C592    1.426   .     S
C149   C608    1.418   .     S
C150   C154    1.410   .     A
C150   C157    1.422   .     A
C151   C155    1.402   .     A
C151   C590    1.426   1_554 S
C151   C593    1.421   1_554 S
C152   C153    1.391   .     A
C152   C592    1.421   .     S
C152   C604    1.404   .     S
C153   C154    1.386   .     A
C153   H173    1.084   .     S
C154   H179    1.077   .     S
C155   C164    1.399   .     A
C155   H175    1.076   .     S
C156   C164    1.398   .     A
C156   C163    1.393   .     A
C156   H170    1.083   .     S
C157   C159    1.477   .     S
C157   C165    1.402   .     A
C158   C307    1.335   .     S
C158   H327    1.087   .     S
C159   O186    1.306   .     A
C159   O185    1.312   .     A
C160   C161    1.433   .     S
C161   O188    1.294   .     A
C161   O187    1.304   .     A
C162   O189    1.304   .     A
C162   O190    1.310   .     A
C162   C164    1.464   .     S
C163   C593    1.404   1_554 S
C163   H223    1.084   .     S
C165   H176    1.083   .     S
C165   C166    1.387   .     A
C166   C608    1.392   .     S
C166   H276    1.083   1_455 S
C167   H177    1.077   .     S
C167   C607    1.392   1_554 S
C167   C590    1.418   1_554 S
Cu168  N182    2.042   .     S
Cu168  O187    1.952   .     S
Cu168  O189    1.928   .     S
Cu168  O183    1.951   .     S
Cu168  Cu169   2.718   .     S
Cu168  O185    1.944   .     S
Cu169  N181    2.042   .     S
Cu169  O186    1.928   .     S
Cu169  O188    1.951   .     S
Cu169  O184    1.952   .     S
Cu169  O190    1.944   .     S
H171   C307    1.082   .     S
H172   N231    1.029   .     S
H174   C261    1.084   1_455 S
H178   C215    1.083   .     S
N181   N231    1.283   .     S
N181   N240    1.387   .     S
N182   N279    1.283   1_455 S
N182   H270    1.029   1_455 S
N191   H192    1.004   .     S
N191   C193    1.443   .     S
N191   N279    1.387   1_455 S
C193   H196    1.110   .     S
C193   H194    1.110   .     S
C193   H293    1.106   1_455 S
H195   C242    1.106   .     S
C197   C207    1.434   .     S
C197   O233    1.300   .     A
C197   O232    1.299   .     A
C198   C199    1.419   .     A
C198   C641    1.426   .     S
C198   C657    1.418   .     S
C199   C203    1.410   .     A
C199   C206    1.422   .     A
C200   C204    1.402   .     A
C200   C639    1.426   1_554 S
C200   C642    1.421   1_554 S
C201   C202    1.391   .     A
C201   C641    1.421   .     S
C201   C653    1.404   .     S
C202   C203    1.386   .     A
C202   H222    1.084   .     S
C203   H228    1.077   .     S
C204   C213    1.399   .     A
C204   H224    1.076   .     S
C205   C213    1.398   .     A
C205   C212    1.393   .     A
C205   H219    1.083   .     S
C206   C208    1.477   .     S
C206   C214    1.402   .     A
C207   C356    1.335   .     S
C207   H376    1.087   .     S
C208   O235    1.306   .     A
C208   O234    1.312   .     A
C209   C210    1.433   .     S
C210   O237    1.294   .     A
C210   O236    1.304   .     A
C211   O238    1.304   .     A
C211   O239    1.310   .     A
C211   C213    1.464   .     S
C212   C642    1.404   1_554 S
C212   H272    1.084   .     S
C214   H225    1.083   .     S
C214   C215    1.387   .     A
C215   C657    1.392   .     S
C216   H226    1.077   .     S
C216   C656    1.392   1_554 S
C216   C639    1.418   1_554 S
Cu217  N231    2.042   .     S
Cu217  O236    1.952   .     S
Cu217  O238    1.928   .     S
Cu217  O232    1.951   .     S
Cu217  Cu218   2.718   .     S
Cu217  O234    1.944   .     S
Cu218  N230    2.042   .     S
Cu218  O235    1.928   .     S
Cu218  O237    1.951   .     S
Cu218  O233    1.952   .     S
Cu218  O239    1.944   .     S
H220   C356    1.082   .     S
H221   N280    1.029   .     S
H227   C264    1.083   .     S
N230   N280    1.283   .     S
N230   N289    1.387   .     S
N240   H241    1.004   .     S
N240   C242    1.443   .     S
C242   H245    1.110   .     S
C242   H243    1.110   .     S
H244   C291    1.106   .     S
C246   C256    1.434   .     S
C246   O282    1.300   .     A
C246   O281    1.299   .     A
C247   C248    1.419   .     A
C247   C690    1.426   .     S
C247   C706    1.418   .     S
C248   C252    1.410   .     A
C248   C255    1.422   .     A
C249   C253    1.402   .     A
C249   C688    1.426   1_554 S
C249   C691    1.421   1_554 S
C250   C251    1.391   .     A
C250   C690    1.421   .     S
C250   C702    1.404   .     S
C251   C252    1.386   .     A
C251   H271    1.084   .     S
C252   H277    1.077   .     S
C253   C262    1.399   .     A
C253   H273    1.076   .     S
C254   C262    1.398   .     A
C254   C261    1.393   .     A
C254   H268    1.083   .     S
C255   C257    1.477   .     S
C255   C263    1.402   .     A
C256   C405    1.335   .     S
C256   H425    1.087   .     S
C257   O284    1.306   .     A
C257   O283    1.312   .     A
C258   C259    1.433   .     S
C259   O286    1.294   .     A
C259   O285    1.304   .     A
C260   O287    1.304   .     A
C260   O288    1.310   .     A
C260   C262    1.464   .     S
C261   C691    1.404   1_554 S
C261   H174    1.084   1_655 S
C263   H274    1.083   .     S
C263   C264    1.387   .     A
C264   C706    1.392   .     S
C265   H275    1.077   .     S
C265   C705    1.392   1_554 S
C265   C688    1.418   1_554 S
Cu266  N280    2.042   .     S
Cu266  O285    1.952   .     S
Cu266  O287    1.928   .     S
Cu266  O281    1.951   .     S
Cu266  Cu267   2.718   .     S
Cu266  O283    1.944   .     S
Cu267  N279    2.042   .     S
Cu267  O284    1.928   .     S
Cu267  O286    1.951   .     S
Cu267  O282    1.952   .     S
Cu267  O288    1.944   .     S
H269   C405    1.082   .     S
H270   N182    1.029   1_655 S
H276   C166    1.083   1_655 S
N279   N182    1.283   1_655 S
N279   N191    1.387   1_655 S
N289   H290    1.004   .     S
N289   C291    1.443   .     S
C291   H294    1.110   .     S
C291   H292    1.110   .     S
H293   C193    1.106   1_655 S
C295   C305    1.434   .     S
C295   O331    1.300   .     A
C295   O330    1.299   .     A
C296   C297    1.419   .     A
C296   C739    1.426   .     S
C296   C755    1.418   .     S
C297   C301    1.410   .     A
C297   C304    1.422   .     A
C298   C302    1.402   .     A
C298   C737    1.426   1_554 S
C298   C740    1.421   1_554 S
C299   C300    1.391   .     A
C299   C739    1.421   .     S
C299   C751    1.404   .     S
C300   C301    1.386   .     A
C300   H320    1.084   .     S
C301   H326    1.077   .     S
C302   C311    1.399   .     A
C302   H322    1.076   .     S
C303   C311    1.398   .     A
C303   C310    1.393   .     A
C303   H317    1.083   .     S
C304   C306    1.477   .     S
C304   C312    1.402   .     A
C305   C13     1.335   1_565 S
C305   H33     1.087   1_565 S
C306   O333    1.306   .     A
C306   O332    1.312   .     A
C307   C308    1.433   .     S
C308   O335    1.294   .     A
C308   O334    1.304   .     A
C309   O336    1.304   .     A
C309   O337    1.310   .     A
C309   C311    1.464   .     S
C310   C740    1.404   1_554 S
C310   H370    1.084   .     S
C312   H323    1.083   .     S
C312   C313    1.387   .     A
C313   C755    1.392   .     S
C313   H423    1.083   1_455 S
C314   H324    1.077   .     S
C314   C754    1.392   1_554 S
C314   C737    1.418   1_554 S
Cu315  N329    2.042   .     S
Cu315  O334    1.952   .     S
Cu315  O336    1.928   .     S
Cu315  O330    1.951   .     S
Cu315  Cu316   2.718   .     S
Cu315  O332    1.944   .     S
Cu316  N328    2.042   .     S
Cu316  O333    1.928   .     S
Cu316  O335    1.951   .     S
Cu316  O331    1.952   .     S
Cu316  O337    1.944   .     S
H318   C13     1.082   1_565 S
H319   N378    1.029   .     S
H321   C408    1.084   1_455 S
H325   C362    1.083   .     S
N328   N378    1.283   .     S
N328   N387    1.387   .     S
N329   N426    1.283   1_455 S
N329   H417    1.029   1_455 S
N338   H339    1.004   .     S
N338   C340    1.443   .     S
N338   N426    1.387   1_455 S
C340   H343    1.110   .     S
C340   H341    1.110   .     S
C340   H440    1.106   1_455 S
H342   C389    1.106   .     S
C344   C354    1.434   .     S
C344   O380    1.300   .     A
C344   O379    1.299   .     A
C345   C346    1.419   .     A
C345   C788    1.426   .     S
C345   C804    1.418   .     S
C346   C350    1.410   .     A
C346   C353    1.422   .     A
C347   C351    1.402   .     A
C347   C786    1.426   1_554 S
C347   C789    1.421   1_554 S
C348   C349    1.391   .     A
C348   C788    1.421   .     S
C348   C800    1.404   .     S
C349   C350    1.386   .     A
C349   H369    1.084   .     S
C350   H375    1.077   .     S
C351   C360    1.399   .     A
C351   H371    1.076   .     S
C352   C360    1.398   .     A
C352   C359    1.393   .     A
C352   H366    1.083   .     S
C353   C355    1.477   .     S
C353   C361    1.402   .     A
C354   C62     1.335   1_565 S
C354   H82     1.087   1_565 S
C355   O382    1.306   .     A
C355   O381    1.312   .     A
C356   C357    1.433   .     S
C357   O384    1.294   .     A
C357   O383    1.304   .     A
C358   O385    1.304   .     A
C358   O386    1.310   .     A
C358   C360    1.464   .     S
C359   C789    1.404   1_554 S
C359   H419    1.084   .     S
C361   H372    1.083   .     S
C361   C362    1.387   .     A
C362   C804    1.392   .     S
C363   H373    1.077   .     S
C363   C803    1.392   1_554 S
C363   C786    1.418   1_554 S
Cu364  N378    2.042   .     S
Cu364  O383    1.952   .     S
Cu364  O385    1.928   .     S
Cu364  O379    1.951   .     S
Cu364  Cu365   2.718   .     S
Cu364  O381    1.944   .     S
Cu365  N377    2.042   .     S
Cu365  O382    1.928   .     S
Cu365  O384    1.951   .     S
Cu365  O380    1.952   .     S
Cu365  O386    1.944   .     S
H367   C62     1.082   1_565 S
H368   N427    1.029   .     S
H374   C411    1.083   .     S
N377   N427    1.283   .     S
N377   N436    1.387   .     S
N387   H388    1.004   .     S
N387   C389    1.443   .     S
C389   H392    1.110   .     S
C389   H390    1.110   .     S
H391   C438    1.106   .     S
C393   C403    1.434   .     S
C393   O429    1.300   .     A
C393   O428    1.299   .     A
C394   C395    1.419   .     A
C394   C837    1.426   .     S
C394   C853    1.418   .     S
C395   C399    1.410   .     A
C395   C402    1.422   .     A
C396   C400    1.402   .     A
C396   C835    1.426   1_554 S
C396   C838    1.421   1_554 S
C397   C398    1.391   .     A
C397   C837    1.421   .     S
C397   C849    1.404   .     S
C398   C399    1.386   .     A
C398   H418    1.084   .     S
C399   H424    1.077   .     S
C400   C409    1.399   .     A
C400   H420    1.076   .     S
C401   C409    1.398   .     A
C401   C408    1.393   .     A
C401   H415    1.083   .     S
C402   C404    1.477   .     S
C402   C410    1.402   .     A
C403   C111    1.335   1_565 S
C403   H131    1.087   1_565 S
C404   O431    1.306   .     A
C404   O430    1.312   .     A
C405   C406    1.433   .     S
C406   O433    1.294   .     A
C406   O432    1.304   .     A
C407   O434    1.304   .     A
C407   O435    1.310   .     A
C407   C409    1.464   .     S
C408   C838    1.404   1_554 S
C408   H321    1.084   1_655 S
C410   H421    1.083   .     S
C410   C411    1.387   .     A
C411   C853    1.392   .     S
C412   H422    1.077   .     S
C412   C852    1.392   1_554 S
C412   C835    1.418   1_554 S
Cu413  N427    2.042   .     S
Cu413  O432    1.952   .     S
Cu413  O434    1.928   .     S
Cu413  O428    1.951   .     S
Cu413  Cu414   2.718   .     S
Cu413  O430    1.944   .     S
Cu414  N426    2.042   .     S
Cu414  O431    1.928   .     S
Cu414  O433    1.951   .     S
Cu414  O429    1.952   .     S
Cu414  O435    1.944   .     S
H416   C111    1.082   1_565 S
H417   N329    1.029   1_655 S
H423   C313    1.083   1_655 S
N426   N329    1.283   1_655 S
N426   N338    1.387   1_655 S
N436   H437    1.004   .     S
N436   C438    1.443   .     S
C438   H441    1.110   .     S
C438   H439    1.110   .     S
H440   C340    1.106   1_655 S
C442   C452    1.434   .     S
C442   O478    1.300   .     A
C442   O477    1.299   .     A
C443   C444    1.419   .     A
C443   C4      1.426   1_556 S
C443   C20     1.418   1_556 S
C444   C448    1.410   .     A
C444   C451    1.422   .     A
C445   C449    1.402   .     A
C446   C447    1.391   .     A
C446   C4      1.421   1_556 S
C446   C16     1.404   1_556 S
C447   C448    1.386   .     A
C447   H467    1.084   .     S
C448   H473    1.077   .     S
C449   C458    1.399   .     A
C449   H469    1.076   .     S
C450   C458    1.398   .     A
C450   C457    1.393   .     A
C450   H464    1.083   .     S
C451   C453    1.477   .     S
C451   C459    1.402   .     A
C452   C601    1.335   .     S
C452   H621    1.087   .     S
C453   O480    1.306   .     A
C453   O479    1.312   .     A
C454   C455    1.433   .     S
C454   C746    1.335   1_545 S
C454   H759    1.082   1_545 S
C455   O482    1.294   .     A
C455   O481    1.304   .     A
C456   O483    1.304   .     A
C456   O484    1.310   .     A
C456   C458    1.464   .     S
C457   H517    1.084   .     S
C459   H470    1.083   .     S
C459   C460    1.387   .     A
C460   C20     1.392   1_556 S
C460   H570    1.083   1_455 S
C461   H471    1.077   .     S
Cu462  N476    2.042   .     S
Cu462  O481    1.952   .     S
Cu462  O483    1.928   .     S
Cu462  O477    1.951   .     S
Cu462  Cu463   2.718   .     S
Cu462  O479    1.944   .     S
Cu463  N475    2.042   .     S
Cu463  O480    1.928   .     S
Cu463  O482    1.951   .     S
Cu463  O478    1.952   .     S
Cu463  O484    1.944   .     S
H465   C601    1.082   .     S
H466   N525    1.029   .     S
H468   C555    1.084   1_455 S
H472   C509    1.083   .     S
H474   C746    1.087   1_545 S
N475   N525    1.283   .     S
N475   N534    1.387   .     S
N476   N573    1.283   1_455 S
N476   H564    1.029   1_455 S
N485   H486    1.004   .     S
N485   C487    1.443   .     S
N485   N573    1.387   1_455 S
C487   H490    1.110   .     S
C487   H488    1.110   .     S
C487   H587    1.106   1_455 S
H489   C536    1.106   .     S
C491   C501    1.434   .     S
C491   O527    1.300   .     A
C491   O526    1.299   .     A
C492   C493    1.419   .     A
C492   C53     1.426   1_556 S
C492   C69     1.418   1_556 S
C493   C497    1.410   .     A
C493   C500    1.422   .     A
C494   C498    1.402   .     A
C495   C496    1.391   .     A
C495   C53     1.421   1_556 S
C495   C65     1.404   1_556 S
C496   C497    1.386   .     A
C496   H516    1.084   .     S
C497   H522    1.077   .     S
C498   C507    1.399   .     A
C498   H518    1.076   .     S
C499   C507    1.398   .     A
C499   C506    1.393   .     A
C499   H513    1.083   .     S
C500   C502    1.477   .     S
C500   C508    1.402   .     A
C501   C650    1.335   .     S
C501   H670    1.087   .     S
C502   O529    1.306   .     A
C502   O528    1.312   .     A
C503   C504    1.433   .     S
C503   C795    1.335   1_545 S
C503   H808    1.082   1_545 S
C504   O531    1.294   .     A
C504   O530    1.304   .     A
C505   O532    1.304   .     A
C505   O533    1.310   .     A
C505   C507    1.464   .     S
C506   H566    1.084   .     S
C508   H519    1.083   .     S
C508   C509    1.387   .     A
C509   C69     1.392   1_556 S
C510   H520    1.077   .     S
Cu511  N525    2.042   .     S
Cu511  O530    1.952   .     S
Cu511  O532    1.928   .     S
Cu511  O526    1.951   .     S
Cu511  Cu512   2.718   .     S
Cu511  O528    1.944   .     S
Cu512  N524    2.042   .     S
Cu512  O529    1.928   .     S
Cu512  O531    1.951   .     S
Cu512  O527    1.952   .     S
Cu512  O533    1.944   .     S
H514   C650    1.082   .     S
H515   N574    1.029   .     S
H521   C558    1.083   .     S
H523   C795    1.087   1_545 S
N524   N574    1.283   .     S
N524   N583    1.387   .     S
N534   H535    1.004   .     S
N534   C536    1.443   .     S
C536   H539    1.110   .     S
C536   H537    1.110   .     S
H538   C585    1.106   .     S
C540   C550    1.434   .     S
C540   O576    1.300   .     A
C540   O575    1.299   .     A
C541   C542    1.419   .     A
C541   C102    1.426   1_556 S
C541   C118    1.418   1_556 S
C542   C546    1.410   .     A
C542   C549    1.422   .     A
C543   C547    1.402   .     A
C544   C545    1.391   .     A
C544   C102    1.421   1_556 S
C544   C114    1.404   1_556 S
C545   C546    1.386   .     A
C545   H565    1.084   .     S
C546   H571    1.077   .     S
C547   C556    1.399   .     A
C547   H567    1.076   .     S
C548   C556    1.398   .     A
C548   C555    1.393   .     A
C548   H562    1.083   .     S
C549   C551    1.477   .     S
C549   C557    1.402   .     A
C550   C699    1.335   .     S
C550   H719    1.087   .     S
C551   O578    1.306   .     A
C551   O577    1.312   .     A
C552   C553    1.433   .     S
C552   C844    1.335   1_545 S
C552   H857    1.082   1_545 S
C553   O580    1.294   .     A
C553   O579    1.304   .     A
C554   O581    1.304   .     A
C554   O582    1.310   .     A
C554   C556    1.464   .     S
C555   H468    1.084   1_655 S
C557   H568    1.083   .     S
C557   C558    1.387   .     A
C558   C118    1.392   1_556 S
C559   H569    1.077   .     S
Cu560  N574    2.042   .     S
Cu560  O579    1.952   .     S
Cu560  O581    1.928   .     S
Cu560  O575    1.951   .     S
Cu560  Cu561   2.718   .     S
Cu560  O577    1.944   .     S
Cu561  N573    2.042   .     S
Cu561  O578    1.928   .     S
Cu561  O580    1.951   .     S
Cu561  O576    1.952   .     S
Cu561  O582    1.944   .     S
H563   C699    1.082   .     S
H564   N476    1.029   1_655 S
H570   C460    1.083   1_655 S
H572   C844    1.087   1_545 S
N573   N476    1.283   1_655 S
N573   N485    1.387   1_655 S
N583   H584    1.004   .     S
N583   C585    1.443   .     S
C585   H588    1.110   .     S
C585   H586    1.110   .     S
H587   C487    1.106   1_655 S
C589   C599    1.434   .     S
C589   O625    1.300   .     A
C589   O624    1.299   .     A
C590   C591    1.419   .     A
C590   C151    1.426   1_556 S
C590   C167    1.418   1_556 S
C591   C595    1.410   .     A
C591   C598    1.422   .     A
C592   C596    1.402   .     A
C593   C594    1.391   .     A
C593   C151    1.421   1_556 S
C593   C163    1.404   1_556 S
C594   C595    1.386   .     A
C594   H614    1.084   .     S
C595   H620    1.077   .     S
C596   C605    1.399   .     A
C596   H616    1.076   .     S
C597   C605    1.398   .     A
C597   C604    1.393   .     A
C597   H611    1.083   .     S
C598   C600    1.477   .     S
C598   C606    1.402   .     A
C599   C748    1.335   .     S
C599   H768    1.087   .     S
C600   O627    1.306   .     A
C600   O626    1.312   .     A
C601   C602    1.433   .     S
C602   O629    1.294   .     A
C602   O628    1.304   .     A
C603   O630    1.304   .     A
C603   O631    1.310   .     A
C603   C605    1.464   .     S
C604   H664    1.084   .     S
C606   H617    1.083   .     S
C606   C607    1.387   .     A
C607   C167    1.392   1_556 S
C607   H717    1.083   1_455 S
C608   H618    1.077   .     S
Cu609  N623    2.042   .     S
Cu609  O628    1.952   .     S
Cu609  O630    1.928   .     S
Cu609  O624    1.951   .     S
Cu609  Cu610   2.718   .     S
Cu609  O626    1.944   .     S
Cu610  N622    2.042   .     S
Cu610  O627    1.928   .     S
Cu610  O629    1.951   .     S
Cu610  O625    1.952   .     S
Cu610  O631    1.944   .     S
H612   C748    1.082   .     S
H613   N672    1.029   .     S
H615   C702    1.084   1_455 S
H619   C656    1.083   .     S
N622   N672    1.283   .     S
N622   N681    1.387   .     S
N623   N720    1.283   1_455 S
N623   H711    1.029   1_455 S
N632   H633    1.004   .     S
N632   C634    1.443   .     S
N632   N720    1.387   1_455 S
C634   H637    1.110   .     S
C634   H635    1.110   .     S
C634   H734    1.106   1_455 S
H636   C683    1.106   .     S
C638   C648    1.434   .     S
C638   O674    1.300   .     A
C638   O673    1.299   .     A
C639   C640    1.419   .     A
C639   C200    1.426   1_556 S
C639   C216    1.418   1_556 S
C640   C644    1.410   .     A
C640   C647    1.422   .     A
C641   C645    1.402   .     A
C642   C643    1.391   .     A
C642   C200    1.421   1_556 S
C642   C212    1.404   1_556 S
C643   C644    1.386   .     A
C643   H663    1.084   .     S
C644   H669    1.077   .     S
C645   C654    1.399   .     A
C645   H665    1.076   .     S
C646   C654    1.398   .     A
C646   C653    1.393   .     A
C646   H660    1.083   .     S
C647   C649    1.477   .     S
C647   C655    1.402   .     A
C648   C797    1.335   .     S
C648   H817    1.087   .     S
C649   O676    1.306   .     A
C649   O675    1.312   .     A
C650   C651    1.433   .     S
C651   O678    1.294   .     A
C651   O677    1.304   .     A
C652   O679    1.304   .     A
C652   O680    1.310   .     A
C652   C654    1.464   .     S
C653   H713    1.084   .     S
C655   H666    1.083   .     S
C655   C656    1.387   .     A
C656   C216    1.392   1_556 S
C657   H667    1.077   .     S
Cu658  N672    2.042   .     S
Cu658  O677    1.952   .     S
Cu658  O679    1.928   .     S
Cu658  O673    1.951   .     S
Cu658  Cu659   2.718   .     S
Cu658  O675    1.944   .     S
Cu659  N671    2.042   .     S
Cu659  O676    1.928   .     S
Cu659  O678    1.951   .     S
Cu659  O674    1.952   .     S
Cu659  O680    1.944   .     S
H661   C797    1.082   .     S
H662   N721    1.029   .     S
H668   C705    1.083   .     S
N671   N721    1.283   .     S
N671   N730    1.387   .     S
N681   H682    1.004   .     S
N681   C683    1.443   .     S
C683   H686    1.110   .     S
C683   H684    1.110   .     S
H685   C732    1.106   .     S
C687   C697    1.434   .     S
C687   O723    1.300   .     A
C687   O722    1.299   .     A
C688   C689    1.419   .     A
C688   C249    1.426   1_556 S
C688   C265    1.418   1_556 S
C689   C693    1.410   .     A
C689   C696    1.422   .     A
C690   C694    1.402   .     A
C691   C692    1.391   .     A
C691   C249    1.421   1_556 S
C691   C261    1.404   1_556 S
C692   C693    1.386   .     A
C692   H712    1.084   .     S
C693   H718    1.077   .     S
C694   C703    1.399   .     A
C694   H714    1.076   .     S
C695   C703    1.398   .     A
C695   C702    1.393   .     A
C695   H709    1.083   .     S
C696   C698    1.477   .     S
C696   C704    1.402   .     A
C697   C846    1.335   .     S
C697   H866    1.087   .     S
C698   O725    1.306   .     A
C698   O724    1.312   .     A
C699   C700    1.433   .     S
C700   O727    1.294   .     A
C700   O726    1.304   .     A
C701   O728    1.304   .     A
C701   O729    1.310   .     A
C701   C703    1.464   .     S
C702   H615    1.084   1_655 S
C704   H715    1.083   .     S
C704   C705    1.387   .     A
C705   C265    1.392   1_556 S
C706   H716    1.077   .     S
Cu707  N721    2.042   .     S
Cu707  O726    1.952   .     S
Cu707  O728    1.928   .     S
Cu707  O722    1.951   .     S
Cu707  Cu708   2.718   .     S
Cu707  O724    1.944   .     S
Cu708  N720    2.042   .     S
Cu708  O725    1.928   .     S
Cu708  O727    1.951   .     S
Cu708  O723    1.952   .     S
Cu708  O729    1.944   .     S
H710   C846    1.082   .     S
H711   N623    1.029   1_655 S
H717   C607    1.083   1_655 S
N720   N623    1.283   1_655 S
N720   N632    1.387   1_655 S
N730   H731    1.004   .     S
N730   C732    1.443   .     S
C732   H735    1.110   .     S
C732   H733    1.110   .     S
H734   C634    1.106   1_655 S
C736   C746    1.434   .     S
C736   O772    1.300   .     A
C736   O771    1.299   .     A
C737   C738    1.419   .     A
C737   C298    1.426   1_556 S
C737   C314    1.418   1_556 S
C738   C742    1.410   .     A
C738   C745    1.422   .     A
C739   C743    1.402   .     A
C740   C741    1.391   .     A
C740   C298    1.421   1_556 S
C740   C310    1.404   1_556 S
C741   C742    1.386   .     A
C741   H761    1.084   .     S
C742   H767    1.077   .     S
C743   C752    1.399   .     A
C743   H763    1.076   .     S
C744   C752    1.398   .     A
C744   C751    1.393   .     A
C744   H758    1.083   .     S
C745   C747    1.477   .     S
C745   C753    1.402   .     A
C746   C454    1.335   1_565 S
C746   H474    1.087   1_565 S
C747   O774    1.306   .     A
C747   O773    1.312   .     A
C748   C749    1.433   .     S
C749   O776    1.294   .     A
C749   O775    1.304   .     A
C750   O777    1.304   .     A
C750   O778    1.310   .     A
C750   C752    1.464   .     S
C751   H811    1.084   .     S
C753   H764    1.083   .     S
C753   C754    1.387   .     A
C754   C314    1.392   1_556 S
C754   H864    1.083   1_455 S
C755   H765    1.077   .     S
Cu756  N770    2.042   .     S
Cu756  O775    1.952   .     S
Cu756  O777    1.928   .     S
Cu756  O771    1.951   .     S
Cu756  Cu757   2.718   .     S
Cu756  O773    1.944   .     S
Cu757  N769    2.042   .     S
Cu757  O774    1.928   .     S
Cu757  O776    1.951   .     S
Cu757  O772    1.952   .     S
Cu757  O778    1.944   .     S
H759   C454    1.082   1_565 S
H760   N819    1.029   .     S
H762   C849    1.084   1_455 S
H766   C803    1.083   .     S
N769   N819    1.283   .     S
N769   N828    1.387   .     S
N770   N867    1.283   1_455 S
N770   H858    1.029   1_455 S
N779   H780    1.004   .     S
N779   C781    1.443   .     S
N779   N867    1.387   1_455 S
C781   H784    1.110   .     S
C781   H782    1.110   .     S
C781   H881    1.106   1_455 S
H783   C830    1.106   .     S
C785   C795    1.434   .     S
C785   O821    1.300   .     A
C785   O820    1.299   .     A
C786   C787    1.419   .     A
C786   C347    1.426   1_556 S
C786   C363    1.418   1_556 S
C787   C791    1.410   .     A
C787   C794    1.422   .     A
C788   C792    1.402   .     A
C789   C790    1.391   .     A
C789   C347    1.421   1_556 S
C789   C359    1.404   1_556 S
C790   C791    1.386   .     A
C790   H810    1.084   .     S
C791   H816    1.077   .     S
C792   C801    1.399   .     A
C792   H812    1.076   .     S
C793   C801    1.398   .     A
C793   C800    1.393   .     A
C793   H807    1.083   .     S
C794   C796    1.477   .     S
C794   C802    1.402   .     A
C795   C503    1.335   1_565 S
C795   H523    1.087   1_565 S
C796   O823    1.306   .     A
C796   O822    1.312   .     A
C797   C798    1.433   .     S
C798   O825    1.294   .     A
C798   O824    1.304   .     A
C799   O826    1.304   .     A
C799   O827    1.310   .     A
C799   C801    1.464   .     S
C800   H860    1.084   .     S
C802   H813    1.083   .     S
C802   C803    1.387   .     A
C803   C363    1.392   1_556 S
C804   H814    1.077   .     S
Cu805  N819    2.042   .     S
Cu805  O824    1.952   .     S
Cu805  O826    1.928   .     S
Cu805  O820    1.951   .     S
Cu805  Cu806   2.718   .     S
Cu805  O822    1.944   .     S
Cu806  N818    2.042   .     S
Cu806  O823    1.928   .     S
Cu806  O825    1.951   .     S
Cu806  O821    1.952   .     S
Cu806  O827    1.944   .     S
H808   C503    1.082   1_565 S
H809   N868    1.029   .     S
H815   C852    1.083   .     S
N818   N868    1.283   .     S
N818   N877    1.387   .     S
N828   H829    1.004   .     S
N828   C830    1.443   .     S
C830   H833    1.110   .     S
C830   H831    1.110   .     S
H832   C879    1.106   .     S
C834   C844    1.434   .     S
C834   O870    1.300   .     A
C834   O869    1.299   .     A
C835   C836    1.419   .     A
C835   C396    1.426   1_556 S
C835   C412    1.418   1_556 S
C836   C840    1.410   .     A
C836   C843    1.422   .     A
C837   C841    1.402   .     A
C838   C839    1.391   .     A
C838   C396    1.421   1_556 S
C838   C408    1.404   1_556 S
C839   C840    1.386   .     A
C839   H859    1.084   .     S
C840   H865    1.077   .     S
C841   C850    1.399   .     A
C841   H861    1.076   .     S
C842   C850    1.398   .     A
C842   C849    1.393   .     A
C842   H856    1.083   .     S
C843   C845    1.477   .     S
C843   C851    1.402   .     A
C844   C552    1.335   1_565 S
C844   H572    1.087   1_565 S
C845   O872    1.306   .     A
C845   O871    1.312   .     A
C846   C847    1.433   .     S
C847   O874    1.294   .     A
C847   O873    1.304   .     A
C848   O875    1.304   .     A
C848   O876    1.310   .     A
C848   C850    1.464   .     S
C849   H762    1.084   1_655 S
C851   H862    1.083   .     S
C851   C852    1.387   .     A
C852   C412    1.392   1_556 S
C853   H863    1.077   .     S
Cu854  N868    2.042   .     S
Cu854  O873    1.952   .     S
Cu854  O875    1.928   .     S
Cu854  O869    1.951   .     S
Cu854  Cu855   2.718   .     S
Cu854  O871    1.944   .     S
Cu855  N867    2.042   .     S
Cu855  O872    1.928   .     S
Cu855  O874    1.951   .     S
Cu855  O870    1.952   .     S
Cu855  O876    1.944   .     S
H857   C552    1.082   1_565 S
H858   N770    1.029   1_655 S
H864   C754    1.083   1_655 S
N867   N770    1.283   1_655 S
N867   N779    1.387   1_655 S
N877   H878    1.004   .     S
N877   C879    1.443   .     S
C879   H882    1.110   .     S
C879   H880    1.110   .     S
H881   C781    1.106   1_655 S
