data_str_m2_o10_o17_pcu_sym.37
_audit_creation_date              2020-01-03
_audit_creation_method            'Materials Studio'
_symmetry_space_group_name_H-M    'P1'
_symmetry_Int_Tables_number       1
_symmetry_cell_setting            triclinic
loop_
_symmetry_equiv_pos_as_xyz
  x,y,z
_cell_length_a                    29.9768
_cell_length_b                    26.1203
_cell_length_c                    22.6053
_cell_angle_alpha                 102.9822
_cell_angle_beta                  94.8780
_cell_angle_gamma                 93.8730
loop_
_atom_site_label
_atom_site_type_symbol
_atom_site_fract_x
_atom_site_fract_y
_atom_site_fract_z
_atom_site_U_iso_or_equiv
_atom_site_adp_type
_atom_site_occupancy
C1     C     0.24768   0.06680   0.15144   0.00000  Uiso   1.00
C2     C     0.08790   0.11914   0.13247   0.00000  Uiso   1.00
C3     C     0.38381   0.17083   0.16577   0.00000  Uiso   1.00
C4     C     0.11621   0.16268   0.16759   0.00000  Uiso   1.00
C5     C     0.40147   0.12726   0.13146   0.00000  Uiso   1.00
C6     C     0.09857   0.20649   0.20146   0.00000  Uiso   1.00
C7     C     0.44758   0.12448   0.13424   0.00000  Uiso   1.00
C8     C     0.05246   0.20927   0.19880   0.00000  Uiso   1.00
C9     C     0.47667   0.16848   0.16603   0.00000  Uiso   1.00
C10    C     0.02335   0.16521   0.16729   0.00000  Uiso   1.00
C11    C     0.45905   0.21559   0.19627   0.00000  Uiso   1.00
C12    C     0.25235   0.26653   0.18189   0.00000  Uiso   1.00
C13    C     0.04095   0.11792   0.13751   0.00000  Uiso   1.00
C14    C     0.46457   0.07701   0.10843   0.00000  Uiso   1.00
C15    C     0.03546   0.25667   0.22480   0.00000  Uiso   1.00
C16    C     0.39233   0.25383   0.24752   0.00000  Uiso   1.00
C17    C     0.10765   0.07891   0.08696   0.00000  Uiso   1.00
C18    C     0.02469   0.01733   0.10265   0.00000  Uiso   1.00
C19    C     0.47476   0.31594   0.23345   0.00000  Uiso   1.00
C20    C     0.20017   0.31850   0.10141   0.00000  Uiso   1.00
C21    C     0.29991   0.01482   0.23188   0.00000  Uiso   1.00
C22    C     0.21239   0.10654   0.30921   0.00000  Uiso   1.00
C23    C     0.01071   0.07197   0.11370   0.00000  Uiso   1.00
C24    C     0.28763   0.22677   0.02412   0.00000  Uiso   1.00
C25    C     0.48924   0.26151   0.22053   0.00000  Uiso   1.00
C26    C     0.23927   0.01129   0.14582   0.00000  Uiso   1.00
C27    C     0.26078   0.32204   0.18750   0.00000  Uiso   1.00
C28    C     0.16459   0.16515   0.16685   0.00000  Uiso   1.00
C29    C     0.33541   0.16824   0.16649   0.00000  Uiso   1.00
C30    C     0.41209   0.21416   0.20140   0.00000  Uiso   1.00
Cu31   Cu    0.25500   0.17246   0.22813   0.00000  Uiso   1.00
Cu32   Cu    0.24499   0.16087   0.10521   0.00000  Uiso   1.00
H33    H     0.37898   0.09370   0.10615   0.00000  Uiso   1.00
H34    H     0.30542   0.00405   0.27540   0.00000  Uiso   1.00
H35    H     0.18506   0.10942   0.27628   0.00000  Uiso   1.00
H36    H     0.31500   0.22387   0.05698   0.00000  Uiso   1.00
H37    H     0.12109   0.24013   0.22651   0.00000  Uiso   1.00
H38    H     0.44140   0.04255   0.08829   0.00000  Uiso   1.00
H39    H     0.05862   0.29116   0.24493   0.00000  Uiso   1.00
H40    H     0.35983   0.26710   0.23653   0.00000  Uiso   1.00
H41    H     0.14034   0.06614   0.09806   0.00000  Uiso   1.00
H42    H     0.01281   0.27505   0.05492   0.00000  Uiso   1.00
H43    H     0.43253   0.03340   0.21005   0.00000  Uiso   1.00
H44    H     0.19470   0.32921   0.05785   0.00000  Uiso   1.00
N45    N     0.23744   0.15214   0.01284   0.00000  Uiso   1.00
N46    N     0.26255   0.18119   0.32049   0.00000  Uiso   1.00
O47    O     0.25325   0.09538   0.20659   0.00000  Uiso   1.00
O48    O     0.08844   0.06161   0.03576   0.00000  Uiso   1.00
O49    O     0.05577   0.00670   0.13518   0.00000  Uiso   1.00
O50    O     0.00064   0.31066   0.05723   0.00000  Uiso   1.00
O51    O     0.49506   0.01696   0.27462   0.00000  Uiso   1.00
O52    O     0.43921   0.32856   0.19665   0.00000  Uiso   1.00
O53    O     0.17236   0.28757   0.11446   0.00000  Uiso   1.00
O54    O     0.32767   0.04580   0.21883   0.00000  Uiso   1.00
O55    O     0.22011   0.06294   0.31618   0.00000  Uiso   1.00
O56    O     0.27989   0.27039   0.01719   0.00000  Uiso   1.00
O57    O     0.24674   0.23796   0.12674   0.00000  Uiso   1.00
O58    O     0.24480   0.08559   0.10279   0.00000  Uiso   1.00
O59    O     0.25520   0.24774   0.23055   0.00000  Uiso   1.00
O60    O     0.18935   0.17155   0.21857   0.00000  Uiso   1.00
O61    O     0.31064   0.16179   0.11476   0.00000  Uiso   1.00
O62    O     0.18090   0.16176   0.11477   0.00000  Uiso   1.00
O63    O     0.31910   0.17157   0.21857   0.00000  Uiso   1.00
O64    O     0.41129   0.27006   0.29902   0.00000  Uiso   1.00
C65    C     0.74768   0.06680   0.15144   0.00000  Uiso   1.00
C66    C     0.58790   0.11914   0.13247   0.00000  Uiso   1.00
C67    C     0.88381   0.17083   0.16577   0.00000  Uiso   1.00
C68    C     0.61621   0.16268   0.16759   0.00000  Uiso   1.00
C69    C     0.90147   0.12726   0.13146   0.00000  Uiso   1.00
C70    C     0.59857   0.20649   0.20146   0.00000  Uiso   1.00
C71    C     0.94758   0.12448   0.13424   0.00000  Uiso   1.00
C72    C     0.55246   0.20927   0.19880   0.00000  Uiso   1.00
C73    C     0.97667   0.16848   0.16603   0.00000  Uiso   1.00
C74    C     0.52335   0.16521   0.16729   0.00000  Uiso   1.00
C75    C     0.95905   0.21559   0.19627   0.00000  Uiso   1.00
C76    C     0.75235   0.26653   0.18189   0.00000  Uiso   1.00
C77    C     0.54095   0.11792   0.13751   0.00000  Uiso   1.00
C78    C     0.96457   0.07701   0.10843   0.00000  Uiso   1.00
C79    C     0.53546   0.25667   0.22480   0.00000  Uiso   1.00
C80    C     0.89233   0.25383   0.24752   0.00000  Uiso   1.00
C81    C     0.60765   0.07891   0.08696   0.00000  Uiso   1.00
C82    C     0.52469   0.01733   0.10265   0.00000  Uiso   1.00
C83    C     0.97476   0.31594   0.23345   0.00000  Uiso   1.00
C84    C     0.70017   0.31850   0.10141   0.00000  Uiso   1.00
C85    C     0.79991   0.01482   0.23188   0.00000  Uiso   1.00
C86    C     0.71239   0.10654   0.30921   0.00000  Uiso   1.00
C87    C     0.51071   0.07197   0.11370   0.00000  Uiso   1.00
C88    C     0.78763   0.22677   0.02412   0.00000  Uiso   1.00
C89    C     0.98924   0.26151   0.22053   0.00000  Uiso   1.00
C90    C     0.73927   0.01129   0.14582   0.00000  Uiso   1.00
C91    C     0.76078   0.32204   0.18750   0.00000  Uiso   1.00
C92    C     0.66459   0.16515   0.16685   0.00000  Uiso   1.00
C93    C     0.83541   0.16824   0.16649   0.00000  Uiso   1.00
C94    C     0.91209   0.21416   0.20140   0.00000  Uiso   1.00
Cu95   Cu    0.75500   0.17246   0.22813   0.00000  Uiso   1.00
Cu96   Cu    0.74499   0.16087   0.10521   0.00000  Uiso   1.00
H97    H     0.87898   0.09370   0.10615   0.00000  Uiso   1.00
H98    H     0.80542   0.00405   0.27540   0.00000  Uiso   1.00
H99    H     0.68506   0.10942   0.27628   0.00000  Uiso   1.00
H100   H     0.81500   0.22387   0.05698   0.00000  Uiso   1.00
H101   H     0.62109   0.24013   0.22651   0.00000  Uiso   1.00
H102   H     0.94140   0.04255   0.08829   0.00000  Uiso   1.00
H103   H     0.55862   0.29116   0.24493   0.00000  Uiso   1.00
H104   H     0.85983   0.26710   0.23653   0.00000  Uiso   1.00
H105   H     0.64034   0.06614   0.09806   0.00000  Uiso   1.00
H106   H     0.51281   0.27505   0.05492   0.00000  Uiso   1.00
H107   H     0.93253   0.03340   0.21005   0.00000  Uiso   1.00
H108   H     0.69470   0.32921   0.05785   0.00000  Uiso   1.00
N109   N     0.73744   0.15214   0.01284   0.00000  Uiso   1.00
N110   N     0.76255   0.18119   0.32049   0.00000  Uiso   1.00
O111   O     0.75325   0.09538   0.20659   0.00000  Uiso   1.00
O112   O     0.58844   0.06161   0.03576   0.00000  Uiso   1.00
O113   O     0.55577   0.00670   0.13518   0.00000  Uiso   1.00
O114   O     0.50064   0.31066   0.05723   0.00000  Uiso   1.00
O115   O     0.99506   0.01696   0.27462   0.00000  Uiso   1.00
O116   O     0.93921   0.32856   0.19665   0.00000  Uiso   1.00
O117   O     0.67236   0.28757   0.11446   0.00000  Uiso   1.00
O118   O     0.82767   0.04580   0.21883   0.00000  Uiso   1.00
O119   O     0.72011   0.06294   0.31618   0.00000  Uiso   1.00
O120   O     0.77989   0.27039   0.01719   0.00000  Uiso   1.00
O121   O     0.74674   0.23796   0.12674   0.00000  Uiso   1.00
O122   O     0.74480   0.08559   0.10279   0.00000  Uiso   1.00
O123   O     0.75520   0.24774   0.23055   0.00000  Uiso   1.00
O124   O     0.68935   0.17155   0.21857   0.00000  Uiso   1.00
O125   O     0.81064   0.16179   0.11476   0.00000  Uiso   1.00
O126   O     0.68090   0.16176   0.11477   0.00000  Uiso   1.00
O127   O     0.81910   0.17157   0.21857   0.00000  Uiso   1.00
O128   O     0.91129   0.27006   0.29902   0.00000  Uiso   1.00
C129   C     0.24768   0.40014   0.15144   0.00000  Uiso   1.00
C130   C     0.08790   0.45247   0.13247   0.00000  Uiso   1.00
C131   C     0.38381   0.50416   0.16577   0.00000  Uiso   1.00
C132   C     0.11621   0.49601   0.16759   0.00000  Uiso   1.00
C133   C     0.40147   0.46059   0.13146   0.00000  Uiso   1.00
C134   C     0.09857   0.53983   0.20146   0.00000  Uiso   1.00
C135   C     0.44758   0.45781   0.13424   0.00000  Uiso   1.00
C136   C     0.05246   0.54260   0.19880   0.00000  Uiso   1.00
C137   C     0.47667   0.50181   0.16603   0.00000  Uiso   1.00
C138   C     0.02335   0.49854   0.16729   0.00000  Uiso   1.00
C139   C     0.45905   0.54892   0.19627   0.00000  Uiso   1.00
C140   C     0.25235   0.59986   0.18189   0.00000  Uiso   1.00
C141   C     0.04095   0.45126   0.13751   0.00000  Uiso   1.00
C142   C     0.46457   0.41035   0.10843   0.00000  Uiso   1.00
C143   C     0.03546   0.59001   0.22480   0.00000  Uiso   1.00
C144   C     0.39233   0.58716   0.24752   0.00000  Uiso   1.00
C145   C     0.10765   0.41225   0.08696   0.00000  Uiso   1.00
C146   C     0.02469   0.35066   0.10265   0.00000  Uiso   1.00
C147   C     0.47476   0.64927   0.23345   0.00000  Uiso   1.00
C148   C     0.20017   0.65183   0.10141   0.00000  Uiso   1.00
C149   C     0.29991   0.34815   0.23188   0.00000  Uiso   1.00
C150   C     0.21239   0.43988   0.30921   0.00000  Uiso   1.00
C151   C     0.01071   0.40530   0.11370   0.00000  Uiso   1.00
C152   C     0.28763   0.56011   0.02412   0.00000  Uiso   1.00
C153   C     0.48924   0.59484   0.22053   0.00000  Uiso   1.00
C154   C     0.23927   0.34462   0.14582   0.00000  Uiso   1.00
C155   C     0.26078   0.65537   0.18750   0.00000  Uiso   1.00
C156   C     0.16459   0.49849   0.16685   0.00000  Uiso   1.00
C157   C     0.33541   0.50157   0.16649   0.00000  Uiso   1.00
C158   C     0.41209   0.54749   0.20140   0.00000  Uiso   1.00
Cu159  Cu    0.25500   0.50579   0.22813   0.00000  Uiso   1.00
Cu160  Cu    0.24499   0.49421   0.10521   0.00000  Uiso   1.00
H161   H     0.37898   0.42703   0.10615   0.00000  Uiso   1.00
H162   H     0.30542   0.33739   0.27540   0.00000  Uiso   1.00
H163   H     0.18506   0.44275   0.27628   0.00000  Uiso   1.00
H164   H     0.31500   0.55720   0.05698   0.00000  Uiso   1.00
H165   H     0.12109   0.57346   0.22651   0.00000  Uiso   1.00
H166   H     0.44140   0.37589   0.08829   0.00000  Uiso   1.00
H167   H     0.05862   0.62449   0.24493   0.00000  Uiso   1.00
H168   H     0.35983   0.60043   0.23653   0.00000  Uiso   1.00
H169   H     0.14034   0.39947   0.09806   0.00000  Uiso   1.00
H170   H     0.01281   0.60838   0.05492   0.00000  Uiso   1.00
H171   H     0.43253   0.36673   0.21005   0.00000  Uiso   1.00
H172   H     0.19470   0.66255   0.05785   0.00000  Uiso   1.00
N173   N     0.23744   0.48547   0.01284   0.00000  Uiso   1.00
N174   N     0.26255   0.51453   0.32049   0.00000  Uiso   1.00
O175   O     0.25325   0.42871   0.20659   0.00000  Uiso   1.00
O176   O     0.08844   0.39494   0.03576   0.00000  Uiso   1.00
O177   O     0.05577   0.34004   0.13518   0.00000  Uiso   1.00
O178   O     0.00064   0.64399   0.05723   0.00000  Uiso   1.00
O179   O     0.49506   0.35029   0.27462   0.00000  Uiso   1.00
O180   O     0.43921   0.66189   0.19665   0.00000  Uiso   1.00
O181   O     0.17236   0.62090   0.11446   0.00000  Uiso   1.00
O182   O     0.32767   0.37914   0.21883   0.00000  Uiso   1.00
O183   O     0.22011   0.39627   0.31618   0.00000  Uiso   1.00
O184   O     0.27989   0.60372   0.01719   0.00000  Uiso   1.00
O185   O     0.24674   0.57129   0.12674   0.00000  Uiso   1.00
O186   O     0.24480   0.41892   0.10279   0.00000  Uiso   1.00
O187   O     0.25520   0.58108   0.23055   0.00000  Uiso   1.00
O188   O     0.18935   0.50488   0.21857   0.00000  Uiso   1.00
O189   O     0.31064   0.49512   0.11476   0.00000  Uiso   1.00
O190   O     0.18090   0.49510   0.11477   0.00000  Uiso   1.00
O191   O     0.31910   0.50490   0.21857   0.00000  Uiso   1.00
O192   O     0.41129   0.60339   0.29902   0.00000  Uiso   1.00
C193   C     0.74768   0.40014   0.15144   0.00000  Uiso   1.00
C194   C     0.58790   0.45247   0.13247   0.00000  Uiso   1.00
C195   C     0.88381   0.50416   0.16577   0.00000  Uiso   1.00
C196   C     0.61621   0.49601   0.16759   0.00000  Uiso   1.00
C197   C     0.90147   0.46059   0.13146   0.00000  Uiso   1.00
C198   C     0.59857   0.53983   0.20146   0.00000  Uiso   1.00
C199   C     0.94758   0.45781   0.13424   0.00000  Uiso   1.00
C200   C     0.55246   0.54260   0.19880   0.00000  Uiso   1.00
C201   C     0.97667   0.50181   0.16603   0.00000  Uiso   1.00
C202   C     0.52335   0.49854   0.16729   0.00000  Uiso   1.00
C203   C     0.95905   0.54892   0.19627   0.00000  Uiso   1.00
C204   C     0.75235   0.59986   0.18189   0.00000  Uiso   1.00
C205   C     0.54095   0.45126   0.13751   0.00000  Uiso   1.00
C206   C     0.96457   0.41035   0.10843   0.00000  Uiso   1.00
C207   C     0.53546   0.59001   0.22480   0.00000  Uiso   1.00
C208   C     0.89233   0.58716   0.24752   0.00000  Uiso   1.00
C209   C     0.60765   0.41225   0.08696   0.00000  Uiso   1.00
C210   C     0.52469   0.35066   0.10265   0.00000  Uiso   1.00
C211   C     0.97476   0.64927   0.23345   0.00000  Uiso   1.00
C212   C     0.70017   0.65183   0.10141   0.00000  Uiso   1.00
C213   C     0.79991   0.34815   0.23188   0.00000  Uiso   1.00
C214   C     0.71239   0.43988   0.30921   0.00000  Uiso   1.00
C215   C     0.51071   0.40530   0.11370   0.00000  Uiso   1.00
C216   C     0.78763   0.56011   0.02412   0.00000  Uiso   1.00
C217   C     0.98924   0.59484   0.22053   0.00000  Uiso   1.00
C218   C     0.73927   0.34462   0.14582   0.00000  Uiso   1.00
C219   C     0.76078   0.65537   0.18750   0.00000  Uiso   1.00
C220   C     0.66459   0.49849   0.16685   0.00000  Uiso   1.00
C221   C     0.83541   0.50157   0.16649   0.00000  Uiso   1.00
C222   C     0.91209   0.54749   0.20140   0.00000  Uiso   1.00
Cu223  Cu    0.75500   0.50579   0.22813   0.00000  Uiso   1.00
Cu224  Cu    0.74499   0.49421   0.10521   0.00000  Uiso   1.00
H225   H     0.87898   0.42703   0.10615   0.00000  Uiso   1.00
H226   H     0.80542   0.33739   0.27540   0.00000  Uiso   1.00
H227   H     0.68506   0.44275   0.27628   0.00000  Uiso   1.00
H228   H     0.81500   0.55720   0.05698   0.00000  Uiso   1.00
H229   H     0.62109   0.57346   0.22651   0.00000  Uiso   1.00
H230   H     0.94140   0.37589   0.08829   0.00000  Uiso   1.00
H231   H     0.55862   0.62449   0.24493   0.00000  Uiso   1.00
H232   H     0.85983   0.60043   0.23653   0.00000  Uiso   1.00
H233   H     0.64034   0.39947   0.09806   0.00000  Uiso   1.00
H234   H     0.51281   0.60838   0.05492   0.00000  Uiso   1.00
H235   H     0.93253   0.36673   0.21005   0.00000  Uiso   1.00
H236   H     0.69470   0.66255   0.05785   0.00000  Uiso   1.00
N237   N     0.73744   0.48547   0.01284   0.00000  Uiso   1.00
N238   N     0.76255   0.51453   0.32049   0.00000  Uiso   1.00
O239   O     0.75325   0.42871   0.20659   0.00000  Uiso   1.00
O240   O     0.58844   0.39494   0.03576   0.00000  Uiso   1.00
O241   O     0.55577   0.34004   0.13518   0.00000  Uiso   1.00
O242   O     0.50064   0.64399   0.05723   0.00000  Uiso   1.00
O243   O     0.99506   0.35029   0.27462   0.00000  Uiso   1.00
O244   O     0.93921   0.66189   0.19665   0.00000  Uiso   1.00
O245   O     0.67236   0.62090   0.11446   0.00000  Uiso   1.00
O246   O     0.82767   0.37914   0.21883   0.00000  Uiso   1.00
O247   O     0.72011   0.39627   0.31618   0.00000  Uiso   1.00
O248   O     0.77989   0.60372   0.01719   0.00000  Uiso   1.00
O249   O     0.74674   0.57129   0.12674   0.00000  Uiso   1.00
O250   O     0.74480   0.41892   0.10279   0.00000  Uiso   1.00
O251   O     0.75520   0.58108   0.23055   0.00000  Uiso   1.00
O252   O     0.68935   0.50488   0.21857   0.00000  Uiso   1.00
O253   O     0.81064   0.49512   0.11476   0.00000  Uiso   1.00
O254   O     0.68090   0.49510   0.11477   0.00000  Uiso   1.00
O255   O     0.81910   0.50490   0.21857   0.00000  Uiso   1.00
O256   O     0.91129   0.60339   0.29902   0.00000  Uiso   1.00
C257   C     0.24768   0.73347   0.15144   0.00000  Uiso   1.00
C258   C     0.08790   0.78580   0.13247   0.00000  Uiso   1.00
C259   C     0.38381   0.83750   0.16577   0.00000  Uiso   1.00
C260   C     0.11621   0.82935   0.16759   0.00000  Uiso   1.00
C261   C     0.40147   0.79393   0.13146   0.00000  Uiso   1.00
C262   C     0.09857   0.87316   0.20146   0.00000  Uiso   1.00
C263   C     0.44758   0.79115   0.13424   0.00000  Uiso   1.00
C264   C     0.05246   0.87594   0.19880   0.00000  Uiso   1.00
C265   C     0.47667   0.83514   0.16603   0.00000  Uiso   1.00
C266   C     0.02335   0.83187   0.16729   0.00000  Uiso   1.00
C267   C     0.45905   0.88226   0.19627   0.00000  Uiso   1.00
C268   C     0.25235   0.93320   0.18189   0.00000  Uiso   1.00
C269   C     0.04095   0.78459   0.13751   0.00000  Uiso   1.00
C270   C     0.46457   0.74368   0.10843   0.00000  Uiso   1.00
C271   C     0.03546   0.92334   0.22480   0.00000  Uiso   1.00
C272   C     0.39233   0.92049   0.24752   0.00000  Uiso   1.00
C273   C     0.10765   0.74558   0.08696   0.00000  Uiso   1.00
C274   C     0.02469   0.68400   0.10265   0.00000  Uiso   1.00
C275   C     0.47476   0.98260   0.23345   0.00000  Uiso   1.00
C276   C     0.20017   0.98516   0.10141   0.00000  Uiso   1.00
C277   C     0.29991   0.68149   0.23188   0.00000  Uiso   1.00
C278   C     0.21239   0.77321   0.30921   0.00000  Uiso   1.00
C279   C     0.01071   0.73863   0.11370   0.00000  Uiso   1.00
C280   C     0.28763   0.89344   0.02412   0.00000  Uiso   1.00
C281   C     0.48924   0.92817   0.22053   0.00000  Uiso   1.00
C282   C     0.23927   0.67796   0.14582   0.00000  Uiso   1.00
C283   C     0.26078   0.98871   0.18750   0.00000  Uiso   1.00
C284   C     0.16459   0.83182   0.16685   0.00000  Uiso   1.00
C285   C     0.33541   0.83491   0.16649   0.00000  Uiso   1.00
C286   C     0.41209   0.88083   0.20140   0.00000  Uiso   1.00
Cu287  Cu    0.25500   0.83913   0.22813   0.00000  Uiso   1.00
Cu288  Cu    0.24499   0.82754   0.10521   0.00000  Uiso   1.00
H289   H     0.37898   0.76036   0.10615   0.00000  Uiso   1.00
H290   H     0.30542   0.67072   0.27540   0.00000  Uiso   1.00
H291   H     0.18506   0.77608   0.27628   0.00000  Uiso   1.00
H292   H     0.31500   0.89054   0.05698   0.00000  Uiso   1.00
H293   H     0.12109   0.90680   0.22651   0.00000  Uiso   1.00
H294   H     0.44140   0.70922   0.08829   0.00000  Uiso   1.00
H295   H     0.05862   0.95783   0.24493   0.00000  Uiso   1.00
H296   H     0.35983   0.93377   0.23653   0.00000  Uiso   1.00
H297   H     0.14034   0.73280   0.09806   0.00000  Uiso   1.00
H298   H     0.01281   0.94172   0.05492   0.00000  Uiso   1.00
H299   H     0.43253   0.70007   0.21005   0.00000  Uiso   1.00
H300   H     0.19470   0.99588   0.05785   0.00000  Uiso   1.00
N301   N     0.23744   0.81881   0.01284   0.00000  Uiso   1.00
N302   N     0.26255   0.84786   0.32049   0.00000  Uiso   1.00
O303   O     0.25325   0.76204   0.20659   0.00000  Uiso   1.00
O304   O     0.08844   0.72827   0.03576   0.00000  Uiso   1.00
O305   O     0.05577   0.67337   0.13518   0.00000  Uiso   1.00
O306   O     0.00064   0.97733   0.05723   0.00000  Uiso   1.00
O307   O     0.49506   0.68363   0.27462   0.00000  Uiso   1.00
O308   O     0.43921   0.99522   0.19665   0.00000  Uiso   1.00
O309   O     0.17236   0.95423   0.11446   0.00000  Uiso   1.00
O310   O     0.32767   0.71247   0.21883   0.00000  Uiso   1.00
O311   O     0.22011   0.72961   0.31618   0.00000  Uiso   1.00
O312   O     0.27989   0.93706   0.01719   0.00000  Uiso   1.00
O313   O     0.24674   0.90462   0.12674   0.00000  Uiso   1.00
O314   O     0.24480   0.75226   0.10279   0.00000  Uiso   1.00
O315   O     0.25520   0.91441   0.23055   0.00000  Uiso   1.00
O316   O     0.18935   0.83821   0.21857   0.00000  Uiso   1.00
O317   O     0.31064   0.82845   0.11476   0.00000  Uiso   1.00
O318   O     0.18090   0.82843   0.11477   0.00000  Uiso   1.00
O319   O     0.31910   0.83824   0.21857   0.00000  Uiso   1.00
O320   O     0.41129   0.93672   0.29902   0.00000  Uiso   1.00
C321   C     0.74768   0.73347   0.15144   0.00000  Uiso   1.00
C322   C     0.58790   0.78580   0.13247   0.00000  Uiso   1.00
C323   C     0.88381   0.83750   0.16577   0.00000  Uiso   1.00
C324   C     0.61621   0.82935   0.16759   0.00000  Uiso   1.00
C325   C     0.90147   0.79393   0.13146   0.00000  Uiso   1.00
C326   C     0.59857   0.87316   0.20146   0.00000  Uiso   1.00
C327   C     0.94758   0.79115   0.13424   0.00000  Uiso   1.00
C328   C     0.55246   0.87594   0.19880   0.00000  Uiso   1.00
C329   C     0.97667   0.83514   0.16603   0.00000  Uiso   1.00
C330   C     0.52335   0.83187   0.16729   0.00000  Uiso   1.00
C331   C     0.95905   0.88226   0.19627   0.00000  Uiso   1.00
C332   C     0.75235   0.93320   0.18189   0.00000  Uiso   1.00
C333   C     0.54095   0.78459   0.13751   0.00000  Uiso   1.00
C334   C     0.96457   0.74368   0.10843   0.00000  Uiso   1.00
C335   C     0.53546   0.92334   0.22480   0.00000  Uiso   1.00
C336   C     0.89233   0.92049   0.24752   0.00000  Uiso   1.00
C337   C     0.60765   0.74558   0.08696   0.00000  Uiso   1.00
C338   C     0.52469   0.68400   0.10265   0.00000  Uiso   1.00
C339   C     0.97476   0.98260   0.23345   0.00000  Uiso   1.00
C340   C     0.70017   0.98516   0.10141   0.00000  Uiso   1.00
C341   C     0.79991   0.68149   0.23188   0.00000  Uiso   1.00
C342   C     0.71239   0.77321   0.30921   0.00000  Uiso   1.00
C343   C     0.51071   0.73863   0.11370   0.00000  Uiso   1.00
C344   C     0.78763   0.89344   0.02412   0.00000  Uiso   1.00
C345   C     0.98924   0.92817   0.22053   0.00000  Uiso   1.00
C346   C     0.73927   0.67796   0.14582   0.00000  Uiso   1.00
C347   C     0.76078   0.98871   0.18750   0.00000  Uiso   1.00
C348   C     0.66459   0.83182   0.16685   0.00000  Uiso   1.00
C349   C     0.83541   0.83491   0.16649   0.00000  Uiso   1.00
C350   C     0.91209   0.88083   0.20140   0.00000  Uiso   1.00
Cu351  Cu    0.75500   0.83913   0.22813   0.00000  Uiso   1.00
Cu352  Cu    0.74499   0.82754   0.10521   0.00000  Uiso   1.00
H353   H     0.87898   0.76036   0.10615   0.00000  Uiso   1.00
H354   H     0.80542   0.67072   0.27540   0.00000  Uiso   1.00
H355   H     0.68506   0.77608   0.27628   0.00000  Uiso   1.00
H356   H     0.81500   0.89054   0.05698   0.00000  Uiso   1.00
H357   H     0.62109   0.90680   0.22651   0.00000  Uiso   1.00
H358   H     0.94140   0.70922   0.08829   0.00000  Uiso   1.00
H359   H     0.55862   0.95783   0.24493   0.00000  Uiso   1.00
H360   H     0.85983   0.93377   0.23653   0.00000  Uiso   1.00
H361   H     0.64034   0.73280   0.09806   0.00000  Uiso   1.00
H362   H     0.51281   0.94172   0.05492   0.00000  Uiso   1.00
H363   H     0.93253   0.70007   0.21005   0.00000  Uiso   1.00
H364   H     0.69470   0.99588   0.05785   0.00000  Uiso   1.00
N365   N     0.73744   0.81881   0.01284   0.00000  Uiso   1.00
N366   N     0.76255   0.84786   0.32049   0.00000  Uiso   1.00
O367   O     0.75325   0.76204   0.20659   0.00000  Uiso   1.00
O368   O     0.58844   0.72827   0.03576   0.00000  Uiso   1.00
O369   O     0.55577   0.67337   0.13518   0.00000  Uiso   1.00
O370   O     0.50064   0.97733   0.05723   0.00000  Uiso   1.00
O371   O     0.99506   0.68363   0.27462   0.00000  Uiso   1.00
O372   O     0.93921   0.99522   0.19665   0.00000  Uiso   1.00
O373   O     0.67236   0.95423   0.11446   0.00000  Uiso   1.00
O374   O     0.82767   0.71247   0.21883   0.00000  Uiso   1.00
O375   O     0.72011   0.72961   0.31618   0.00000  Uiso   1.00
O376   O     0.77989   0.93706   0.01719   0.00000  Uiso   1.00
O377   O     0.74674   0.90462   0.12674   0.00000  Uiso   1.00
O378   O     0.74480   0.75226   0.10279   0.00000  Uiso   1.00
O379   O     0.75520   0.91441   0.23055   0.00000  Uiso   1.00
O380   O     0.68935   0.83821   0.21857   0.00000  Uiso   1.00
O381   O     0.81064   0.82845   0.11476   0.00000  Uiso   1.00
O382   O     0.68090   0.82843   0.11477   0.00000  Uiso   1.00
O383   O     0.81910   0.83824   0.21857   0.00000  Uiso   1.00
O384   O     0.91129   0.93672   0.29902   0.00000  Uiso   1.00
C385   C     0.24768   0.06680   0.48477   0.00000  Uiso   1.00
C386   C     0.08790   0.11914   0.46580   0.00000  Uiso   1.00
C387   C     0.38381   0.17083   0.49910   0.00000  Uiso   1.00
C388   C     0.11621   0.16268   0.50093   0.00000  Uiso   1.00
C389   C     0.40147   0.12726   0.46479   0.00000  Uiso   1.00
C390   C     0.09857   0.20649   0.53480   0.00000  Uiso   1.00
C391   C     0.44758   0.12448   0.46757   0.00000  Uiso   1.00
C392   C     0.05246   0.20927   0.53214   0.00000  Uiso   1.00
C393   C     0.47667   0.16848   0.49936   0.00000  Uiso   1.00
C394   C     0.02335   0.16521   0.50063   0.00000  Uiso   1.00
C395   C     0.45905   0.21559   0.52960   0.00000  Uiso   1.00
C396   C     0.25235   0.26653   0.51522   0.00000  Uiso   1.00
C397   C     0.04095   0.11792   0.47084   0.00000  Uiso   1.00
C398   C     0.46457   0.07701   0.44176   0.00000  Uiso   1.00
C399   C     0.03546   0.25667   0.55813   0.00000  Uiso   1.00
C400   C     0.39233   0.25383   0.58085   0.00000  Uiso   1.00
C401   C     0.10765   0.07891   0.42029   0.00000  Uiso   1.00
C402   C     0.02469   0.01733   0.43598   0.00000  Uiso   1.00
C403   C     0.47476   0.31594   0.56678   0.00000  Uiso   1.00
C404   C     0.20017   0.31850   0.43474   0.00000  Uiso   1.00
C405   C     0.29991   0.01482   0.56521   0.00000  Uiso   1.00
C406   C     0.21239   0.10654   0.64254   0.00000  Uiso   1.00
C407   C     0.01071   0.07197   0.44703   0.00000  Uiso   1.00
C408   C     0.28763   0.22677   0.35746   0.00000  Uiso   1.00
C409   C     0.48924   0.26151   0.55386   0.00000  Uiso   1.00
C410   C     0.23927   0.01129   0.47916   0.00000  Uiso   1.00
C411   C     0.26078   0.32204   0.52083   0.00000  Uiso   1.00
C412   C     0.16459   0.16515   0.50019   0.00000  Uiso   1.00
C413   C     0.33541   0.16824   0.49982   0.00000  Uiso   1.00
C414   C     0.41209   0.21416   0.53474   0.00000  Uiso   1.00
Cu415  Cu    0.25500   0.17246   0.56146   0.00000  Uiso   1.00
Cu416  Cu    0.24499   0.16087   0.43854   0.00000  Uiso   1.00
H417   H     0.37898   0.09370   0.43949   0.00000  Uiso   1.00
H418   H     0.30542   0.00405   0.60873   0.00000  Uiso   1.00
H419   H     0.18506   0.10942   0.60961   0.00000  Uiso   1.00
H420   H     0.31500   0.22387   0.39032   0.00000  Uiso   1.00
H421   H     0.12109   0.24013   0.55985   0.00000  Uiso   1.00
H422   H     0.44140   0.04255   0.42162   0.00000  Uiso   1.00
H423   H     0.05862   0.29116   0.57826   0.00000  Uiso   1.00
H424   H     0.35983   0.26710   0.56986   0.00000  Uiso   1.00
H425   H     0.14034   0.06614   0.43139   0.00000  Uiso   1.00
H426   H     0.01281   0.27505   0.38825   0.00000  Uiso   1.00
H427   H     0.43253   0.03340   0.54339   0.00000  Uiso   1.00
H428   H     0.19470   0.32921   0.39119   0.00000  Uiso   1.00
N429   N     0.23744   0.15214   0.34617   0.00000  Uiso   1.00
N430   N     0.26255   0.18119   0.65383   0.00000  Uiso   1.00
O431   O     0.25325   0.09538   0.53992   0.00000  Uiso   1.00
O432   O     0.08844   0.06161   0.36910   0.00000  Uiso   1.00
O433   O     0.05577   0.00670   0.46851   0.00000  Uiso   1.00
O434   O     0.00064   0.31066   0.39057   0.00000  Uiso   1.00
O435   O     0.49506   0.01696   0.60796   0.00000  Uiso   1.00
O436   O     0.43921   0.32856   0.52998   0.00000  Uiso   1.00
O437   O     0.17236   0.28757   0.44780   0.00000  Uiso   1.00
O438   O     0.32767   0.04580   0.55217   0.00000  Uiso   1.00
O439   O     0.22011   0.06294   0.64951   0.00000  Uiso   1.00
O440   O     0.27989   0.27039   0.35052   0.00000  Uiso   1.00
O441   O     0.24674   0.23796   0.46008   0.00000  Uiso   1.00
O442   O     0.24480   0.08559   0.43612   0.00000  Uiso   1.00
O443   O     0.25520   0.24774   0.56388   0.00000  Uiso   1.00
O444   O     0.18935   0.17155   0.55191   0.00000  Uiso   1.00
O445   O     0.31064   0.16179   0.44809   0.00000  Uiso   1.00
O446   O     0.18090   0.16176   0.44810   0.00000  Uiso   1.00
O447   O     0.31910   0.17157   0.55190   0.00000  Uiso   1.00
O448   O     0.41129   0.27006   0.63235   0.00000  Uiso   1.00
C449   C     0.74768   0.06680   0.48477   0.00000  Uiso   1.00
C450   C     0.58790   0.11914   0.46580   0.00000  Uiso   1.00
C451   C     0.88381   0.17083   0.49910   0.00000  Uiso   1.00
C452   C     0.61621   0.16268   0.50093   0.00000  Uiso   1.00
C453   C     0.90147   0.12726   0.46479   0.00000  Uiso   1.00
C454   C     0.59857   0.20649   0.53480   0.00000  Uiso   1.00
C455   C     0.94758   0.12448   0.46757   0.00000  Uiso   1.00
C456   C     0.55246   0.20927   0.53214   0.00000  Uiso   1.00
C457   C     0.97667   0.16848   0.49936   0.00000  Uiso   1.00
C458   C     0.52335   0.16521   0.50063   0.00000  Uiso   1.00
C459   C     0.95905   0.21559   0.52960   0.00000  Uiso   1.00
C460   C     0.75235   0.26653   0.51522   0.00000  Uiso   1.00
C461   C     0.54095   0.11792   0.47084   0.00000  Uiso   1.00
C462   C     0.96457   0.07701   0.44176   0.00000  Uiso   1.00
C463   C     0.53546   0.25667   0.55813   0.00000  Uiso   1.00
C464   C     0.89233   0.25383   0.58085   0.00000  Uiso   1.00
C465   C     0.60765   0.07891   0.42029   0.00000  Uiso   1.00
C466   C     0.52469   0.01733   0.43598   0.00000  Uiso   1.00
C467   C     0.97476   0.31594   0.56678   0.00000  Uiso   1.00
C468   C     0.70017   0.31850   0.43474   0.00000  Uiso   1.00
C469   C     0.79991   0.01482   0.56521   0.00000  Uiso   1.00
C470   C     0.71239   0.10654   0.64254   0.00000  Uiso   1.00
C471   C     0.51071   0.07197   0.44703   0.00000  Uiso   1.00
C472   C     0.78763   0.22677   0.35746   0.00000  Uiso   1.00
C473   C     0.98924   0.26151   0.55386   0.00000  Uiso   1.00
C474   C     0.73927   0.01129   0.47916   0.00000  Uiso   1.00
C475   C     0.76078   0.32204   0.52083   0.00000  Uiso   1.00
C476   C     0.66459   0.16515   0.50019   0.00000  Uiso   1.00
C477   C     0.83541   0.16824   0.49982   0.00000  Uiso   1.00
C478   C     0.91209   0.21416   0.53474   0.00000  Uiso   1.00
Cu479  Cu    0.75500   0.17246   0.56146   0.00000  Uiso   1.00
Cu480  Cu    0.74499   0.16087   0.43854   0.00000  Uiso   1.00
H481   H     0.87898   0.09370   0.43949   0.00000  Uiso   1.00
H482   H     0.80542   0.00405   0.60873   0.00000  Uiso   1.00
H483   H     0.68506   0.10942   0.60961   0.00000  Uiso   1.00
H484   H     0.81500   0.22387   0.39032   0.00000  Uiso   1.00
H485   H     0.62109   0.24013   0.55985   0.00000  Uiso   1.00
H486   H     0.94140   0.04255   0.42162   0.00000  Uiso   1.00
H487   H     0.55862   0.29116   0.57826   0.00000  Uiso   1.00
H488   H     0.85983   0.26710   0.56986   0.00000  Uiso   1.00
H489   H     0.64034   0.06614   0.43139   0.00000  Uiso   1.00
H490   H     0.51281   0.27505   0.38825   0.00000  Uiso   1.00
H491   H     0.93253   0.03340   0.54339   0.00000  Uiso   1.00
H492   H     0.69470   0.32921   0.39119   0.00000  Uiso   1.00
N493   N     0.73744   0.15214   0.34617   0.00000  Uiso   1.00
N494   N     0.76255   0.18119   0.65383   0.00000  Uiso   1.00
O495   O     0.75325   0.09538   0.53992   0.00000  Uiso   1.00
O496   O     0.58844   0.06161   0.36910   0.00000  Uiso   1.00
O497   O     0.55577   0.00670   0.46851   0.00000  Uiso   1.00
O498   O     0.50064   0.31066   0.39057   0.00000  Uiso   1.00
O499   O     0.99506   0.01696   0.60796   0.00000  Uiso   1.00
O500   O     0.93921   0.32856   0.52998   0.00000  Uiso   1.00
O501   O     0.67236   0.28757   0.44780   0.00000  Uiso   1.00
O502   O     0.82767   0.04580   0.55217   0.00000  Uiso   1.00
O503   O     0.72011   0.06294   0.64951   0.00000  Uiso   1.00
O504   O     0.77989   0.27039   0.35052   0.00000  Uiso   1.00
O505   O     0.74674   0.23796   0.46008   0.00000  Uiso   1.00
O506   O     0.74480   0.08559   0.43612   0.00000  Uiso   1.00
O507   O     0.75520   0.24774   0.56388   0.00000  Uiso   1.00
O508   O     0.68935   0.17155   0.55191   0.00000  Uiso   1.00
O509   O     0.81064   0.16179   0.44809   0.00000  Uiso   1.00
O510   O     0.68090   0.16176   0.44810   0.00000  Uiso   1.00
O511   O     0.81910   0.17157   0.55190   0.00000  Uiso   1.00
O512   O     0.91129   0.27006   0.63235   0.00000  Uiso   1.00
C513   C     0.24768   0.40014   0.48477   0.00000  Uiso   1.00
C514   C     0.08790   0.45247   0.46580   0.00000  Uiso   1.00
C515   C     0.38381   0.50416   0.49910   0.00000  Uiso   1.00
C516   C     0.11621   0.49601   0.50093   0.00000  Uiso   1.00
C517   C     0.40147   0.46059   0.46479   0.00000  Uiso   1.00
C518   C     0.09857   0.53983   0.53480   0.00000  Uiso   1.00
C519   C     0.44758   0.45781   0.46757   0.00000  Uiso   1.00
C520   C     0.05246   0.54260   0.53214   0.00000  Uiso   1.00
C521   C     0.47667   0.50181   0.49936   0.00000  Uiso   1.00
C522   C     0.02335   0.49854   0.50063   0.00000  Uiso   1.00
C523   C     0.45905   0.54892   0.52960   0.00000  Uiso   1.00
C524   C     0.25235   0.59986   0.51522   0.00000  Uiso   1.00
C525   C     0.04095   0.45126   0.47084   0.00000  Uiso   1.00
C526   C     0.46457   0.41035   0.44176   0.00000  Uiso   1.00
C527   C     0.03546   0.59001   0.55813   0.00000  Uiso   1.00
C528   C     0.39233   0.58716   0.58085   0.00000  Uiso   1.00
C529   C     0.10765   0.41225   0.42029   0.00000  Uiso   1.00
C530   C     0.02469   0.35066   0.43598   0.00000  Uiso   1.00
C531   C     0.47476   0.64927   0.56678   0.00000  Uiso   1.00
C532   C     0.20017   0.65183   0.43474   0.00000  Uiso   1.00
C533   C     0.29991   0.34815   0.56521   0.00000  Uiso   1.00
C534   C     0.21239   0.43988   0.64254   0.00000  Uiso   1.00
C535   C     0.01071   0.40530   0.44703   0.00000  Uiso   1.00
C536   C     0.28763   0.56011   0.35746   0.00000  Uiso   1.00
C537   C     0.48924   0.59484   0.55386   0.00000  Uiso   1.00
C538   C     0.23927   0.34462   0.47916   0.00000  Uiso   1.00
C539   C     0.26078   0.65537   0.52083   0.00000  Uiso   1.00
C540   C     0.16459   0.49849   0.50019   0.00000  Uiso   1.00
C541   C     0.33541   0.50157   0.49982   0.00000  Uiso   1.00
C542   C     0.41209   0.54749   0.53474   0.00000  Uiso   1.00
Cu543  Cu    0.25500   0.50579   0.56146   0.00000  Uiso   1.00
Cu544  Cu    0.24499   0.49421   0.43854   0.00000  Uiso   1.00
H545   H     0.37898   0.42703   0.43949   0.00000  Uiso   1.00
H546   H     0.30542   0.33739   0.60873   0.00000  Uiso   1.00
H547   H     0.18506   0.44275   0.60961   0.00000  Uiso   1.00
H548   H     0.31500   0.55720   0.39032   0.00000  Uiso   1.00
H549   H     0.12109   0.57346   0.55985   0.00000  Uiso   1.00
H550   H     0.44140   0.37589   0.42162   0.00000  Uiso   1.00
H551   H     0.05862   0.62449   0.57826   0.00000  Uiso   1.00
H552   H     0.35983   0.60043   0.56986   0.00000  Uiso   1.00
H553   H     0.14034   0.39947   0.43139   0.00000  Uiso   1.00
H554   H     0.01281   0.60838   0.38825   0.00000  Uiso   1.00
H555   H     0.43253   0.36673   0.54339   0.00000  Uiso   1.00
H556   H     0.19470   0.66255   0.39119   0.00000  Uiso   1.00
N557   N     0.23744   0.48547   0.34617   0.00000  Uiso   1.00
N558   N     0.26255   0.51453   0.65383   0.00000  Uiso   1.00
O559   O     0.25325   0.42871   0.53992   0.00000  Uiso   1.00
O560   O     0.08844   0.39494   0.36910   0.00000  Uiso   1.00
O561   O     0.05577   0.34004   0.46851   0.00000  Uiso   1.00
O562   O     0.00064   0.64399   0.39057   0.00000  Uiso   1.00
O563   O     0.49506   0.35029   0.60796   0.00000  Uiso   1.00
O564   O     0.43921   0.66189   0.52998   0.00000  Uiso   1.00
O565   O     0.17236   0.62090   0.44780   0.00000  Uiso   1.00
O566   O     0.32767   0.37914   0.55217   0.00000  Uiso   1.00
O567   O     0.22011   0.39627   0.64951   0.00000  Uiso   1.00
O568   O     0.27989   0.60372   0.35052   0.00000  Uiso   1.00
O569   O     0.24674   0.57129   0.46008   0.00000  Uiso   1.00
O570   O     0.24480   0.41892   0.43612   0.00000  Uiso   1.00
O571   O     0.25520   0.58108   0.56388   0.00000  Uiso   1.00
O572   O     0.18935   0.50488   0.55191   0.00000  Uiso   1.00
O573   O     0.31064   0.49512   0.44809   0.00000  Uiso   1.00
O574   O     0.18090   0.49510   0.44810   0.00000  Uiso   1.00
O575   O     0.31910   0.50490   0.55190   0.00000  Uiso   1.00
O576   O     0.41129   0.60339   0.63235   0.00000  Uiso   1.00
C577   C     0.74768   0.40014   0.48477   0.00000  Uiso   1.00
C578   C     0.58790   0.45247   0.46580   0.00000  Uiso   1.00
C579   C     0.88381   0.50416   0.49910   0.00000  Uiso   1.00
C580   C     0.61621   0.49601   0.50093   0.00000  Uiso   1.00
C581   C     0.90147   0.46059   0.46479   0.00000  Uiso   1.00
C582   C     0.59857   0.53983   0.53480   0.00000  Uiso   1.00
C583   C     0.94758   0.45781   0.46757   0.00000  Uiso   1.00
C584   C     0.55246   0.54260   0.53214   0.00000  Uiso   1.00
C585   C     0.97667   0.50181   0.49936   0.00000  Uiso   1.00
C586   C     0.52335   0.49854   0.50063   0.00000  Uiso   1.00
C587   C     0.95905   0.54892   0.52960   0.00000  Uiso   1.00
C588   C     0.75235   0.59986   0.51522   0.00000  Uiso   1.00
C589   C     0.54095   0.45126   0.47084   0.00000  Uiso   1.00
C590   C     0.96457   0.41035   0.44176   0.00000  Uiso   1.00
C591   C     0.53546   0.59001   0.55813   0.00000  Uiso   1.00
C592   C     0.89233   0.58716   0.58085   0.00000  Uiso   1.00
C593   C     0.60765   0.41225   0.42029   0.00000  Uiso   1.00
C594   C     0.52469   0.35066   0.43598   0.00000  Uiso   1.00
C595   C     0.97476   0.64927   0.56678   0.00000  Uiso   1.00
C596   C     0.70017   0.65183   0.43474   0.00000  Uiso   1.00
C597   C     0.79991   0.34815   0.56521   0.00000  Uiso   1.00
C598   C     0.71239   0.43988   0.64254   0.00000  Uiso   1.00
C599   C     0.51071   0.40530   0.44703   0.00000  Uiso   1.00
C600   C     0.78763   0.56011   0.35746   0.00000  Uiso   1.00
C601   C     0.98924   0.59484   0.55386   0.00000  Uiso   1.00
C602   C     0.73927   0.34462   0.47916   0.00000  Uiso   1.00
C603   C     0.76078   0.65537   0.52083   0.00000  Uiso   1.00
C604   C     0.66459   0.49849   0.50019   0.00000  Uiso   1.00
C605   C     0.83541   0.50157   0.49982   0.00000  Uiso   1.00
C606   C     0.91209   0.54749   0.53474   0.00000  Uiso   1.00
Cu607  Cu    0.75500   0.50579   0.56146   0.00000  Uiso   1.00
Cu608  Cu    0.74499   0.49421   0.43854   0.00000  Uiso   1.00
H609   H     0.87898   0.42703   0.43949   0.00000  Uiso   1.00
H610   H     0.80542   0.33739   0.60873   0.00000  Uiso   1.00
H611   H     0.68506   0.44275   0.60961   0.00000  Uiso   1.00
H612   H     0.81500   0.55720   0.39032   0.00000  Uiso   1.00
H613   H     0.62109   0.57346   0.55985   0.00000  Uiso   1.00
H614   H     0.94140   0.37589   0.42162   0.00000  Uiso   1.00
H615   H     0.55862   0.62449   0.57826   0.00000  Uiso   1.00
H616   H     0.85983   0.60043   0.56986   0.00000  Uiso   1.00
H617   H     0.64034   0.39947   0.43139   0.00000  Uiso   1.00
H618   H     0.51281   0.60838   0.38825   0.00000  Uiso   1.00
H619   H     0.93253   0.36673   0.54339   0.00000  Uiso   1.00
H620   H     0.69470   0.66255   0.39119   0.00000  Uiso   1.00
N621   N     0.73744   0.48547   0.34617   0.00000  Uiso   1.00
N622   N     0.76255   0.51453   0.65383   0.00000  Uiso   1.00
O623   O     0.75325   0.42871   0.53992   0.00000  Uiso   1.00
O624   O     0.58844   0.39494   0.36910   0.00000  Uiso   1.00
O625   O     0.55577   0.34004   0.46851   0.00000  Uiso   1.00
O626   O     0.50064   0.64399   0.39057   0.00000  Uiso   1.00
O627   O     0.99506   0.35029   0.60796   0.00000  Uiso   1.00
O628   O     0.93921   0.66189   0.52998   0.00000  Uiso   1.00
O629   O     0.67236   0.62090   0.44780   0.00000  Uiso   1.00
O630   O     0.82767   0.37914   0.55217   0.00000  Uiso   1.00
O631   O     0.72011   0.39627   0.64951   0.00000  Uiso   1.00
O632   O     0.77989   0.60372   0.35052   0.00000  Uiso   1.00
O633   O     0.74674   0.57129   0.46008   0.00000  Uiso   1.00
O634   O     0.74480   0.41892   0.43612   0.00000  Uiso   1.00
O635   O     0.75520   0.58108   0.56388   0.00000  Uiso   1.00
O636   O     0.68935   0.50488   0.55191   0.00000  Uiso   1.00
O637   O     0.81064   0.49512   0.44809   0.00000  Uiso   1.00
O638   O     0.68090   0.49510   0.44810   0.00000  Uiso   1.00
O639   O     0.81910   0.50490   0.55190   0.00000  Uiso   1.00
O640   O     0.91129   0.60339   0.63235   0.00000  Uiso   1.00
C641   C     0.24768   0.73347   0.48477   0.00000  Uiso   1.00
C642   C     0.08790   0.78580   0.46580   0.00000  Uiso   1.00
C643   C     0.38381   0.83750   0.49910   0.00000  Uiso   1.00
C644   C     0.11621   0.82935   0.50093   0.00000  Uiso   1.00
C645   C     0.40147   0.79393   0.46479   0.00000  Uiso   1.00
C646   C     0.09857   0.87316   0.53480   0.00000  Uiso   1.00
C647   C     0.44758   0.79115   0.46757   0.00000  Uiso   1.00
C648   C     0.05246   0.87594   0.53214   0.00000  Uiso   1.00
C649   C     0.47667   0.83514   0.49936   0.00000  Uiso   1.00
C650   C     0.02335   0.83187   0.50063   0.00000  Uiso   1.00
C651   C     0.45905   0.88226   0.52960   0.00000  Uiso   1.00
C652   C     0.25235   0.93320   0.51522   0.00000  Uiso   1.00
C653   C     0.04095   0.78459   0.47084   0.00000  Uiso   1.00
C654   C     0.46457   0.74368   0.44176   0.00000  Uiso   1.00
C655   C     0.03546   0.92334   0.55813   0.00000  Uiso   1.00
C656   C     0.39233   0.92049   0.58085   0.00000  Uiso   1.00
C657   C     0.10765   0.74558   0.42029   0.00000  Uiso   1.00
C658   C     0.02469   0.68400   0.43598   0.00000  Uiso   1.00
C659   C     0.47476   0.98260   0.56678   0.00000  Uiso   1.00
C660   C     0.20017   0.98516   0.43474   0.00000  Uiso   1.00
C661   C     0.29991   0.68149   0.56521   0.00000  Uiso   1.00
C662   C     0.21239   0.77321   0.64254   0.00000  Uiso   1.00
C663   C     0.01071   0.73863   0.44703   0.00000  Uiso   1.00
C664   C     0.28763   0.89344   0.35746   0.00000  Uiso   1.00
C665   C     0.48924   0.92817   0.55386   0.00000  Uiso   1.00
C666   C     0.23927   0.67796   0.47916   0.00000  Uiso   1.00
C667   C     0.26078   0.98871   0.52083   0.00000  Uiso   1.00
C668   C     0.16459   0.83182   0.50019   0.00000  Uiso   1.00
C669   C     0.33541   0.83491   0.49982   0.00000  Uiso   1.00
C670   C     0.41209   0.88083   0.53474   0.00000  Uiso   1.00
Cu671  Cu    0.25500   0.83913   0.56146   0.00000  Uiso   1.00
Cu672  Cu    0.24499   0.82754   0.43854   0.00000  Uiso   1.00
H673   H     0.37898   0.76036   0.43949   0.00000  Uiso   1.00
H674   H     0.30542   0.67072   0.60873   0.00000  Uiso   1.00
H675   H     0.18506   0.77608   0.60961   0.00000  Uiso   1.00
H676   H     0.31500   0.89054   0.39032   0.00000  Uiso   1.00
H677   H     0.12109   0.90680   0.55985   0.00000  Uiso   1.00
H678   H     0.44140   0.70922   0.42162   0.00000  Uiso   1.00
H679   H     0.05862   0.95783   0.57826   0.00000  Uiso   1.00
H680   H     0.35983   0.93377   0.56986   0.00000  Uiso   1.00
H681   H     0.14034   0.73280   0.43139   0.00000  Uiso   1.00
H682   H     0.01281   0.94172   0.38825   0.00000  Uiso   1.00
H683   H     0.43253   0.70007   0.54339   0.00000  Uiso   1.00
H684   H     0.19470   0.99588   0.39119   0.00000  Uiso   1.00
N685   N     0.23744   0.81881   0.34617   0.00000  Uiso   1.00
N686   N     0.26255   0.84786   0.65383   0.00000  Uiso   1.00
O687   O     0.25325   0.76204   0.53992   0.00000  Uiso   1.00
O688   O     0.08844   0.72827   0.36910   0.00000  Uiso   1.00
O689   O     0.05577   0.67337   0.46851   0.00000  Uiso   1.00
O690   O     0.00064   0.97733   0.39057   0.00000  Uiso   1.00
O691   O     0.49506   0.68363   0.60796   0.00000  Uiso   1.00
O692   O     0.43921   0.99522   0.52998   0.00000  Uiso   1.00
O693   O     0.17236   0.95423   0.44780   0.00000  Uiso   1.00
O694   O     0.32767   0.71247   0.55217   0.00000  Uiso   1.00
O695   O     0.22011   0.72961   0.64951   0.00000  Uiso   1.00
O696   O     0.27989   0.93706   0.35052   0.00000  Uiso   1.00
O697   O     0.24674   0.90462   0.46008   0.00000  Uiso   1.00
O698   O     0.24480   0.75226   0.43612   0.00000  Uiso   1.00
O699   O     0.25520   0.91441   0.56388   0.00000  Uiso   1.00
O700   O     0.18935   0.83821   0.55191   0.00000  Uiso   1.00
O701   O     0.31064   0.82845   0.44809   0.00000  Uiso   1.00
O702   O     0.18090   0.82843   0.44810   0.00000  Uiso   1.00
O703   O     0.31910   0.83824   0.55190   0.00000  Uiso   1.00
O704   O     0.41129   0.93672   0.63235   0.00000  Uiso   1.00
C705   C     0.74768   0.73347   0.48477   0.00000  Uiso   1.00
C706   C     0.58790   0.78580   0.46580   0.00000  Uiso   1.00
C707   C     0.88381   0.83750   0.49910   0.00000  Uiso   1.00
C708   C     0.61621   0.82935   0.50093   0.00000  Uiso   1.00
C709   C     0.90147   0.79393   0.46479   0.00000  Uiso   1.00
C710   C     0.59857   0.87316   0.53480   0.00000  Uiso   1.00
C711   C     0.94758   0.79115   0.46757   0.00000  Uiso   1.00
C712   C     0.55246   0.87594   0.53214   0.00000  Uiso   1.00
C713   C     0.97667   0.83514   0.49936   0.00000  Uiso   1.00
C714   C     0.52335   0.83187   0.50063   0.00000  Uiso   1.00
C715   C     0.95905   0.88226   0.52960   0.00000  Uiso   1.00
C716   C     0.75235   0.93320   0.51522   0.00000  Uiso   1.00
C717   C     0.54095   0.78459   0.47084   0.00000  Uiso   1.00
C718   C     0.96457   0.74368   0.44176   0.00000  Uiso   1.00
C719   C     0.53546   0.92334   0.55813   0.00000  Uiso   1.00
C720   C     0.89233   0.92049   0.58085   0.00000  Uiso   1.00
C721   C     0.60765   0.74558   0.42029   0.00000  Uiso   1.00
C722   C     0.52469   0.68400   0.43598   0.00000  Uiso   1.00
C723   C     0.97476   0.98260   0.56678   0.00000  Uiso   1.00
C724   C     0.70017   0.98516   0.43474   0.00000  Uiso   1.00
C725   C     0.79991   0.68149   0.56521   0.00000  Uiso   1.00
C726   C     0.71239   0.77321   0.64254   0.00000  Uiso   1.00
C727   C     0.51071   0.73863   0.44703   0.00000  Uiso   1.00
C728   C     0.78763   0.89344   0.35746   0.00000  Uiso   1.00
C729   C     0.98924   0.92817   0.55386   0.00000  Uiso   1.00
C730   C     0.73927   0.67796   0.47916   0.00000  Uiso   1.00
C731   C     0.76078   0.98871   0.52083   0.00000  Uiso   1.00
C732   C     0.66459   0.83182   0.50019   0.00000  Uiso   1.00
C733   C     0.83541   0.83491   0.49982   0.00000  Uiso   1.00
C734   C     0.91209   0.88083   0.53474   0.00000  Uiso   1.00
Cu735  Cu    0.75500   0.83913   0.56146   0.00000  Uiso   1.00
Cu736  Cu    0.74499   0.82754   0.43854   0.00000  Uiso   1.00
H737   H     0.87898   0.76036   0.43949   0.00000  Uiso   1.00
H738   H     0.80542   0.67072   0.60873   0.00000  Uiso   1.00
H739   H     0.68506   0.77608   0.60961   0.00000  Uiso   1.00
H740   H     0.81500   0.89054   0.39032   0.00000  Uiso   1.00
H741   H     0.62109   0.90680   0.55985   0.00000  Uiso   1.00
H742   H     0.94140   0.70922   0.42162   0.00000  Uiso   1.00
H743   H     0.55862   0.95783   0.57826   0.00000  Uiso   1.00
H744   H     0.85983   0.93377   0.56986   0.00000  Uiso   1.00
H745   H     0.64034   0.73280   0.43139   0.00000  Uiso   1.00
H746   H     0.51281   0.94172   0.38825   0.00000  Uiso   1.00
H747   H     0.93253   0.70007   0.54339   0.00000  Uiso   1.00
H748   H     0.69470   0.99588   0.39119   0.00000  Uiso   1.00
N749   N     0.73744   0.81881   0.34617   0.00000  Uiso   1.00
N750   N     0.76255   0.84786   0.65383   0.00000  Uiso   1.00
O751   O     0.75325   0.76204   0.53992   0.00000  Uiso   1.00
O752   O     0.58844   0.72827   0.36910   0.00000  Uiso   1.00
O753   O     0.55577   0.67337   0.46851   0.00000  Uiso   1.00
O754   O     0.50064   0.97733   0.39057   0.00000  Uiso   1.00
O755   O     0.99506   0.68363   0.60796   0.00000  Uiso   1.00
O756   O     0.93921   0.99522   0.52998   0.00000  Uiso   1.00
O757   O     0.67236   0.95423   0.44780   0.00000  Uiso   1.00
O758   O     0.82767   0.71247   0.55217   0.00000  Uiso   1.00
O759   O     0.72011   0.72961   0.64951   0.00000  Uiso   1.00
O760   O     0.77989   0.93706   0.35052   0.00000  Uiso   1.00
O761   O     0.74674   0.90462   0.46008   0.00000  Uiso   1.00
O762   O     0.74480   0.75226   0.43612   0.00000  Uiso   1.00
O763   O     0.75520   0.91441   0.56388   0.00000  Uiso   1.00
O764   O     0.68935   0.83821   0.55191   0.00000  Uiso   1.00
O765   O     0.81064   0.82845   0.44809   0.00000  Uiso   1.00
O766   O     0.68090   0.82843   0.44810   0.00000  Uiso   1.00
O767   O     0.81910   0.83824   0.55190   0.00000  Uiso   1.00
O768   O     0.91129   0.93672   0.63235   0.00000  Uiso   1.00
C769   C     0.24768   0.06680   0.81811   0.00000  Uiso   1.00
C770   C     0.08790   0.11914   0.79914   0.00000  Uiso   1.00
C771   C     0.38381   0.17083   0.83243   0.00000  Uiso   1.00
C772   C     0.11621   0.16268   0.83426   0.00000  Uiso   1.00
C773   C     0.40147   0.12726   0.79812   0.00000  Uiso   1.00
C774   C     0.09857   0.20649   0.86813   0.00000  Uiso   1.00
C775   C     0.44758   0.12448   0.80090   0.00000  Uiso   1.00
C776   C     0.05246   0.20927   0.86547   0.00000  Uiso   1.00
C777   C     0.47667   0.16848   0.83269   0.00000  Uiso   1.00
C778   C     0.02335   0.16521   0.83396   0.00000  Uiso   1.00
C779   C     0.45905   0.21559   0.86294   0.00000  Uiso   1.00
C780   C     0.25235   0.26653   0.84856   0.00000  Uiso   1.00
C781   C     0.04095   0.11792   0.80418   0.00000  Uiso   1.00
C782   C     0.46457   0.07701   0.77510   0.00000  Uiso   1.00
C783   C     0.03546   0.25667   0.89147   0.00000  Uiso   1.00
C784   C     0.39233   0.25383   0.91418   0.00000  Uiso   1.00
C785   C     0.10765   0.07891   0.75362   0.00000  Uiso   1.00
C786   C     0.02469   0.01733   0.76931   0.00000  Uiso   1.00
C787   C     0.47476   0.31594   0.90012   0.00000  Uiso   1.00
C788   C     0.20017   0.31850   0.76807   0.00000  Uiso   1.00
C789   C     0.29991   0.01482   0.89855   0.00000  Uiso   1.00
C790   C     0.21239   0.10654   0.97587   0.00000  Uiso   1.00
C791   C     0.01071   0.07197   0.78037   0.00000  Uiso   1.00
C792   C     0.28763   0.22677   0.69079   0.00000  Uiso   1.00
C793   C     0.48924   0.26151   0.88719   0.00000  Uiso   1.00
C794   C     0.23927   0.01129   0.81249   0.00000  Uiso   1.00
C795   C     0.26078   0.32204   0.85416   0.00000  Uiso   1.00
C796   C     0.16459   0.16515   0.83352   0.00000  Uiso   1.00
C797   C     0.33541   0.16824   0.83316   0.00000  Uiso   1.00
C798   C     0.41209   0.21416   0.86807   0.00000  Uiso   1.00
Cu799  Cu    0.25500   0.17246   0.89479   0.00000  Uiso   1.00
Cu800  Cu    0.24499   0.16087   0.77187   0.00000  Uiso   1.00
H801   H     0.37898   0.09370   0.77282   0.00000  Uiso   1.00
H802   H     0.30542   0.00405   0.94206   0.00000  Uiso   1.00
H803   H     0.18506   0.10942   0.94294   0.00000  Uiso   1.00
H804   H     0.31500   0.22387   0.72365   0.00000  Uiso   1.00
H805   H     0.12109   0.24013   0.89318   0.00000  Uiso   1.00
H806   H     0.44140   0.04255   0.75495   0.00000  Uiso   1.00
H807   H     0.05862   0.29116   0.91159   0.00000  Uiso   1.00
H808   H     0.35983   0.26710   0.90320   0.00000  Uiso   1.00
H809   H     0.14034   0.06614   0.76473   0.00000  Uiso   1.00
H810   H     0.01281   0.27505   0.72158   0.00000  Uiso   1.00
H811   H     0.43253   0.03340   0.87672   0.00000  Uiso   1.00
H812   H     0.19470   0.32921   0.72452   0.00000  Uiso   1.00
N813   N     0.23744   0.15214   0.67951   0.00000  Uiso   1.00
N814   N     0.26255   0.18119   0.98716   0.00000  Uiso   1.00
O815   O     0.25325   0.09538   0.87326   0.00000  Uiso   1.00
O816   O     0.08844   0.06161   0.70243   0.00000  Uiso   1.00
O817   O     0.05577   0.00670   0.80184   0.00000  Uiso   1.00
O818   O     0.00064   0.31066   0.72390   0.00000  Uiso   1.00
O819   O     0.49506   0.01696   0.94129   0.00000  Uiso   1.00
O820   O     0.43921   0.32856   0.86331   0.00000  Uiso   1.00
O821   O     0.17236   0.28757   0.78113   0.00000  Uiso   1.00
O822   O     0.32767   0.04580   0.88550   0.00000  Uiso   1.00
O823   O     0.22011   0.06294   0.98285   0.00000  Uiso   1.00
O824   O     0.27989   0.27039   0.68386   0.00000  Uiso   1.00
O825   O     0.24674   0.23796   0.79341   0.00000  Uiso   1.00
O826   O     0.24480   0.08559   0.76945   0.00000  Uiso   1.00
O827   O     0.25520   0.24774   0.89721   0.00000  Uiso   1.00
O828   O     0.18935   0.17155   0.88524   0.00000  Uiso   1.00
O829   O     0.31064   0.16179   0.78143   0.00000  Uiso   1.00
O830   O     0.18090   0.16176   0.78143   0.00000  Uiso   1.00
O831   O     0.31910   0.17157   0.88523   0.00000  Uiso   1.00
O832   O     0.41129   0.27006   0.96568   0.00000  Uiso   1.00
C833   C     0.74768   0.06680   0.81811   0.00000  Uiso   1.00
C834   C     0.58790   0.11914   0.79914   0.00000  Uiso   1.00
C835   C     0.88381   0.17083   0.83243   0.00000  Uiso   1.00
C836   C     0.61621   0.16268   0.83426   0.00000  Uiso   1.00
C837   C     0.90147   0.12726   0.79812   0.00000  Uiso   1.00
C838   C     0.59857   0.20649   0.86813   0.00000  Uiso   1.00
C839   C     0.94758   0.12448   0.80090   0.00000  Uiso   1.00
C840   C     0.55246   0.20927   0.86547   0.00000  Uiso   1.00
C841   C     0.97667   0.16848   0.83269   0.00000  Uiso   1.00
C842   C     0.52335   0.16521   0.83396   0.00000  Uiso   1.00
C843   C     0.95905   0.21559   0.86294   0.00000  Uiso   1.00
C844   C     0.75235   0.26653   0.84856   0.00000  Uiso   1.00
C845   C     0.54095   0.11792   0.80418   0.00000  Uiso   1.00
C846   C     0.96457   0.07701   0.77510   0.00000  Uiso   1.00
C847   C     0.53546   0.25667   0.89147   0.00000  Uiso   1.00
C848   C     0.89233   0.25383   0.91418   0.00000  Uiso   1.00
C849   C     0.60765   0.07891   0.75362   0.00000  Uiso   1.00
C850   C     0.52469   0.01733   0.76931   0.00000  Uiso   1.00
C851   C     0.97476   0.31594   0.90012   0.00000  Uiso   1.00
C852   C     0.70017   0.31850   0.76807   0.00000  Uiso   1.00
C853   C     0.79991   0.01482   0.89855   0.00000  Uiso   1.00
C854   C     0.71239   0.10654   0.97587   0.00000  Uiso   1.00
C855   C     0.51071   0.07197   0.78037   0.00000  Uiso   1.00
C856   C     0.78763   0.22677   0.69079   0.00000  Uiso   1.00
C857   C     0.98924   0.26151   0.88719   0.00000  Uiso   1.00
C858   C     0.73927   0.01129   0.81249   0.00000  Uiso   1.00
C859   C     0.76078   0.32204   0.85416   0.00000  Uiso   1.00
C860   C     0.66459   0.16515   0.83352   0.00000  Uiso   1.00
C861   C     0.83541   0.16824   0.83316   0.00000  Uiso   1.00
C862   C     0.91209   0.21416   0.86807   0.00000  Uiso   1.00
Cu863  Cu    0.75500   0.17246   0.89479   0.00000  Uiso   1.00
Cu864  Cu    0.74499   0.16087   0.77187   0.00000  Uiso   1.00
H865   H     0.87898   0.09370   0.77282   0.00000  Uiso   1.00
H866   H     0.80542   0.00405   0.94206   0.00000  Uiso   1.00
H867   H     0.68506   0.10942   0.94294   0.00000  Uiso   1.00
H868   H     0.81500   0.22387   0.72365   0.00000  Uiso   1.00
H869   H     0.62109   0.24013   0.89318   0.00000  Uiso   1.00
H870   H     0.94140   0.04255   0.75495   0.00000  Uiso   1.00
H871   H     0.55862   0.29116   0.91159   0.00000  Uiso   1.00
H872   H     0.85983   0.26710   0.90320   0.00000  Uiso   1.00
H873   H     0.64034   0.06614   0.76473   0.00000  Uiso   1.00
H874   H     0.51281   0.27505   0.72158   0.00000  Uiso   1.00
H875   H     0.93253   0.03340   0.87672   0.00000  Uiso   1.00
H876   H     0.69470   0.32921   0.72452   0.00000  Uiso   1.00
N877   N     0.73744   0.15214   0.67951   0.00000  Uiso   1.00
N878   N     0.76255   0.18119   0.98716   0.00000  Uiso   1.00
O879   O     0.75325   0.09538   0.87326   0.00000  Uiso   1.00
O880   O     0.58844   0.06161   0.70243   0.00000  Uiso   1.00
O881   O     0.55577   0.00670   0.80184   0.00000  Uiso   1.00
O882   O     0.50064   0.31066   0.72390   0.00000  Uiso   1.00
O883   O     0.99506   0.01696   0.94129   0.00000  Uiso   1.00
O884   O     0.93921   0.32856   0.86331   0.00000  Uiso   1.00
O885   O     0.67236   0.28757   0.78113   0.00000  Uiso   1.00
O886   O     0.82767   0.04580   0.88550   0.00000  Uiso   1.00
O887   O     0.72011   0.06294   0.98285   0.00000  Uiso   1.00
O888   O     0.77989   0.27039   0.68386   0.00000  Uiso   1.00
O889   O     0.74674   0.23796   0.79341   0.00000  Uiso   1.00
O890   O     0.74480   0.08559   0.76945   0.00000  Uiso   1.00
O891   O     0.75520   0.24774   0.89721   0.00000  Uiso   1.00
O892   O     0.68935   0.17155   0.88524   0.00000  Uiso   1.00
O893   O     0.81064   0.16179   0.78143   0.00000  Uiso   1.00
O894   O     0.68090   0.16176   0.78143   0.00000  Uiso   1.00
O895   O     0.81910   0.17157   0.88523   0.00000  Uiso   1.00
O896   O     0.91129   0.27006   0.96568   0.00000  Uiso   1.00
C897   C     0.24768   0.40014   0.81811   0.00000  Uiso   1.00
C898   C     0.08790   0.45247   0.79914   0.00000  Uiso   1.00
C899   C     0.38381   0.50416   0.83243   0.00000  Uiso   1.00
C900   C     0.11621   0.49601   0.83426   0.00000  Uiso   1.00
C901   C     0.40147   0.46059   0.79812   0.00000  Uiso   1.00
C902   C     0.09857   0.53983   0.86813   0.00000  Uiso   1.00
C903   C     0.44758   0.45781   0.80090   0.00000  Uiso   1.00
C904   C     0.05246   0.54260   0.86547   0.00000  Uiso   1.00
C905   C     0.47667   0.50181   0.83269   0.00000  Uiso   1.00
C906   C     0.02335   0.49854   0.83396   0.00000  Uiso   1.00
C907   C     0.45905   0.54892   0.86294   0.00000  Uiso   1.00
C908   C     0.25235   0.59986   0.84856   0.00000  Uiso   1.00
C909   C     0.04095   0.45126   0.80418   0.00000  Uiso   1.00
C910   C     0.46457   0.41035   0.77510   0.00000  Uiso   1.00
C911   C     0.03546   0.59001   0.89147   0.00000  Uiso   1.00
C912   C     0.39233   0.58716   0.91418   0.00000  Uiso   1.00
C913   C     0.10765   0.41225   0.75362   0.00000  Uiso   1.00
C914   C     0.02469   0.35066   0.76931   0.00000  Uiso   1.00
C915   C     0.47476   0.64927   0.90012   0.00000  Uiso   1.00
C916   C     0.20017   0.65183   0.76807   0.00000  Uiso   1.00
C917   C     0.29991   0.34815   0.89855   0.00000  Uiso   1.00
C918   C     0.21239   0.43988   0.97587   0.00000  Uiso   1.00
C919   C     0.01071   0.40530   0.78037   0.00000  Uiso   1.00
C920   C     0.28763   0.56011   0.69079   0.00000  Uiso   1.00
C921   C     0.48924   0.59484   0.88719   0.00000  Uiso   1.00
C922   C     0.23927   0.34462   0.81249   0.00000  Uiso   1.00
C923   C     0.26078   0.65537   0.85416   0.00000  Uiso   1.00
C924   C     0.16459   0.49849   0.83352   0.00000  Uiso   1.00
C925   C     0.33541   0.50157   0.83316   0.00000  Uiso   1.00
C926   C     0.41209   0.54749   0.86807   0.00000  Uiso   1.00
Cu927  Cu    0.25500   0.50579   0.89479   0.00000  Uiso   1.00
Cu928  Cu    0.24499   0.49421   0.77187   0.00000  Uiso   1.00
H929   H     0.37898   0.42703   0.77282   0.00000  Uiso   1.00
H930   H     0.30542   0.33739   0.94206   0.00000  Uiso   1.00
H931   H     0.18506   0.44275   0.94294   0.00000  Uiso   1.00
H932   H     0.31500   0.55720   0.72365   0.00000  Uiso   1.00
H933   H     0.12109   0.57346   0.89318   0.00000  Uiso   1.00
H934   H     0.44140   0.37589   0.75495   0.00000  Uiso   1.00
H935   H     0.05862   0.62449   0.91159   0.00000  Uiso   1.00
H936   H     0.35983   0.60043   0.90320   0.00000  Uiso   1.00
H937   H     0.14034   0.39947   0.76473   0.00000  Uiso   1.00
H938   H     0.01281   0.60838   0.72158   0.00000  Uiso   1.00
H939   H     0.43253   0.36673   0.87672   0.00000  Uiso   1.00
H940   H     0.19470   0.66255   0.72452   0.00000  Uiso   1.00
N941   N     0.23744   0.48547   0.67951   0.00000  Uiso   1.00
N942   N     0.26255   0.51453   0.98716   0.00000  Uiso   1.00
O943   O     0.25325   0.42871   0.87326   0.00000  Uiso   1.00
O944   O     0.08844   0.39494   0.70243   0.00000  Uiso   1.00
O945   O     0.05577   0.34004   0.80184   0.00000  Uiso   1.00
O946   O     0.00064   0.64399   0.72390   0.00000  Uiso   1.00
O947   O     0.49506   0.35029   0.94129   0.00000  Uiso   1.00
O948   O     0.43921   0.66189   0.86331   0.00000  Uiso   1.00
O949   O     0.17236   0.62090   0.78113   0.00000  Uiso   1.00
O950   O     0.32767   0.37914   0.88550   0.00000  Uiso   1.00
O951   O     0.22011   0.39627   0.98285   0.00000  Uiso   1.00
O952   O     0.27989   0.60372   0.68386   0.00000  Uiso   1.00
O953   O     0.24674   0.57129   0.79341   0.00000  Uiso   1.00
O954   O     0.24480   0.41892   0.76945   0.00000  Uiso   1.00
O955   O     0.25520   0.58108   0.89721   0.00000  Uiso   1.00
O956   O     0.18935   0.50488   0.88524   0.00000  Uiso   1.00
O957   O     0.31064   0.49512   0.78143   0.00000  Uiso   1.00
O958   O     0.18090   0.49510   0.78143   0.00000  Uiso   1.00
O959   O     0.31910   0.50490   0.88523   0.00000  Uiso   1.00
O960   O     0.41129   0.60339   0.96568   0.00000  Uiso   1.00
C961   C     0.74768   0.40014   0.81811   0.00000  Uiso   1.00
C962   C     0.58790   0.45247   0.79914   0.00000  Uiso   1.00
C963   C     0.88381   0.50416   0.83243   0.00000  Uiso   1.00
C964   C     0.61621   0.49601   0.83426   0.00000  Uiso   1.00
C965   C     0.90147   0.46059   0.79812   0.00000  Uiso   1.00
C966   C     0.59857   0.53983   0.86813   0.00000  Uiso   1.00
C967   C     0.94758   0.45781   0.80090   0.00000  Uiso   1.00
C968   C     0.55246   0.54260   0.86547   0.00000  Uiso   1.00
C969   C     0.97667   0.50181   0.83269   0.00000  Uiso   1.00
C970   C     0.52335   0.49854   0.83396   0.00000  Uiso   1.00
C971   C     0.95905   0.54892   0.86294   0.00000  Uiso   1.00
C972   C     0.75235   0.59986   0.84856   0.00000  Uiso   1.00
C973   C     0.54095   0.45126   0.80418   0.00000  Uiso   1.00
C974   C     0.96457   0.41035   0.77510   0.00000  Uiso   1.00
C975   C     0.53546   0.59001   0.89147   0.00000  Uiso   1.00
C976   C     0.89233   0.58716   0.91418   0.00000  Uiso   1.00
C977   C     0.60765   0.41225   0.75362   0.00000  Uiso   1.00
C978   C     0.52469   0.35066   0.76931   0.00000  Uiso   1.00
C979   C     0.97476   0.64927   0.90012   0.00000  Uiso   1.00
C980   C     0.70017   0.65183   0.76807   0.00000  Uiso   1.00
C981   C     0.79991   0.34815   0.89855   0.00000  Uiso   1.00
C982   C     0.71239   0.43988   0.97587   0.00000  Uiso   1.00
C983   C     0.51071   0.40530   0.78037   0.00000  Uiso   1.00
C984   C     0.78763   0.56011   0.69079   0.00000  Uiso   1.00
C985   C     0.98924   0.59484   0.88719   0.00000  Uiso   1.00
C986   C     0.73927   0.34462   0.81249   0.00000  Uiso   1.00
C987   C     0.76078   0.65537   0.85416   0.00000  Uiso   1.00
C988   C     0.66459   0.49849   0.83352   0.00000  Uiso   1.00
C989   C     0.83541   0.50157   0.83316   0.00000  Uiso   1.00
C990   C     0.91209   0.54749   0.86807   0.00000  Uiso   1.00
Cu991  Cu    0.75500   0.50579   0.89479   0.00000  Uiso   1.00
Cu992  Cu    0.74499   0.49421   0.77187   0.00000  Uiso   1.00
H993   H     0.87898   0.42703   0.77282   0.00000  Uiso   1.00
H994   H     0.80542   0.33739   0.94206   0.00000  Uiso   1.00
H995   H     0.68506   0.44275   0.94294   0.00000  Uiso   1.00
H996   H     0.81500   0.55720   0.72365   0.00000  Uiso   1.00
H997   H     0.62109   0.57346   0.89318   0.00000  Uiso   1.00
H998   H     0.94140   0.37589   0.75495   0.00000  Uiso   1.00
H999   H     0.55862   0.62449   0.91159   0.00000  Uiso   1.00
H1000  H     0.85983   0.60043   0.90320   0.00000  Uiso   1.00
H1001  H     0.64034   0.39947   0.76473   0.00000  Uiso   1.00
H1002  H     0.51281   0.60838   0.72158   0.00000  Uiso   1.00
H1003  H     0.93253   0.36673   0.87672   0.00000  Uiso   1.00
H1004  H     0.69470   0.66255   0.72452   0.00000  Uiso   1.00
N1005  N     0.73744   0.48547   0.67951   0.00000  Uiso   1.00
N1006  N     0.76255   0.51453   0.98716   0.00000  Uiso   1.00
O1007  O     0.75325   0.42871   0.87326   0.00000  Uiso   1.00
O1008  O     0.58844   0.39494   0.70243   0.00000  Uiso   1.00
O1009  O     0.55577   0.34004   0.80184   0.00000  Uiso   1.00
O1010  O     0.50064   0.64399   0.72390   0.00000  Uiso   1.00
O1011  O     0.99506   0.35029   0.94129   0.00000  Uiso   1.00
O1012  O     0.93921   0.66189   0.86331   0.00000  Uiso   1.00
O1013  O     0.67236   0.62090   0.78113   0.00000  Uiso   1.00
O1014  O     0.82767   0.37914   0.88550   0.00000  Uiso   1.00
O1015  O     0.72011   0.39627   0.98285   0.00000  Uiso   1.00
O1016  O     0.77989   0.60372   0.68386   0.00000  Uiso   1.00
O1017  O     0.74674   0.57129   0.79341   0.00000  Uiso   1.00
O1018  O     0.74480   0.41892   0.76945   0.00000  Uiso   1.00
O1019  O     0.75520   0.58108   0.89721   0.00000  Uiso   1.00
O1020  O     0.68935   0.50488   0.88524   0.00000  Uiso   1.00
O1021  O     0.81064   0.49512   0.78143   0.00000  Uiso   1.00
O1022  O     0.68090   0.49510   0.78143   0.00000  Uiso   1.00
O1023  O     0.81910   0.50490   0.88523   0.00000  Uiso   1.00
O1024  O     0.91129   0.60339   0.96568   0.00000  Uiso   1.00
C1025  C     0.24768   0.73347   0.81811   0.00000  Uiso   1.00
C1026  C     0.08790   0.78580   0.79914   0.00000  Uiso   1.00
C1027  C     0.38381   0.83750   0.83243   0.00000  Uiso   1.00
C1028  C     0.11621   0.82935   0.83426   0.00000  Uiso   1.00
C1029  C     0.40147   0.79393   0.79812   0.00000  Uiso   1.00
C1030  C     0.09857   0.87316   0.86813   0.00000  Uiso   1.00
C1031  C     0.44758   0.79115   0.80090   0.00000  Uiso   1.00
C1032  C     0.05246   0.87594   0.86547   0.00000  Uiso   1.00
C1033  C     0.47667   0.83514   0.83269   0.00000  Uiso   1.00
C1034  C     0.02335   0.83187   0.83396   0.00000  Uiso   1.00
C1035  C     0.45905   0.88226   0.86294   0.00000  Uiso   1.00
C1036  C     0.25235   0.93320   0.84856   0.00000  Uiso   1.00
C1037  C     0.04095   0.78459   0.80418   0.00000  Uiso   1.00
C1038  C     0.46457   0.74368   0.77510   0.00000  Uiso   1.00
C1039  C     0.03546   0.92334   0.89147   0.00000  Uiso   1.00
C1040  C     0.39233   0.92049   0.91418   0.00000  Uiso   1.00
C1041  C     0.10765   0.74558   0.75362   0.00000  Uiso   1.00
C1042  C     0.02469   0.68400   0.76931   0.00000  Uiso   1.00
C1043  C     0.47476   0.98260   0.90012   0.00000  Uiso   1.00
C1044  C     0.20017   0.98516   0.76807   0.00000  Uiso   1.00
C1045  C     0.29991   0.68149   0.89855   0.00000  Uiso   1.00
C1046  C     0.21239   0.77321   0.97587   0.00000  Uiso   1.00
C1047  C     0.01071   0.73863   0.78037   0.00000  Uiso   1.00
C1048  C     0.28763   0.89344   0.69079   0.00000  Uiso   1.00
C1049  C     0.48924   0.92817   0.88719   0.00000  Uiso   1.00
C1050  C     0.23927   0.67796   0.81249   0.00000  Uiso   1.00
C1051  C     0.26078   0.98871   0.85416   0.00000  Uiso   1.00
C1052  C     0.16459   0.83182   0.83352   0.00000  Uiso   1.00
C1053  C     0.33541   0.83491   0.83316   0.00000  Uiso   1.00
C1054  C     0.41209   0.88083   0.86807   0.00000  Uiso   1.00
Cu1055 Cu    0.25500   0.83913   0.89479   0.00000  Uiso   1.00
Cu1056 Cu    0.24499   0.82754   0.77187   0.00000  Uiso   1.00
H1057  H     0.37898   0.76036   0.77282   0.00000  Uiso   1.00
H1058  H     0.30542   0.67072   0.94206   0.00000  Uiso   1.00
H1059  H     0.18506   0.77608   0.94294   0.00000  Uiso   1.00
H1060  H     0.31500   0.89054   0.72365   0.00000  Uiso   1.00
H1061  H     0.12109   0.90680   0.89318   0.00000  Uiso   1.00
H1062  H     0.44140   0.70922   0.75495   0.00000  Uiso   1.00
H1063  H     0.05862   0.95783   0.91159   0.00000  Uiso   1.00
H1064  H     0.35983   0.93377   0.90320   0.00000  Uiso   1.00
H1065  H     0.14034   0.73280   0.76473   0.00000  Uiso   1.00
H1066  H     0.01281   0.94172   0.72158   0.00000  Uiso   1.00
H1067  H     0.43253   0.70007   0.87672   0.00000  Uiso   1.00
H1068  H     0.19470   0.99588   0.72452   0.00000  Uiso   1.00
N1069  N     0.23744   0.81881   0.67951   0.00000  Uiso   1.00
N1070  N     0.26255   0.84786   0.98716   0.00000  Uiso   1.00
O1071  O     0.25325   0.76204   0.87326   0.00000  Uiso   1.00
O1072  O     0.08844   0.72827   0.70243   0.00000  Uiso   1.00
O1073  O     0.05577   0.67337   0.80184   0.00000  Uiso   1.00
O1074  O     0.00064   0.97733   0.72390   0.00000  Uiso   1.00
O1075  O     0.49506   0.68363   0.94129   0.00000  Uiso   1.00
O1076  O     0.43921   0.99522   0.86331   0.00000  Uiso   1.00
O1077  O     0.17236   0.95423   0.78113   0.00000  Uiso   1.00
O1078  O     0.32767   0.71247   0.88550   0.00000  Uiso   1.00
O1079  O     0.22011   0.72961   0.98285   0.00000  Uiso   1.00
O1080  O     0.27989   0.93706   0.68386   0.00000  Uiso   1.00
O1081  O     0.24674   0.90462   0.79341   0.00000  Uiso   1.00
O1082  O     0.24480   0.75226   0.76945   0.00000  Uiso   1.00
O1083  O     0.25520   0.91441   0.89721   0.00000  Uiso   1.00
O1084  O     0.18935   0.83821   0.88524   0.00000  Uiso   1.00
O1085  O     0.31064   0.82845   0.78143   0.00000  Uiso   1.00
O1086  O     0.18090   0.82843   0.78143   0.00000  Uiso   1.00
O1087  O     0.31910   0.83824   0.88523   0.00000  Uiso   1.00
O1088  O     0.41129   0.93672   0.96568   0.00000  Uiso   1.00
C1089  C     0.74768   0.73347   0.81811   0.00000  Uiso   1.00
C1090  C     0.58790   0.78580   0.79914   0.00000  Uiso   1.00
C1091  C     0.88381   0.83750   0.83243   0.00000  Uiso   1.00
C1092  C     0.61621   0.82935   0.83426   0.00000  Uiso   1.00
C1093  C     0.90147   0.79393   0.79812   0.00000  Uiso   1.00
C1094  C     0.59857   0.87316   0.86813   0.00000  Uiso   1.00
C1095  C     0.94758   0.79115   0.80090   0.00000  Uiso   1.00
C1096  C     0.55246   0.87594   0.86547   0.00000  Uiso   1.00
C1097  C     0.97667   0.83514   0.83269   0.00000  Uiso   1.00
C1098  C     0.52335   0.83187   0.83396   0.00000  Uiso   1.00
C1099  C     0.95905   0.88226   0.86294   0.00000  Uiso   1.00
C1100  C     0.75235   0.93320   0.84856   0.00000  Uiso   1.00
C1101  C     0.54095   0.78459   0.80418   0.00000  Uiso   1.00
C1102  C     0.96457   0.74368   0.77510   0.00000  Uiso   1.00
C1103  C     0.53546   0.92334   0.89147   0.00000  Uiso   1.00
C1104  C     0.89233   0.92049   0.91418   0.00000  Uiso   1.00
C1105  C     0.60765   0.74558   0.75362   0.00000  Uiso   1.00
C1106  C     0.52469   0.68400   0.76931   0.00000  Uiso   1.00
C1107  C     0.97476   0.98260   0.90012   0.00000  Uiso   1.00
C1108  C     0.70017   0.98516   0.76807   0.00000  Uiso   1.00
C1109  C     0.79991   0.68149   0.89855   0.00000  Uiso   1.00
C1110  C     0.71239   0.77321   0.97587   0.00000  Uiso   1.00
C1111  C     0.51071   0.73863   0.78037   0.00000  Uiso   1.00
C1112  C     0.78763   0.89344   0.69079   0.00000  Uiso   1.00
C1113  C     0.98924   0.92817   0.88719   0.00000  Uiso   1.00
C1114  C     0.73927   0.67796   0.81249   0.00000  Uiso   1.00
C1115  C     0.76078   0.98871   0.85416   0.00000  Uiso   1.00
C1116  C     0.66459   0.83182   0.83352   0.00000  Uiso   1.00
C1117  C     0.83541   0.83491   0.83316   0.00000  Uiso   1.00
C1118  C     0.91209   0.88083   0.86807   0.00000  Uiso   1.00
Cu1119 Cu    0.75500   0.83913   0.89479   0.00000  Uiso   1.00
Cu1120 Cu    0.74499   0.82754   0.77187   0.00000  Uiso   1.00
H1121  H     0.87898   0.76036   0.77282   0.00000  Uiso   1.00
H1122  H     0.80542   0.67072   0.94206   0.00000  Uiso   1.00
H1123  H     0.68506   0.77608   0.94294   0.00000  Uiso   1.00
H1124  H     0.81500   0.89054   0.72365   0.00000  Uiso   1.00
H1125  H     0.62109   0.90680   0.89318   0.00000  Uiso   1.00
H1126  H     0.94140   0.70922   0.75495   0.00000  Uiso   1.00
H1127  H     0.55862   0.95783   0.91159   0.00000  Uiso   1.00
H1128  H     0.85983   0.93377   0.90320   0.00000  Uiso   1.00
H1129  H     0.64034   0.73280   0.76473   0.00000  Uiso   1.00
H1130  H     0.51281   0.94172   0.72158   0.00000  Uiso   1.00
H1131  H     0.93253   0.70007   0.87672   0.00000  Uiso   1.00
H1132  H     0.69470   0.99588   0.72452   0.00000  Uiso   1.00
N1133  N     0.73744   0.81881   0.67951   0.00000  Uiso   1.00
N1134  N     0.76255   0.84786   0.98716   0.00000  Uiso   1.00
O1135  O     0.75325   0.76204   0.87326   0.00000  Uiso   1.00
O1136  O     0.58844   0.72827   0.70243   0.00000  Uiso   1.00
O1137  O     0.55577   0.67337   0.80184   0.00000  Uiso   1.00
O1138  O     0.50064   0.97733   0.72390   0.00000  Uiso   1.00
O1139  O     0.99506   0.68363   0.94129   0.00000  Uiso   1.00
O1140  O     0.93921   0.99522   0.86331   0.00000  Uiso   1.00
O1141  O     0.67236   0.95423   0.78113   0.00000  Uiso   1.00
O1142  O     0.82767   0.71247   0.88550   0.00000  Uiso   1.00
O1143  O     0.72011   0.72961   0.98285   0.00000  Uiso   1.00
O1144  O     0.77989   0.93706   0.68386   0.00000  Uiso   1.00
O1145  O     0.74674   0.90462   0.79341   0.00000  Uiso   1.00
O1146  O     0.74480   0.75226   0.76945   0.00000  Uiso   1.00
O1147  O     0.75520   0.91441   0.89721   0.00000  Uiso   1.00
O1148  O     0.68935   0.83821   0.88524   0.00000  Uiso   1.00
O1149  O     0.81064   0.82845   0.78143   0.00000  Uiso   1.00
O1150  O     0.68090   0.82843   0.78143   0.00000  Uiso   1.00
O1151  O     0.81910   0.83824   0.88523   0.00000  Uiso   1.00
O1152  O     0.91129   0.93672   0.96568   0.00000  Uiso   1.00
loop_
_geom_bond_atom_site_label_1
_geom_bond_atom_site_label_2
_geom_bond_distance
_geom_bond_site_symmetry_2
_ccdc_geom_bond_type
C1     O58     1.300   .     A
C1     C26     1.430   .     S
C1     O47     1.292   .     A
C2     C4      1.412   .     A
C2     C17     1.488   .     S
C2     C13     1.421   .     A
C3     C30     1.412   .     A
C3     C29     1.449   .     S
C3     C5      1.390   .     A
C4     C6      1.390   .     A
C4     C28     1.449   .     S
C5     C7      1.386   .     A
C5     H33     1.086   .     S
C6     H37     1.086   .     S
C6     C8      1.386   .     A
C7     C9      1.409   .     A
C7     C14     1.396   .     A
C8     C15     1.395   .     A
C8     C10     1.408   .     A
C9     C11     1.425   .     A
C9     C74     1.406   .     S
C10    C13     1.425   .     A
C10    C73     1.406   1_455 S
C11    C25     1.425   .     A
C11    C30     1.421   .     A
C12    O57     1.292   .     A
C12    C27     1.430   .     S
C12    O59     1.300   .     A
C13    C23     1.426   .     A
C14    H38     1.085   .     S
C14    C87     1.396   .     S
C15    H39     1.085   .     S
C15    C89     1.397   1_455 S
C16    H40     1.084   .     S
C16    C30     1.488   .     S
C16    O64     1.221   .     D
C17    O48     1.221   .     D
C17    H41     1.084   .     S
C18    O49     1.223   .     D
C18    C23     1.488   .     S
C18    O306    1.398   1_545 S
C19    C25     1.488   .     S
C19    O52     1.399   .     S
C19    O179    1.223   .     S
C20    H44     1.085   .     S
C20    O53     1.222   .     D
C20    C154    1.494   .     S
C21    O54     1.222   .     D
C21    H34     1.085   .     S
C21    C283    1.494   1_545 S
C22    O55     1.219   .     D
C22    H35     1.077   .     S
C22    N429    1.416   .     S
C23    C78     1.396   1_455 S
C24    O56     1.219   .     D
C24    H36     1.077   .     S
C24    N814    1.416   1_554 S
C25    C79     1.397   .     S
C26    C276    1.494   1_545 S
C26    C283    1.360   1_545 S
C27    C154    1.360   .     S
C27    C149    1.494   .     S
C28    O60     1.301   .     A
C28    O62     1.300   .     A
C29    O63     1.300   .     A
C29    O61     1.302   .     A
Cu31   O60     1.959   .     S
Cu31   O63     1.953   .     S
Cu31   Cu32    2.715   .     S
Cu31   O47     1.958   .     S
Cu31   O59     1.954   .     S
Cu31   N46     2.040   .     S
Cu32   O58     1.954   .     S
Cu32   O62     1.953   .     S
Cu32   O57     1.958   .     S
Cu32   O61     1.959   .     S
Cu32   N45     2.040   .     S
H42    O50     1.014   .     S
H43    O308    1.014   1_545 S
N45    C790    1.416   1_554 S
N45    N814    1.294   1_554 S
N46    N429    1.294   .     S
N46    C408    1.416   .     S
O50    C146    1.398   .     S
O51    C275    1.223   1_545 S
O52    H171    1.014   .     S
C65    O122    1.300   .     A
C65    C90     1.430   .     S
C65    O111    1.292   .     A
C66    C68     1.412   .     A
C66    C81     1.488   .     S
C66    C77     1.421   .     A
C67    C94     1.412   .     A
C67    C93     1.449   .     S
C67    C69     1.390   .     A
C68    C70     1.390   .     A
C68    C92     1.449   .     S
C69    C71     1.386   .     A
C69    H97     1.086   .     S
C70    H101    1.086   .     S
C70    C72     1.386   .     A
C71    C73     1.409   .     A
C71    C78     1.396   .     A
C72    C79     1.395   .     A
C72    C74     1.408   .     A
C73    C75     1.425   .     A
C73    C10     1.406   1_655 S
C74    C77     1.425   .     A
C75    C89     1.425   .     A
C75    C94     1.421   .     A
C76    O121    1.292   .     A
C76    C91     1.430   .     S
C76    O123    1.300   .     A
C77    C87     1.426   .     A
C78    H102    1.085   .     S
C78    C23     1.396   1_655 S
C79    H103    1.085   .     S
C80    H104    1.084   .     S
C80    C94     1.488   .     S
C80    O128    1.221   .     D
C81    O112    1.221   .     D
C81    H105    1.084   .     S
C82    O113    1.223   .     D
C82    C87     1.488   .     S
C82    O370    1.398   1_545 S
C83    C89     1.488   .     S
C83    O116    1.399   .     S
C83    O243    1.223   .     S
C84    H108    1.085   .     S
C84    O117    1.222   .     D
C84    C218    1.494   .     S
C85    O118    1.222   .     D
C85    H98     1.085   .     S
C85    C347    1.494   1_545 S
C86    O119    1.219   .     D
C86    H99     1.077   .     S
C86    N493    1.416   .     S
C88    O120    1.219   .     D
C88    H100    1.077   .     S
C88    N878    1.416   1_554 S
C89    C15     1.397   1_655 S
C90    C340    1.494   1_545 S
C90    C347    1.360   1_545 S
C91    C218    1.360   .     S
C91    C213    1.494   .     S
C92    O124    1.301   .     A
C92    O126    1.300   .     A
C93    O127    1.300   .     A
C93    O125    1.302   .     A
Cu95   O124    1.959   .     S
Cu95   O127    1.953   .     S
Cu95   Cu96    2.715   .     S
Cu95   O111    1.958   .     S
Cu95   O123    1.954   .     S
Cu95   N110    2.040   .     S
Cu96   O122    1.954   .     S
Cu96   O126    1.953   .     S
Cu96   O121    1.958   .     S
Cu96   O125    1.959   .     S
Cu96   N109    2.040   .     S
H106   O114    1.014   .     S
H107   O372    1.014   1_545 S
N109   C854    1.416   1_554 S
N109   N878    1.294   1_554 S
N110   N493    1.294   .     S
N110   C472    1.416   .     S
O114   C210    1.398   .     S
O115   C339    1.223   1_545 S
O116   H235    1.014   .     S
C129   O186    1.300   .     A
C129   C154    1.430   .     S
C129   O175    1.292   .     A
C130   C132    1.412   .     A
C130   C145    1.488   .     S
C130   C141    1.421   .     A
C131   C158    1.412   .     A
C131   C157    1.449   .     S
C131   C133    1.390   .     A
C132   C134    1.390   .     A
C132   C156    1.449   .     S
C133   C135    1.386   .     A
C133   H161    1.086   .     S
C134   H165    1.086   .     S
C134   C136    1.386   .     A
C135   C137    1.409   .     A
C135   C142    1.396   .     A
C136   C143    1.395   .     A
C136   C138    1.408   .     A
C137   C139    1.425   .     A
C137   C202    1.406   .     S
C138   C141    1.425   .     A
C138   C201    1.406   1_455 S
C139   C153    1.425   .     A
C139   C158    1.421   .     A
C140   O185    1.292   .     A
C140   C155    1.430   .     S
C140   O187    1.300   .     A
C141   C151    1.426   .     A
C142   H166    1.085   .     S
C142   C215    1.396   .     S
C143   H167    1.085   .     S
C143   C217    1.397   1_455 S
C144   H168    1.084   .     S
C144   C158    1.488   .     S
C144   O192    1.221   .     D
C145   O176    1.221   .     D
C145   H169    1.084   .     S
C146   O177    1.223   .     D
C146   C151    1.488   .     S
C147   C153    1.488   .     S
C147   O180    1.399   .     S
C147   O307    1.223   .     S
C148   H172    1.085   .     S
C148   O181    1.222   .     D
C148   C282    1.494   .     S
C149   O182    1.222   .     D
C149   H162    1.085   .     S
C150   O183    1.219   .     D
C150   H163    1.077   .     S
C150   N557    1.416   .     S
C151   C206    1.396   1_455 S
C152   O184    1.219   .     D
C152   H164    1.077   .     S
C152   N942    1.416   1_554 S
C153   C207    1.397   .     S
C155   C282    1.360   .     S
C155   C277    1.494   .     S
C156   O188    1.301   .     A
C156   O190    1.300   .     A
C157   O191    1.300   .     A
C157   O189    1.302   .     A
Cu159  O188    1.959   .     S
Cu159  O191    1.953   .     S
Cu159  Cu160   2.715   .     S
Cu159  O175    1.958   .     S
Cu159  O187    1.954   .     S
Cu159  N174    2.040   .     S
Cu160  O186    1.954   .     S
Cu160  O190    1.953   .     S
Cu160  O185    1.958   .     S
Cu160  O189    1.959   .     S
Cu160  N173    2.040   .     S
H170   O178    1.014   .     S
N173   C918    1.416   1_554 S
N173   N942    1.294   1_554 S
N174   N557    1.294   .     S
N174   C536    1.416   .     S
O178   C274    1.398   .     S
O180   H299    1.014   .     S
C193   O250    1.300   .     A
C193   C218    1.430   .     S
C193   O239    1.292   .     A
C194   C196    1.412   .     A
C194   C209    1.488   .     S
C194   C205    1.421   .     A
C195   C222    1.412   .     A
C195   C221    1.449   .     S
C195   C197    1.390   .     A
C196   C198    1.390   .     A
C196   C220    1.449   .     S
C197   C199    1.386   .     A
C197   H225    1.086   .     S
C198   H229    1.086   .     S
C198   C200    1.386   .     A
C199   C201    1.409   .     A
C199   C206    1.396   .     A
C200   C207    1.395   .     A
C200   C202    1.408   .     A
C201   C203    1.425   .     A
C201   C138    1.406   1_655 S
C202   C205    1.425   .     A
C203   C217    1.425   .     A
C203   C222    1.421   .     A
C204   O249    1.292   .     A
C204   C219    1.430   .     S
C204   O251    1.300   .     A
C205   C215    1.426   .     A
C206   H230    1.085   .     S
C206   C151    1.396   1_655 S
C207   H231    1.085   .     S
C208   H232    1.084   .     S
C208   C222    1.488   .     S
C208   O256    1.221   .     D
C209   O240    1.221   .     D
C209   H233    1.084   .     S
C210   O241    1.223   .     D
C210   C215    1.488   .     S
C211   C217    1.488   .     S
C211   O244    1.399   .     S
C211   O371    1.223   .     S
C212   H236    1.085   .     S
C212   O245    1.222   .     D
C212   C346    1.494   .     S
C213   O246    1.222   .     D
C213   H226    1.085   .     S
C214   O247    1.219   .     D
C214   H227    1.077   .     S
C214   N621    1.416   .     S
C216   O248    1.219   .     D
C216   H228    1.077   .     S
C216   N1006   1.416   1_554 S
C217   C143    1.397   1_655 S
C219   C346    1.360   .     S
C219   C341    1.494   .     S
C220   O252    1.301   .     A
C220   O254    1.300   .     A
C221   O255    1.300   .     A
C221   O253    1.302   .     A
Cu223  O252    1.959   .     S
Cu223  O255    1.953   .     S
Cu223  Cu224   2.715   .     S
Cu223  O239    1.958   .     S
Cu223  O251    1.954   .     S
Cu223  N238    2.040   .     S
Cu224  O250    1.954   .     S
Cu224  O254    1.953   .     S
Cu224  O249    1.958   .     S
Cu224  O253    1.959   .     S
Cu224  N237    2.040   .     S
H234   O242    1.014   .     S
N237   C982    1.416   1_554 S
N237   N1006   1.294   1_554 S
N238   N621    1.294   .     S
N238   C600    1.416   .     S
O242   C338    1.398   .     S
O244   H363    1.014   .     S
C257   O314    1.300   .     A
C257   C282    1.430   .     S
C257   O303    1.292   .     A
C258   C260    1.412   .     A
C258   C273    1.488   .     S
C258   C269    1.421   .     A
C259   C286    1.412   .     A
C259   C285    1.449   .     S
C259   C261    1.390   .     A
C260   C262    1.390   .     A
C260   C284    1.449   .     S
C261   C263    1.386   .     A
C261   H289    1.086   .     S
C262   H293    1.086   .     S
C262   C264    1.386   .     A
C263   C265    1.409   .     A
C263   C270    1.396   .     A
C264   C271    1.395   .     A
C264   C266    1.408   .     A
C265   C267    1.425   .     A
C265   C330    1.406   .     S
C266   C269    1.425   .     A
C266   C329    1.406   1_455 S
C267   C281    1.425   .     A
C267   C286    1.421   .     A
C268   O313    1.292   .     A
C268   C283    1.430   .     S
C268   O315    1.300   .     A
C269   C279    1.426   .     A
C270   H294    1.085   .     S
C270   C343    1.396   .     S
C271   H295    1.085   .     S
C271   C345    1.397   1_455 S
C272   H296    1.084   .     S
C272   C286    1.488   .     S
C272   O320    1.221   .     D
C273   O304    1.221   .     D
C273   H297    1.084   .     S
C274   O305    1.223   .     D
C274   C279    1.488   .     S
C275   C281    1.488   .     S
C275   O308    1.399   .     S
C275   O51     1.223   1_565 S
C276   H300    1.085   .     S
C276   O309    1.222   .     D
C276   C26     1.494   1_565 S
C277   O310    1.222   .     D
C277   H290    1.085   .     S
C278   O311    1.219   .     D
C278   H291    1.077   .     S
C278   N685    1.416   .     S
C279   C334    1.396   1_455 S
C280   O312    1.219   .     D
C280   H292    1.077   .     S
C280   N1070   1.416   1_554 S
C281   C335    1.397   .     S
C283   C26     1.360   1_565 S
C283   C21     1.494   1_565 S
C284   O316    1.301   .     A
C284   O318    1.300   .     A
C285   O319    1.300   .     A
C285   O317    1.302   .     A
Cu287  O316    1.959   .     S
Cu287  O319    1.953   .     S
Cu287  Cu288   2.715   .     S
Cu287  O303    1.958   .     S
Cu287  O315    1.954   .     S
Cu287  N302    2.040   .     S
Cu288  O314    1.954   .     S
Cu288  O318    1.953   .     S
Cu288  O313    1.958   .     S
Cu288  O317    1.959   .     S
Cu288  N301    2.040   .     S
H298   O306    1.014   .     S
N301   C1046   1.416   1_554 S
N301   N1070   1.294   1_554 S
N302   N685    1.294   .     S
N302   C664    1.416   .     S
O306   C18     1.398   1_565 S
O308   H43     1.014   1_565 S
C321   O378    1.300   .     A
C321   C346    1.430   .     S
C321   O367    1.292   .     A
C322   C324    1.412   .     A
C322   C337    1.488   .     S
C322   C333    1.421   .     A
C323   C350    1.412   .     A
C323   C349    1.449   .     S
C323   C325    1.390   .     A
C324   C326    1.390   .     A
C324   C348    1.449   .     S
C325   C327    1.386   .     A
C325   H353    1.086   .     S
C326   H357    1.086   .     S
C326   C328    1.386   .     A
C327   C329    1.409   .     A
C327   C334    1.396   .     A
C328   C335    1.395   .     A
C328   C330    1.408   .     A
C329   C331    1.425   .     A
C329   C266    1.406   1_655 S
C330   C333    1.425   .     A
C331   C345    1.425   .     A
C331   C350    1.421   .     A
C332   O377    1.292   .     A
C332   C347    1.430   .     S
C332   O379    1.300   .     A
C333   C343    1.426   .     A
C334   H358    1.085   .     S
C334   C279    1.396   1_655 S
C335   H359    1.085   .     S
C336   H360    1.084   .     S
C336   C350    1.488   .     S
C336   O384    1.221   .     D
C337   O368    1.221   .     D
C337   H361    1.084   .     S
C338   O369    1.223   .     D
C338   C343    1.488   .     S
C339   C345    1.488   .     S
C339   O372    1.399   .     S
C339   O115    1.223   1_565 S
C340   H364    1.085   .     S
C340   O373    1.222   .     D
C340   C90     1.494   1_565 S
C341   O374    1.222   .     D
C341   H354    1.085   .     S
C342   O375    1.219   .     D
C342   H355    1.077   .     S
C342   N749    1.416   .     S
C344   O376    1.219   .     D
C344   H356    1.077   .     S
C344   N1134   1.416   1_554 S
C345   C271    1.397   1_655 S
C347   C90     1.360   1_565 S
C347   C85     1.494   1_565 S
C348   O380    1.301   .     A
C348   O382    1.300   .     A
C349   O383    1.300   .     A
C349   O381    1.302   .     A
Cu351  O380    1.959   .     S
Cu351  O383    1.953   .     S
Cu351  Cu352   2.715   .     S
Cu351  O367    1.958   .     S
Cu351  O379    1.954   .     S
Cu351  N366    2.040   .     S
Cu352  O378    1.954   .     S
Cu352  O382    1.953   .     S
Cu352  O377    1.958   .     S
Cu352  O381    1.959   .     S
Cu352  N365    2.040   .     S
H362   O370    1.014   .     S
N365   C1110   1.416   1_554 S
N365   N1134   1.294   1_554 S
N366   N749    1.294   .     S
N366   C728    1.416   .     S
O370   C82     1.398   1_565 S
O372   H107    1.014   1_565 S
C385   O442    1.300   .     A
C385   C410    1.430   .     S
C385   O431    1.292   .     A
C386   C388    1.412   .     A
C386   C401    1.488   .     S
C386   C397    1.421   .     A
C387   C414    1.412   .     A
C387   C413    1.449   .     S
C387   C389    1.390   .     A
C388   C390    1.390   .     A
C388   C412    1.449   .     S
C389   C391    1.386   .     A
C389   H417    1.086   .     S
C390   H421    1.086   .     S
C390   C392    1.386   .     A
C391   C393    1.409   .     A
C391   C398    1.396   .     A
C392   C399    1.395   .     A
C392   C394    1.408   .     A
C393   C395    1.425   .     A
C393   C458    1.406   .     S
C394   C397    1.425   .     A
C394   C457    1.406   1_455 S
C395   C409    1.425   .     A
C395   C414    1.421   .     A
C396   O441    1.292   .     A
C396   C411    1.430   .     S
C396   O443    1.300   .     A
C397   C407    1.426   .     A
C398   H422    1.085   .     S
C398   C471    1.396   .     S
C399   H423    1.085   .     S
C399   C473    1.397   1_455 S
C400   H424    1.084   .     S
C400   C414    1.488   .     S
C400   O448    1.221   .     D
C401   O432    1.221   .     D
C401   H425    1.084   .     S
C402   O433    1.223   .     D
C402   C407    1.488   .     S
C402   O690    1.398   1_545 S
C403   C409    1.488   .     S
C403   O436    1.399   .     S
C403   O563    1.223   .     S
C404   H428    1.085   .     S
C404   O437    1.222   .     D
C404   C538    1.494   .     S
C405   O438    1.222   .     D
C405   H418    1.085   .     S
C405   C667    1.494   1_545 S
C406   O439    1.219   .     D
C406   H419    1.077   .     S
C406   N813    1.416   .     S
C407   C462    1.396   1_455 S
C408   O440    1.219   .     D
C408   H420    1.077   .     S
C409   C463    1.397   .     S
C410   C660    1.494   1_545 S
C410   C667    1.360   1_545 S
C411   C538    1.360   .     S
C411   C533    1.494   .     S
C412   O444    1.301   .     A
C412   O446    1.300   .     A
C413   O447    1.300   .     A
C413   O445    1.302   .     A
Cu415  O444    1.959   .     S
Cu415  O447    1.953   .     S
Cu415  Cu416   2.715   .     S
Cu415  O431    1.958   .     S
Cu415  O443    1.954   .     S
Cu415  N430    2.040   .     S
Cu416  O442    1.954   .     S
Cu416  O446    1.953   .     S
Cu416  O441    1.958   .     S
Cu416  O445    1.959   .     S
Cu416  N429    2.040   .     S
H426   O434    1.014   .     S
H427   O692    1.014   1_545 S
N430   N813    1.294   .     S
N430   C792    1.416   .     S
O434   C530    1.398   .     S
O435   C659    1.223   1_545 S
O436   H555    1.014   .     S
C449   O506    1.300   .     A
C449   C474    1.430   .     S
C449   O495    1.292   .     A
C450   C452    1.412   .     A
C450   C465    1.488   .     S
C450   C461    1.421   .     A
C451   C478    1.412   .     A
C451   C477    1.449   .     S
C451   C453    1.390   .     A
C452   C454    1.390   .     A
C452   C476    1.449   .     S
C453   C455    1.386   .     A
C453   H481    1.086   .     S
C454   H485    1.086   .     S
C454   C456    1.386   .     A
C455   C457    1.409   .     A
C455   C462    1.396   .     A
C456   C463    1.395   .     A
C456   C458    1.408   .     A
C457   C459    1.425   .     A
C457   C394    1.406   1_655 S
C458   C461    1.425   .     A
C459   C473    1.425   .     A
C459   C478    1.421   .     A
C460   O505    1.292   .     A
C460   C475    1.430   .     S
C460   O507    1.300   .     A
C461   C471    1.426   .     A
C462   H486    1.085   .     S
C462   C407    1.396   1_655 S
C463   H487    1.085   .     S
C464   H488    1.084   .     S
C464   C478    1.488   .     S
C464   O512    1.221   .     D
C465   O496    1.221   .     D
C465   H489    1.084   .     S
C466   O497    1.223   .     D
C466   C471    1.488   .     S
C466   O754    1.398   1_545 S
C467   C473    1.488   .     S
C467   O500    1.399   .     S
C467   O627    1.223   .     S
C468   H492    1.085   .     S
C468   O501    1.222   .     D
C468   C602    1.494   .     S
C469   O502    1.222   .     D
C469   H482    1.085   .     S
C469   C731    1.494   1_545 S
C470   O503    1.219   .     D
C470   H483    1.077   .     S
C470   N877    1.416   .     S
C472   O504    1.219   .     D
C472   H484    1.077   .     S
C473   C399    1.397   1_655 S
C474   C724    1.494   1_545 S
C474   C731    1.360   1_545 S
C475   C602    1.360   .     S
C475   C597    1.494   .     S
C476   O508    1.301   .     A
C476   O510    1.300   .     A
C477   O511    1.300   .     A
C477   O509    1.302   .     A
Cu479  O508    1.959   .     S
Cu479  O511    1.953   .     S
Cu479  Cu480   2.715   .     S
Cu479  O495    1.958   .     S
Cu479  O507    1.954   .     S
Cu479  N494    2.040   .     S
Cu480  O506    1.954   .     S
Cu480  O510    1.953   .     S
Cu480  O505    1.958   .     S
Cu480  O509    1.959   .     S
Cu480  N493    2.040   .     S
H490   O498    1.014   .     S
H491   O756    1.014   1_545 S
N494   N877    1.294   .     S
N494   C856    1.416   .     S
O498   C594    1.398   .     S
O499   C723    1.223   1_545 S
O500   H619    1.014   .     S
C513   O570    1.300   .     A
C513   C538    1.430   .     S
C513   O559    1.292   .     A
C514   C516    1.412   .     A
C514   C529    1.488   .     S
C514   C525    1.421   .     A
C515   C542    1.412   .     A
C515   C541    1.449   .     S
C515   C517    1.390   .     A
C516   C518    1.390   .     A
C516   C540    1.449   .     S
C517   C519    1.386   .     A
C517   H545    1.086   .     S
C518   H549    1.086   .     S
C518   C520    1.386   .     A
C519   C521    1.409   .     A
C519   C526    1.396   .     A
C520   C527    1.395   .     A
C520   C522    1.408   .     A
C521   C523    1.425   .     A
C521   C586    1.406   .     S
C522   C525    1.425   .     A
C522   C585    1.406   1_455 S
C523   C537    1.425   .     A
C523   C542    1.421   .     A
C524   O569    1.292   .     A
C524   C539    1.430   .     S
C524   O571    1.300   .     A
C525   C535    1.426   .     A
C526   H550    1.085   .     S
C526   C599    1.396   .     S
C527   H551    1.085   .     S
C527   C601    1.397   1_455 S
C528   H552    1.084   .     S
C528   C542    1.488   .     S
C528   O576    1.221   .     D
C529   O560    1.221   .     D
C529   H553    1.084   .     S
C530   O561    1.223   .     D
C530   C535    1.488   .     S
C531   C537    1.488   .     S
C531   O564    1.399   .     S
C531   O691    1.223   .     S
C532   H556    1.085   .     S
C532   O565    1.222   .     D
C532   C666    1.494   .     S
C533   O566    1.222   .     D
C533   H546    1.085   .     S
C534   O567    1.219   .     D
C534   H547    1.077   .     S
C534   N941    1.416   .     S
C535   C590    1.396   1_455 S
C536   O568    1.219   .     D
C536   H548    1.077   .     S
C537   C591    1.397   .     S
C539   C666    1.360   .     S
C539   C661    1.494   .     S
C540   O572    1.301   .     A
C540   O574    1.300   .     A
C541   O575    1.300   .     A
C541   O573    1.302   .     A
Cu543  O572    1.959   .     S
Cu543  O575    1.953   .     S
Cu543  Cu544   2.715   .     S
Cu543  O559    1.958   .     S
Cu543  O571    1.954   .     S
Cu543  N558    2.040   .     S
Cu544  O570    1.954   .     S
Cu544  O574    1.953   .     S
Cu544  O569    1.958   .     S
Cu544  O573    1.959   .     S
Cu544  N557    2.040   .     S
H554   O562    1.014   .     S
N558   N941    1.294   .     S
N558   C920    1.416   .     S
O562   C658    1.398   .     S
O564   H683    1.014   .     S
C577   O634    1.300   .     A
C577   C602    1.430   .     S
C577   O623    1.292   .     A
C578   C580    1.412   .     A
C578   C593    1.488   .     S
C578   C589    1.421   .     A
C579   C606    1.412   .     A
C579   C605    1.449   .     S
C579   C581    1.390   .     A
C580   C582    1.390   .     A
C580   C604    1.449   .     S
C581   C583    1.386   .     A
C581   H609    1.086   .     S
C582   H613    1.086   .     S
C582   C584    1.386   .     A
C583   C585    1.409   .     A
C583   C590    1.396   .     A
C584   C591    1.395   .     A
C584   C586    1.408   .     A
C585   C587    1.425   .     A
C585   C522    1.406   1_655 S
C586   C589    1.425   .     A
C587   C601    1.425   .     A
C587   C606    1.421   .     A
C588   O633    1.292   .     A
C588   C603    1.430   .     S
C588   O635    1.300   .     A
C589   C599    1.426   .     A
C590   H614    1.085   .     S
C590   C535    1.396   1_655 S
C591   H615    1.085   .     S
C592   H616    1.084   .     S
C592   C606    1.488   .     S
C592   O640    1.221   .     D
C593   O624    1.221   .     D
C593   H617    1.084   .     S
C594   O625    1.223   .     D
C594   C599    1.488   .     S
C595   C601    1.488   .     S
C595   O628    1.399   .     S
C595   O755    1.223   .     S
C596   H620    1.085   .     S
C596   O629    1.222   .     D
C596   C730    1.494   .     S
C597   O630    1.222   .     D
C597   H610    1.085   .     S
C598   O631    1.219   .     D
C598   H611    1.077   .     S
C598   N1005   1.416   .     S
C600   O632    1.219   .     D
C600   H612    1.077   .     S
C601   C527    1.397   1_655 S
C603   C730    1.360   .     S
C603   C725    1.494   .     S
C604   O636    1.301   .     A
C604   O638    1.300   .     A
C605   O639    1.300   .     A
C605   O637    1.302   .     A
Cu607  O636    1.959   .     S
Cu607  O639    1.953   .     S
Cu607  Cu608   2.715   .     S
Cu607  O623    1.958   .     S
Cu607  O635    1.954   .     S
Cu607  N622    2.040   .     S
Cu608  O634    1.954   .     S
Cu608  O638    1.953   .     S
Cu608  O633    1.958   .     S
Cu608  O637    1.959   .     S
Cu608  N621    2.040   .     S
H618   O626    1.014   .     S
N622   N1005   1.294   .     S
N622   C984    1.416   .     S
O626   C722    1.398   .     S
O628   H747    1.014   .     S
C641   O698    1.300   .     A
C641   C666    1.430   .     S
C641   O687    1.292   .     A
C642   C644    1.412   .     A
C642   C657    1.488   .     S
C642   C653    1.421   .     A
C643   C670    1.412   .     A
C643   C669    1.449   .     S
C643   C645    1.390   .     A
C644   C646    1.390   .     A
C644   C668    1.449   .     S
C645   C647    1.386   .     A
C645   H673    1.086   .     S
C646   H677    1.086   .     S
C646   C648    1.386   .     A
C647   C649    1.409   .     A
C647   C654    1.396   .     A
C648   C655    1.395   .     A
C648   C650    1.408   .     A
C649   C651    1.425   .     A
C649   C714    1.406   .     S
C650   C653    1.425   .     A
C650   C713    1.406   1_455 S
C651   C665    1.425   .     A
C651   C670    1.421   .     A
C652   O697    1.292   .     A
C652   C667    1.430   .     S
C652   O699    1.300   .     A
C653   C663    1.426   .     A
C654   H678    1.085   .     S
C654   C727    1.396   .     S
C655   H679    1.085   .     S
C655   C729    1.397   1_455 S
C656   H680    1.084   .     S
C656   C670    1.488   .     S
C656   O704    1.221   .     D
C657   O688    1.221   .     D
C657   H681    1.084   .     S
C658   O689    1.223   .     D
C658   C663    1.488   .     S
C659   C665    1.488   .     S
C659   O692    1.399   .     S
C659   O435    1.223   1_565 S
C660   H684    1.085   .     S
C660   O693    1.222   .     D
C660   C410    1.494   1_565 S
C661   O694    1.222   .     D
C661   H674    1.085   .     S
C662   O695    1.219   .     D
C662   H675    1.077   .     S
C662   N1069   1.416   .     S
C663   C718    1.396   1_455 S
C664   O696    1.219   .     D
C664   H676    1.077   .     S
C665   C719    1.397   .     S
C667   C410    1.360   1_565 S
C667   C405    1.494   1_565 S
C668   O700    1.301   .     A
C668   O702    1.300   .     A
C669   O703    1.300   .     A
C669   O701    1.302   .     A
Cu671  O700    1.959   .     S
Cu671  O703    1.953   .     S
Cu671  Cu672   2.715   .     S
Cu671  O687    1.958   .     S
Cu671  O699    1.954   .     S
Cu671  N686    2.040   .     S
Cu672  O698    1.954   .     S
Cu672  O702    1.953   .     S
Cu672  O697    1.958   .     S
Cu672  O701    1.959   .     S
Cu672  N685    2.040   .     S
H682   O690    1.014   .     S
N686   N1069   1.294   .     S
N686   C1048   1.416   .     S
O690   C402    1.398   1_565 S
O692   H427    1.014   1_565 S
C705   O762    1.300   .     A
C705   C730    1.430   .     S
C705   O751    1.292   .     A
C706   C708    1.412   .     A
C706   C721    1.488   .     S
C706   C717    1.421   .     A
C707   C734    1.412   .     A
C707   C733    1.449   .     S
C707   C709    1.390   .     A
C708   C710    1.390   .     A
C708   C732    1.449   .     S
C709   C711    1.386   .     A
C709   H737    1.086   .     S
C710   H741    1.086   .     S
C710   C712    1.386   .     A
C711   C713    1.409   .     A
C711   C718    1.396   .     A
C712   C719    1.395   .     A
C712   C714    1.408   .     A
C713   C715    1.425   .     A
C713   C650    1.406   1_655 S
C714   C717    1.425   .     A
C715   C729    1.425   .     A
C715   C734    1.421   .     A
C716   O761    1.292   .     A
C716   C731    1.430   .     S
C716   O763    1.300   .     A
C717   C727    1.426   .     A
C718   H742    1.085   .     S
C718   C663    1.396   1_655 S
C719   H743    1.085   .     S
C720   H744    1.084   .     S
C720   C734    1.488   .     S
C720   O768    1.221   .     D
C721   O752    1.221   .     D
C721   H745    1.084   .     S
C722   O753    1.223   .     D
C722   C727    1.488   .     S
C723   C729    1.488   .     S
C723   O756    1.399   .     S
C723   O499    1.223   1_565 S
C724   H748    1.085   .     S
C724   O757    1.222   .     D
C724   C474    1.494   1_565 S
C725   O758    1.222   .     D
C725   H738    1.085   .     S
C726   O759    1.219   .     D
C726   H739    1.077   .     S
C726   N1133   1.416   .     S
C728   O760    1.219   .     D
C728   H740    1.077   .     S
C729   C655    1.397   1_655 S
C731   C474    1.360   1_565 S
C731   C469    1.494   1_565 S
C732   O764    1.301   .     A
C732   O766    1.300   .     A
C733   O767    1.300   .     A
C733   O765    1.302   .     A
Cu735  O764    1.959   .     S
Cu735  O767    1.953   .     S
Cu735  Cu736   2.715   .     S
Cu735  O751    1.958   .     S
Cu735  O763    1.954   .     S
Cu735  N750    2.040   .     S
Cu736  O762    1.954   .     S
Cu736  O766    1.953   .     S
Cu736  O761    1.958   .     S
Cu736  O765    1.959   .     S
Cu736  N749    2.040   .     S
H746   O754    1.014   .     S
N750   N1133   1.294   .     S
N750   C1112   1.416   .     S
O754   C466    1.398   1_565 S
O756   H491    1.014   1_565 S
C769   O826    1.300   .     A
C769   C794    1.430   .     S
C769   O815    1.292   .     A
C770   C772    1.412   .     A
C770   C785    1.488   .     S
C770   C781    1.421   .     A
C771   C798    1.412   .     A
C771   C797    1.449   .     S
C771   C773    1.390   .     A
C772   C774    1.390   .     A
C772   C796    1.449   .     S
C773   C775    1.386   .     A
C773   H801    1.086   .     S
C774   H805    1.086   .     S
C774   C776    1.386   .     A
C775   C777    1.409   .     A
C775   C782    1.396   .     A
C776   C783    1.395   .     A
C776   C778    1.408   .     A
C777   C779    1.425   .     A
C777   C842    1.406   .     S
C778   C781    1.425   .     A
C778   C841    1.406   1_455 S
C779   C793    1.425   .     A
C779   C798    1.421   .     A
C780   O825    1.292   .     A
C780   C795    1.430   .     S
C780   O827    1.300   .     A
C781   C791    1.426   .     A
C782   H806    1.085   .     S
C782   C855    1.396   .     S
C783   H807    1.085   .     S
C783   C857    1.397   1_455 S
C784   H808    1.084   .     S
C784   C798    1.488   .     S
C784   O832    1.221   .     D
C785   O816    1.221   .     D
C785   H809    1.084   .     S
C786   O817    1.223   .     D
C786   C791    1.488   .     S
C786   O1074   1.398   1_545 S
C787   C793    1.488   .     S
C787   O820    1.399   .     S
C787   O947    1.223   .     S
C788   H812    1.085   .     S
C788   O821    1.222   .     D
C788   C922    1.494   .     S
C789   O822    1.222   .     D
C789   H802    1.085   .     S
C789   C1051   1.494   1_545 S
C790   O823    1.219   .     D
C790   H803    1.077   .     S
C790   N45     1.416   1_556 S
C791   C846    1.396   1_455 S
C792   O824    1.219   .     D
C792   H804    1.077   .     S
C793   C847    1.397   .     S
C794   C1044   1.494   1_545 S
C794   C1051   1.360   1_545 S
C795   C922    1.360   .     S
C795   C917    1.494   .     S
C796   O828    1.301   .     A
C796   O830    1.300   .     A
C797   O831    1.300   .     A
C797   O829    1.302   .     A
Cu799  O828    1.959   .     S
Cu799  O831    1.953   .     S
Cu799  Cu800   2.715   .     S
Cu799  O815    1.958   .     S
Cu799  O827    1.954   .     S
Cu799  N814    2.040   .     S
Cu800  O826    1.954   .     S
Cu800  O830    1.953   .     S
Cu800  O825    1.958   .     S
Cu800  O829    1.959   .     S
Cu800  N813    2.040   .     S
H810   O818    1.014   .     S
H811   O1076   1.014   1_545 S
N814   N45     1.294   1_556 S
N814   C24     1.416   1_556 S
O818   C914    1.398   .     S
O819   C1043   1.223   1_545 S
O820   H939    1.014   .     S
C833   O890    1.300   .     A
C833   C858    1.430   .     S
C833   O879    1.292   .     A
C834   C836    1.412   .     A
C834   C849    1.488   .     S
C834   C845    1.421   .     A
C835   C862    1.412   .     A
C835   C861    1.449   .     S
C835   C837    1.390   .     A
C836   C838    1.390   .     A
C836   C860    1.449   .     S
C837   C839    1.386   .     A
C837   H865    1.086   .     S
C838   H869    1.086   .     S
C838   C840    1.386   .     A
C839   C841    1.409   .     A
C839   C846    1.396   .     A
C840   C847    1.395   .     A
C840   C842    1.408   .     A
C841   C843    1.425   .     A
C841   C778    1.406   1_655 S
C842   C845    1.425   .     A
C843   C857    1.425   .     A
C843   C862    1.421   .     A
C844   O889    1.292   .     A
C844   C859    1.430   .     S
C844   O891    1.300   .     A
C845   C855    1.426   .     A
C846   H870    1.085   .     S
C846   C791    1.396   1_655 S
C847   H871    1.085   .     S
C848   H872    1.084   .     S
C848   C862    1.488   .     S
C848   O896    1.221   .     D
C849   O880    1.221   .     D
C849   H873    1.084   .     S
C850   O881    1.223   .     D
C850   C855    1.488   .     S
C850   O1138   1.398   1_545 S
C851   C857    1.488   .     S
C851   O884    1.399   .     S
C851   O1011   1.223   .     S
C852   H876    1.085   .     S
C852   O885    1.222   .     D
C852   C986    1.494   .     S
C853   O886    1.222   .     D
C853   H866    1.085   .     S
C853   C1115   1.494   1_545 S
C854   O887    1.219   .     D
C854   H867    1.077   .     S
C854   N109    1.416   1_556 S
C856   O888    1.219   .     D
C856   H868    1.077   .     S
C857   C783    1.397   1_655 S
C858   C1108   1.494   1_545 S
C858   C1115   1.360   1_545 S
C859   C986    1.360   .     S
C859   C981    1.494   .     S
C860   O892    1.301   .     A
C860   O894    1.300   .     A
C861   O895    1.300   .     A
C861   O893    1.302   .     A
Cu863  O892    1.959   .     S
Cu863  O895    1.953   .     S
Cu863  Cu864   2.715   .     S
Cu863  O879    1.958   .     S
Cu863  O891    1.954   .     S
Cu863  N878    2.040   .     S
Cu864  O890    1.954   .     S
Cu864  O894    1.953   .     S
Cu864  O889    1.958   .     S
Cu864  O893    1.959   .     S
Cu864  N877    2.040   .     S
H874   O882    1.014   .     S
H875   O1140   1.014   1_545 S
N878   N109    1.294   1_556 S
N878   C88     1.416   1_556 S
O882   C978    1.398   .     S
O883   C1107   1.223   1_545 S
O884   H1003   1.014   .     S
C897   O954    1.300   .     A
C897   C922    1.430   .     S
C897   O943    1.292   .     A
C898   C900    1.412   .     A
C898   C913    1.488   .     S
C898   C909    1.421   .     A
C899   C926    1.412   .     A
C899   C925    1.449   .     S
C899   C901    1.390   .     A
C900   C902    1.390   .     A
C900   C924    1.449   .     S
C901   C903    1.386   .     A
C901   H929    1.086   .     S
C902   H933    1.086   .     S
C902   C904    1.386   .     A
C903   C905    1.409   .     A
C903   C910    1.396   .     A
C904   C911    1.395   .     A
C904   C906    1.408   .     A
C905   C907    1.425   .     A
C905   C970    1.406   .     S
C906   C909    1.425   .     A
C906   C969    1.406   1_455 S
C907   C921    1.425   .     A
C907   C926    1.421   .     A
C908   O953    1.292   .     A
C908   C923    1.430   .     S
C908   O955    1.300   .     A
C909   C919    1.426   .     A
C910   H934    1.085   .     S
C910   C983    1.396   .     S
C911   H935    1.085   .     S
C911   C985    1.397   1_455 S
C912   H936    1.084   .     S
C912   C926    1.488   .     S
C912   O960    1.221   .     D
C913   O944    1.221   .     D
C913   H937    1.084   .     S
C914   O945    1.223   .     D
C914   C919    1.488   .     S
C915   C921    1.488   .     S
C915   O948    1.399   .     S
C915   O1075   1.223   .     S
C916   H940    1.085   .     S
C916   O949    1.222   .     D
C916   C1050   1.494   .     S
C917   O950    1.222   .     D
C917   H930    1.085   .     S
C918   O951    1.219   .     D
C918   H931    1.077   .     S
C918   N173    1.416   1_556 S
C919   C974    1.396   1_455 S
C920   O952    1.219   .     D
C920   H932    1.077   .     S
C921   C975    1.397   .     S
C923   C1050   1.360   .     S
C923   C1045   1.494   .     S
C924   O956    1.301   .     A
C924   O958    1.300   .     A
C925   O959    1.300   .     A
C925   O957    1.302   .     A
Cu927  O956    1.959   .     S
Cu927  O959    1.953   .     S
Cu927  Cu928   2.715   .     S
Cu927  O943    1.958   .     S
Cu927  O955    1.954   .     S
Cu927  N942    2.040   .     S
Cu928  O954    1.954   .     S
Cu928  O958    1.953   .     S
Cu928  O953    1.958   .     S
Cu928  O957    1.959   .     S
Cu928  N941    2.040   .     S
H938   O946    1.014   .     S
N942   N173    1.294   1_556 S
N942   C152    1.416   1_556 S
O946   C1042   1.398   .     S
O948   H1067   1.014   .     S
C961   O1018   1.300   .     A
C961   C986    1.430   .     S
C961   O1007   1.292   .     A
C962   C964    1.412   .     A
C962   C977    1.488   .     S
C962   C973    1.421   .     A
C963   C990    1.412   .     A
C963   C989    1.449   .     S
C963   C965    1.390   .     A
C964   C966    1.390   .     A
C964   C988    1.449   .     S
C965   C967    1.386   .     A
C965   H993    1.086   .     S
C966   H997    1.086   .     S
C966   C968    1.386   .     A
C967   C969    1.409   .     A
C967   C974    1.396   .     A
C968   C975    1.395   .     A
C968   C970    1.408   .     A
C969   C971    1.425   .     A
C969   C906    1.406   1_655 S
C970   C973    1.425   .     A
C971   C985    1.425   .     A
C971   C990    1.421   .     A
C972   O1017   1.292   .     A
C972   C987    1.430   .     S
C972   O1019   1.300   .     A
C973   C983    1.426   .     A
C974   H998    1.085   .     S
C974   C919    1.396   1_655 S
C975   H999    1.085   .     S
C976   H1000   1.084   .     S
C976   C990    1.488   .     S
C976   O1024   1.221   .     D
C977   O1008   1.221   .     D
C977   H1001   1.084   .     S
C978   O1009   1.223   .     D
C978   C983    1.488   .     S
C979   C985    1.488   .     S
C979   O1012   1.399   .     S
C979   O1139   1.223   .     S
C980   H1004   1.085   .     S
C980   O1013   1.222   .     D
C980   C1114   1.494   .     S
C981   O1014   1.222   .     D
C981   H994    1.085   .     S
C982   O1015   1.219   .     D
C982   H995    1.077   .     S
C982   N237    1.416   1_556 S
C984   O1016   1.219   .     D
C984   H996    1.077   .     S
C985   C911    1.397   1_655 S
C987   C1114   1.360   .     S
C987   C1109   1.494   .     S
C988   O1020   1.301   .     A
C988   O1022   1.300   .     A
C989   O1023   1.300   .     A
C989   O1021   1.302   .     A
Cu991  O1020   1.959   .     S
Cu991  O1023   1.953   .     S
Cu991  Cu992   2.715   .     S
Cu991  O1007   1.958   .     S
Cu991  O1019   1.954   .     S
Cu991  N1006   2.040   .     S
Cu992  O1018   1.954   .     S
Cu992  O1022   1.953   .     S
Cu992  O1017   1.958   .     S
Cu992  O1021   1.959   .     S
Cu992  N1005   2.040   .     S
H1002  O1010   1.014   .     S
N1006  N237    1.294   1_556 S
N1006  C216    1.416   1_556 S
O1010  C1106   1.398   .     S
O1012  H1131   1.014   .     S
C1025  O1082   1.300   .     A
C1025  C1050   1.430   .     S
C1025  O1071   1.292   .     A
C1026  C1028   1.412   .     A
C1026  C1041   1.488   .     S
C1026  C1037   1.421   .     A
C1027  C1054   1.412   .     A
C1027  C1053   1.449   .     S
C1027  C1029   1.390   .     A
C1028  C1030   1.390   .     A
C1028  C1052   1.449   .     S
C1029  C1031   1.386   .     A
C1029  H1057   1.086   .     S
C1030  H1061   1.086   .     S
C1030  C1032   1.386   .     A
C1031  C1033   1.409   .     A
C1031  C1038   1.396   .     A
C1032  C1039   1.395   .     A
C1032  C1034   1.408   .     A
C1033  C1035   1.425   .     A
C1033  C1098   1.406   .     S
C1034  C1037   1.425   .     A
C1034  C1097   1.406   1_455 S
C1035  C1049   1.425   .     A
C1035  C1054   1.421   .     A
C1036  O1081   1.292   .     A
C1036  C1051   1.430   .     S
C1036  O1083   1.300   .     A
C1037  C1047   1.426   .     A
C1038  H1062   1.085   .     S
C1038  C1111   1.396   .     S
C1039  H1063   1.085   .     S
C1039  C1113   1.397   1_455 S
C1040  H1064   1.084   .     S
C1040  C1054   1.488   .     S
C1040  O1088   1.221   .     D
C1041  O1072   1.221   .     D
C1041  H1065   1.084   .     S
C1042  O1073   1.223   .     D
C1042  C1047   1.488   .     S
C1043  C1049   1.488   .     S
C1043  O1076   1.399   .     S
C1043  O819    1.223   1_565 S
C1044  H1068   1.085   .     S
C1044  O1077   1.222   .     D
C1044  C794    1.494   1_565 S
C1045  O1078   1.222   .     D
C1045  H1058   1.085   .     S
C1046  O1079   1.219   .     D
C1046  H1059   1.077   .     S
C1046  N301    1.416   1_556 S
C1047  C1102   1.396   1_455 S
C1048  O1080   1.219   .     D
C1048  H1060   1.077   .     S
C1049  C1103   1.397   .     S
C1051  C794    1.360   1_565 S
C1051  C789    1.494   1_565 S
C1052  O1084   1.301   .     A
C1052  O1086   1.300   .     A
C1053  O1087   1.300   .     A
C1053  O1085   1.302   .     A
Cu1055 O1084   1.959   .     S
Cu1055 O1087   1.953   .     S
Cu1055 Cu1056  2.715   .     S
Cu1055 O1071   1.958   .     S
Cu1055 O1083   1.954   .     S
Cu1055 N1070   2.040   .     S
Cu1056 O1082   1.954   .     S
Cu1056 O1086   1.953   .     S
Cu1056 O1081   1.958   .     S
Cu1056 O1085   1.959   .     S
Cu1056 N1069   2.040   .     S
H1066  O1074   1.014   .     S
N1070  N301    1.294   1_556 S
N1070  C280    1.416   1_556 S
O1074  C786    1.398   1_565 S
O1076  H811    1.014   1_565 S
C1089  O1146   1.300   .     A
C1089  C1114   1.430   .     S
C1089  O1135   1.292   .     A
C1090  C1092   1.412   .     A
C1090  C1105   1.488   .     S
C1090  C1101   1.421   .     A
C1091  C1118   1.412   .     A
C1091  C1117   1.449   .     S
C1091  C1093   1.390   .     A
C1092  C1094   1.390   .     A
C1092  C1116   1.449   .     S
C1093  C1095   1.386   .     A
C1093  H1121   1.086   .     S
C1094  H1125   1.086   .     S
C1094  C1096   1.386   .     A
C1095  C1097   1.409   .     A
C1095  C1102   1.396   .     A
C1096  C1103   1.395   .     A
C1096  C1098   1.408   .     A
C1097  C1099   1.425   .     A
C1097  C1034   1.406   1_655 S
C1098  C1101   1.425   .     A
C1099  C1113   1.425   .     A
C1099  C1118   1.421   .     A
C1100  O1145   1.292   .     A
C1100  C1115   1.430   .     S
C1100  O1147   1.300   .     A
C1101  C1111   1.426   .     A
C1102  H1126   1.085   .     S
C1102  C1047   1.396   1_655 S
C1103  H1127   1.085   .     S
C1104  H1128   1.084   .     S
C1104  C1118   1.488   .     S
C1104  O1152   1.221   .     D
C1105  O1136   1.221   .     D
C1105  H1129   1.084   .     S
C1106  O1137   1.223   .     D
C1106  C1111   1.488   .     S
C1107  C1113   1.488   .     S
C1107  O1140   1.399   .     S
C1107  O883    1.223   1_565 S
C1108  H1132   1.085   .     S
C1108  O1141   1.222   .     D
C1108  C858    1.494   1_565 S
C1109  O1142   1.222   .     D
C1109  H1122   1.085   .     S
C1110  O1143   1.219   .     D
C1110  H1123   1.077   .     S
C1110  N365    1.416   1_556 S
C1112  O1144   1.219   .     D
C1112  H1124   1.077   .     S
C1113  C1039   1.397   1_655 S
C1115  C858    1.360   1_565 S
C1115  C853    1.494   1_565 S
C1116  O1148   1.301   .     A
C1116  O1150   1.300   .     A
C1117  O1151   1.300   .     A
C1117  O1149   1.302   .     A
Cu1119 O1148   1.959   .     S
Cu1119 O1151   1.953   .     S
Cu1119 Cu1120  2.715   .     S
Cu1119 O1135   1.958   .     S
Cu1119 O1147   1.954   .     S
Cu1119 N1134   2.040   .     S
Cu1120 O1146   1.954   .     S
Cu1120 O1150   1.953   .     S
Cu1120 O1145   1.958   .     S
Cu1120 O1149   1.959   .     S
Cu1120 N1133   2.040   .     S
H1130  O1138   1.014   .     S
N1134  N365    1.294   1_556 S
N1134  C344    1.416   1_556 S
O1138  C850    1.398   1_565 S
O1140  H875    1.014   1_565 S
