data_str_m2_o2_o10_pcu_sym.189
_audit_creation_date              2020-01-03
_audit_creation_method            'Materials Studio'
_symmetry_space_group_name_H-M    'P1'
_symmetry_Int_Tables_number       1
_symmetry_cell_setting            triclinic
loop_
_symmetry_equiv_pos_as_xyz
  x,y,z
_cell_length_a                    26.2515
_cell_length_b                    30.1928
_cell_length_c                    27.9770
_cell_angle_alpha                 87.5757
_cell_angle_beta                  97.0865
_cell_angle_gamma                 92.7721
loop_
_atom_site_label
_atom_site_type_symbol
_atom_site_fract_x
_atom_site_fract_y
_atom_site_fract_z
_atom_site_U_iso_or_equiv
_atom_site_adp_type
_atom_site_occupancy
C1     C     0.16682   0.16501   0.25074   0.00000  Uiso   1.00
C2     C     0.16705   0.33500   0.24927   0.00000  Uiso   1.00
C3     C     0.20303   0.27853   0.05571   0.00000  Uiso   1.00
C4     C     0.17620   0.21142   0.45021   0.00000  Uiso   1.00
C5     C     0.20028   0.27921   0.10679   0.00000  Uiso   1.00
C6     C     0.16475   0.21070   0.39890   0.00000  Uiso   1.00
C7     C     0.13228   0.22393   0.10139   0.00000  Uiso   1.00
C8     C     0.16061   0.28847   0.39315   0.00000  Uiso   1.00
C9     C     0.13050   0.22533   0.05072   0.00000  Uiso   1.00
C10    C     0.15583   0.28857   0.44289   0.00000  Uiso   1.00
C11    C     0.16648   0.25173   0.02715   0.00000  Uiso   1.00
C12    C     0.16636   0.25049   0.47294   0.00000  Uiso   1.00
C13    C     0.06818   0.24993   0.23786   0.00000  Uiso   1.00
C14    C     0.26516   0.25062   0.26208   0.00000  Uiso   1.00
C15    C     0.01319   0.24836   0.23116   0.00000  Uiso   1.00
C16    C     0.32013   0.25314   0.26855   0.00000  Uiso   1.00
C17    C     0.13640   0.04466   0.28102   0.00000  Uiso   1.00
C18    C     0.14124   0.45283   0.20747   0.00000  Uiso   1.00
C19    C     0.13709   0.09102   0.28076   0.00000  Uiso   1.00
C20    C     0.14147   0.40644   0.20894   0.00000  Uiso   1.00
C21    C     0.16776   0.11669   0.25176   0.00000  Uiso   1.00
C22    C     0.16787   0.38337   0.24804   0.00000  Uiso   1.00
C23    C     0.19824   0.09600   0.22231   0.00000  Uiso   1.00
C24    C     0.19463   0.40666   0.28630   0.00000  Uiso   1.00
C25    C     0.19754   0.05003   0.22153   0.00000  Uiso   1.00
C26    C     0.19407   0.45258   0.28587   0.00000  Uiso   1.00
C27    C     0.16588   0.02416   0.24966   0.00000  Uiso   1.00
C28    C     0.16639   0.47583   0.24752   0.00000  Uiso   1.00
Cu29   Cu    0.16667   0.25000   0.29822   0.00000  Uiso   1.00
Cu30   Cu    0.16667   0.25001   0.20179   0.00000  Uiso   1.00
H31    H     0.11263   0.10701   0.30243   0.00000  Uiso   1.00
H32    H     0.12027   0.38817   0.17988   0.00000  Uiso   1.00
H33    H     0.10484   0.20261   0.11829   0.00000  Uiso   1.00
H34    H     0.15561   0.31926   0.37258   0.00000  Uiso   1.00
N35    N     0.16667   0.25001   0.12935   0.00000  Uiso   1.00
N36    N     0.16667   0.24999   0.37065   0.00000  Uiso   1.00
O37    O     0.16667   0.18573   0.29071   0.00000  Uiso   1.00
O38    O     0.16666   0.31428   0.20929   0.00000  Uiso   1.00
O39    O     0.16667   0.18573   0.20928   0.00000  Uiso   1.00
O40    O     0.16666   0.31427   0.29072   0.00000  Uiso   1.00
O41    O     0.09161   0.25000   0.28132   0.00000  Uiso   1.00
O42    O     0.24172   0.25001   0.21868   0.00000  Uiso   1.00
O43    O     0.09161   0.25000   0.19989   0.00000  Uiso   1.00
O44    O     0.24172   0.25000   0.30012   0.00000  Uiso   1.00
F45    F     0.32291   0.24074   0.18587   0.00000  Uiso   1.00
F46    F     0.01036   0.26184   0.31354   0.00000  Uiso   1.00
C47    C     0.10574   0.01871   0.31639   0.00000  Uiso   1.00
C48    C     0.05627   0.49687   0.29201   0.00000  Uiso   1.00
H49    H     0.03313   0.02173   0.26968   0.00000  Uiso   1.00
H50    H     0.06492   0.46954   0.26950   0.00000  Uiso   1.00
H51    H     0.03309   0.48245   0.31993   0.00000  Uiso   1.00
H52    H     0.12941   0.49320   0.33687   0.00000  Uiso   1.00
H53    H     0.09507   0.04109   0.34378   0.00000  Uiso   1.00
C54    C     0.11601   0.47626   0.16217   0.00000  Uiso   1.00
C55    C     0.06461   0.49502   0.16897   0.00000  Uiso   1.00
H56    H     0.03877   0.46870   0.18302   0.00000  Uiso   1.00
H57    H     0.07028   0.02297   0.19374   0.00000  Uiso   1.00
H58    H     0.04589   0.00788   0.13369   0.00000  Uiso   1.00
H59    H     0.14201   0.00318   0.14973   0.00000  Uiso   1.00
H60    H     0.10900   0.45280   0.13222   0.00000  Uiso   1.00
F61    F     0.22935   0.12033   0.19485   0.00000  Uiso   1.00
F62    F     0.22206   0.38503   0.32376   0.00000  Uiso   1.00
F63    F     0.22849   0.03053   0.19385   0.00000  Uiso   1.00
F64    F     0.22110   0.47467   0.32279   0.00000  Uiso   1.00
C65    C     0.24415   0.30671   0.03138   0.00000  Uiso   1.00
C66    C     0.28554   0.27936   0.01472   0.00000  Uiso   1.00
H67    H     0.30144   0.25635   0.04422   0.00000  Uiso   1.00
H68    H     0.27013   0.26109   0.48226   0.00000  Uiso   1.00
H69    H     0.31752   0.30183   0.00451   0.00000  Uiso   1.00
H70    H     0.22652   0.32702   0.00062   0.00000  Uiso   1.00
H71    H     0.26524   0.33196   0.05411   0.00000  Uiso   1.00
C72    C     0.19252   0.16895   0.47923   0.00000  Uiso   1.00
C73    C     0.24351   0.17350   0.01165   0.00000  Uiso   1.00
H74    H     0.27464   0.18557   0.49030   0.00000  Uiso   1.00
H75    H     0.24083   0.19533   0.04188   0.00000  Uiso   1.00
H76    H     0.25375   0.14037   0.02777   0.00000  Uiso   1.00
H77    H     0.16201   0.15640   0.00099   0.00000  Uiso   1.00
H78    H     0.19868   0.14223   0.45476   0.00000  Uiso   1.00
C79    C     0.23255   0.31543   0.13430   0.00000  Uiso   1.00
C80    C     0.20975   0.36109   0.12298   0.00000  Uiso   1.00
H81    H     0.21413   0.37382   0.08597   0.00000  Uiso   1.00
H82    H     0.16809   0.35902   0.12633   0.00000  Uiso   1.00
H83    H     0.22906   0.38551   0.14862   0.00000  Uiso   1.00
H84    H     0.23690   0.31070   0.17292   0.00000  Uiso   1.00
H85    H     0.27329   0.31549   0.12762   0.00000  Uiso   1.00
C86    C     0.13517   0.16866   0.38044   0.00000  Uiso   1.00
C87    C     0.08124   0.17688   0.35475   0.00000  Uiso   1.00
H88    H     0.06663   0.20809   0.36633   0.00000  Uiso   1.00
H89    H     0.08042   0.17723   0.31524   0.00000  Uiso   1.00
H90    H     0.05391   0.14936   0.36368   0.00000  Uiso   1.00
H91    H     0.15890   0.14817   0.36105   0.00000  Uiso   1.00
H92    H     0.12652   0.14602   0.41089   0.00000  Uiso   1.00
F93    F     0.09299   0.20100   0.02456   0.00000  Uiso   1.00
F94    F     0.14121   0.32608   0.46153   0.00000  Uiso   1.00
C95    C     0.50016   0.16501   0.25074   0.00000  Uiso   1.00
C96    C     0.50039   0.33500   0.24927   0.00000  Uiso   1.00
C97    C     0.53637   0.27853   0.05571   0.00000  Uiso   1.00
C98    C     0.50954   0.21142   0.45021   0.00000  Uiso   1.00
C99    C     0.53361   0.27921   0.10679   0.00000  Uiso   1.00
C100   C     0.49808   0.21070   0.39890   0.00000  Uiso   1.00
C101   C     0.46562   0.22393   0.10139   0.00000  Uiso   1.00
C102   C     0.49395   0.28847   0.39315   0.00000  Uiso   1.00
C103   C     0.46383   0.22533   0.05072   0.00000  Uiso   1.00
C104   C     0.48917   0.28857   0.44289   0.00000  Uiso   1.00
C105   C     0.49981   0.25173   0.02715   0.00000  Uiso   1.00
C106   C     0.49969   0.25049   0.47294   0.00000  Uiso   1.00
C107   C     0.40151   0.24993   0.23786   0.00000  Uiso   1.00
C108   C     0.59849   0.25062   0.26208   0.00000  Uiso   1.00
C109   C     0.34652   0.24836   0.23116   0.00000  Uiso   1.00
C110   C     0.65346   0.25314   0.26855   0.00000  Uiso   1.00
C111   C     0.46973   0.04466   0.28102   0.00000  Uiso   1.00
C112   C     0.47457   0.45283   0.20747   0.00000  Uiso   1.00
C113   C     0.47042   0.09102   0.28076   0.00000  Uiso   1.00
C114   C     0.47481   0.40644   0.20894   0.00000  Uiso   1.00
C115   C     0.50110   0.11669   0.25176   0.00000  Uiso   1.00
C116   C     0.50120   0.38337   0.24804   0.00000  Uiso   1.00
C117   C     0.53158   0.09600   0.22231   0.00000  Uiso   1.00
C118   C     0.52796   0.40666   0.28630   0.00000  Uiso   1.00
C119   C     0.53087   0.05003   0.22153   0.00000  Uiso   1.00
C120   C     0.52740   0.45258   0.28587   0.00000  Uiso   1.00
C121   C     0.49922   0.02416   0.24966   0.00000  Uiso   1.00
C122   C     0.49972   0.47583   0.24752   0.00000  Uiso   1.00
Cu123  Cu    0.50000   0.25000   0.29822   0.00000  Uiso   1.00
Cu124  Cu    0.50000   0.25001   0.20179   0.00000  Uiso   1.00
H125   H     0.44596   0.10701   0.30243   0.00000  Uiso   1.00
H126   H     0.45360   0.38817   0.17988   0.00000  Uiso   1.00
H127   H     0.43817   0.20261   0.11829   0.00000  Uiso   1.00
H128   H     0.48894   0.31926   0.37258   0.00000  Uiso   1.00
N129   N     0.50000   0.25001   0.12935   0.00000  Uiso   1.00
N130   N     0.50000   0.24999   0.37065   0.00000  Uiso   1.00
O131   O     0.50000   0.18573   0.29071   0.00000  Uiso   1.00
O132   O     0.50000   0.31428   0.20929   0.00000  Uiso   1.00
O133   O     0.50000   0.18573   0.20928   0.00000  Uiso   1.00
O134   O     0.50000   0.31427   0.29072   0.00000  Uiso   1.00
O135   O     0.42495   0.25000   0.28132   0.00000  Uiso   1.00
O136   O     0.57505   0.25001   0.21868   0.00000  Uiso   1.00
O137   O     0.42495   0.25000   0.19989   0.00000  Uiso   1.00
O138   O     0.57505   0.25000   0.30012   0.00000  Uiso   1.00
F139   F     0.65624   0.24074   0.18587   0.00000  Uiso   1.00
F140   F     0.34370   0.26184   0.31354   0.00000  Uiso   1.00
C141   C     0.43908   0.01871   0.31639   0.00000  Uiso   1.00
C142   C     0.38960   0.49687   0.29201   0.00000  Uiso   1.00
H143   H     0.36646   0.02173   0.26968   0.00000  Uiso   1.00
H144   H     0.39826   0.46954   0.26950   0.00000  Uiso   1.00
H145   H     0.36642   0.48245   0.31993   0.00000  Uiso   1.00
H146   H     0.46275   0.49320   0.33687   0.00000  Uiso   1.00
H147   H     0.42840   0.04109   0.34378   0.00000  Uiso   1.00
C148   C     0.44934   0.47626   0.16217   0.00000  Uiso   1.00
C149   C     0.39795   0.49502   0.16897   0.00000  Uiso   1.00
H150   H     0.37210   0.46870   0.18302   0.00000  Uiso   1.00
H151   H     0.40362   0.02297   0.19374   0.00000  Uiso   1.00
H152   H     0.37922   0.00788   0.13369   0.00000  Uiso   1.00
H153   H     0.47534   0.00318   0.14973   0.00000  Uiso   1.00
H154   H     0.44233   0.45280   0.13222   0.00000  Uiso   1.00
F155   F     0.56268   0.12033   0.19485   0.00000  Uiso   1.00
F156   F     0.55539   0.38503   0.32376   0.00000  Uiso   1.00
F157   F     0.56182   0.03053   0.19385   0.00000  Uiso   1.00
F158   F     0.55443   0.47467   0.32279   0.00000  Uiso   1.00
C159   C     0.57749   0.30671   0.03138   0.00000  Uiso   1.00
C160   C     0.61887   0.27936   0.01472   0.00000  Uiso   1.00
H161   H     0.63477   0.25635   0.04422   0.00000  Uiso   1.00
H162   H     0.60347   0.26109   0.48226   0.00000  Uiso   1.00
H163   H     0.65085   0.30183   0.00451   0.00000  Uiso   1.00
H164   H     0.55985   0.32702   0.00062   0.00000  Uiso   1.00
H165   H     0.59857   0.33196   0.05411   0.00000  Uiso   1.00
C166   C     0.52586   0.16895   0.47923   0.00000  Uiso   1.00
C167   C     0.57684   0.17350   0.01165   0.00000  Uiso   1.00
H168   H     0.60797   0.18557   0.49030   0.00000  Uiso   1.00
H169   H     0.57416   0.19533   0.04188   0.00000  Uiso   1.00
H170   H     0.58708   0.14037   0.02777   0.00000  Uiso   1.00
H171   H     0.49534   0.15640   0.00099   0.00000  Uiso   1.00
H172   H     0.53201   0.14223   0.45476   0.00000  Uiso   1.00
C173   C     0.56588   0.31543   0.13430   0.00000  Uiso   1.00
C174   C     0.54309   0.36109   0.12298   0.00000  Uiso   1.00
H175   H     0.54747   0.37382   0.08597   0.00000  Uiso   1.00
H176   H     0.50142   0.35902   0.12633   0.00000  Uiso   1.00
H177   H     0.56240   0.38551   0.14862   0.00000  Uiso   1.00
H178   H     0.57023   0.31070   0.17292   0.00000  Uiso   1.00
H179   H     0.60663   0.31549   0.12762   0.00000  Uiso   1.00
C180   C     0.46851   0.16866   0.38044   0.00000  Uiso   1.00
C181   C     0.41458   0.17688   0.35475   0.00000  Uiso   1.00
H182   H     0.39997   0.20809   0.36633   0.00000  Uiso   1.00
H183   H     0.41375   0.17723   0.31524   0.00000  Uiso   1.00
H184   H     0.38724   0.14936   0.36368   0.00000  Uiso   1.00
H185   H     0.49223   0.14817   0.36105   0.00000  Uiso   1.00
H186   H     0.45985   0.14602   0.41089   0.00000  Uiso   1.00
F187   F     0.42633   0.20100   0.02456   0.00000  Uiso   1.00
F188   F     0.47454   0.32608   0.46153   0.00000  Uiso   1.00
C189   C     0.83349   0.16501   0.25074   0.00000  Uiso   1.00
C190   C     0.83372   0.33500   0.24927   0.00000  Uiso   1.00
C191   C     0.86970   0.27853   0.05571   0.00000  Uiso   1.00
C192   C     0.84287   0.21142   0.45021   0.00000  Uiso   1.00
C193   C     0.86695   0.27921   0.10679   0.00000  Uiso   1.00
C194   C     0.83141   0.21070   0.39890   0.00000  Uiso   1.00
C195   C     0.79895   0.22393   0.10139   0.00000  Uiso   1.00
C196   C     0.82728   0.28847   0.39315   0.00000  Uiso   1.00
C197   C     0.79716   0.22533   0.05072   0.00000  Uiso   1.00
C198   C     0.82250   0.28857   0.44289   0.00000  Uiso   1.00
C199   C     0.83315   0.25173   0.02715   0.00000  Uiso   1.00
C200   C     0.83303   0.25049   0.47294   0.00000  Uiso   1.00
C201   C     0.73484   0.24993   0.23786   0.00000  Uiso   1.00
C202   C     0.93183   0.25062   0.26208   0.00000  Uiso   1.00
C203   C     0.67985   0.24836   0.23116   0.00000  Uiso   1.00
C204   C     0.98680   0.25314   0.26855   0.00000  Uiso   1.00
C205   C     0.80307   0.04466   0.28102   0.00000  Uiso   1.00
C206   C     0.80791   0.45283   0.20747   0.00000  Uiso   1.00
C207   C     0.80376   0.09102   0.28076   0.00000  Uiso   1.00
C208   C     0.80814   0.40644   0.20894   0.00000  Uiso   1.00
C209   C     0.83443   0.11669   0.25176   0.00000  Uiso   1.00
C210   C     0.83454   0.38337   0.24804   0.00000  Uiso   1.00
C211   C     0.86491   0.09600   0.22231   0.00000  Uiso   1.00
C212   C     0.86130   0.40666   0.28630   0.00000  Uiso   1.00
C213   C     0.86421   0.05003   0.22153   0.00000  Uiso   1.00
C214   C     0.86073   0.45258   0.28587   0.00000  Uiso   1.00
C215   C     0.83255   0.02416   0.24966   0.00000  Uiso   1.00
C216   C     0.83305   0.47583   0.24752   0.00000  Uiso   1.00
Cu217  Cu    0.83333   0.25000   0.29822   0.00000  Uiso   1.00
Cu218  Cu    0.83333   0.25001   0.20179   0.00000  Uiso   1.00
H219   H     0.77929   0.10701   0.30243   0.00000  Uiso   1.00
H220   H     0.78693   0.38817   0.17988   0.00000  Uiso   1.00
H221   H     0.77150   0.20261   0.11829   0.00000  Uiso   1.00
H222   H     0.82227   0.31926   0.37258   0.00000  Uiso   1.00
N223   N     0.83333   0.25001   0.12935   0.00000  Uiso   1.00
N224   N     0.83333   0.24999   0.37065   0.00000  Uiso   1.00
O225   O     0.83334   0.18573   0.29071   0.00000  Uiso   1.00
O226   O     0.83333   0.31428   0.20929   0.00000  Uiso   1.00
O227   O     0.83334   0.18573   0.20928   0.00000  Uiso   1.00
O228   O     0.83333   0.31427   0.29072   0.00000  Uiso   1.00
O229   O     0.75828   0.25000   0.28132   0.00000  Uiso   1.00
O230   O     0.90839   0.25001   0.21868   0.00000  Uiso   1.00
O231   O     0.75828   0.25000   0.19989   0.00000  Uiso   1.00
O232   O     0.90839   0.25000   0.30012   0.00000  Uiso   1.00
F233   F     0.98958   0.24074   0.18587   0.00000  Uiso   1.00
F234   F     0.67703   0.26184   0.31354   0.00000  Uiso   1.00
C235   C     0.77241   0.01871   0.31639   0.00000  Uiso   1.00
C236   C     0.72293   0.49687   0.29201   0.00000  Uiso   1.00
H237   H     0.69980   0.02173   0.26968   0.00000  Uiso   1.00
H238   H     0.73159   0.46954   0.26950   0.00000  Uiso   1.00
H239   H     0.69976   0.48245   0.31993   0.00000  Uiso   1.00
H240   H     0.79608   0.49320   0.33687   0.00000  Uiso   1.00
H241   H     0.76174   0.04109   0.34378   0.00000  Uiso   1.00
C242   C     0.78267   0.47626   0.16217   0.00000  Uiso   1.00
C243   C     0.73128   0.49502   0.16897   0.00000  Uiso   1.00
H244   H     0.70544   0.46870   0.18302   0.00000  Uiso   1.00
H245   H     0.73695   0.02297   0.19374   0.00000  Uiso   1.00
H246   H     0.71255   0.00788   0.13369   0.00000  Uiso   1.00
H247   H     0.80867   0.00318   0.14973   0.00000  Uiso   1.00
H248   H     0.77567   0.45280   0.13222   0.00000  Uiso   1.00
F249   F     0.89601   0.12033   0.19485   0.00000  Uiso   1.00
F250   F     0.88873   0.38503   0.32376   0.00000  Uiso   1.00
F251   F     0.89515   0.03053   0.19385   0.00000  Uiso   1.00
F252   F     0.88776   0.47467   0.32279   0.00000  Uiso   1.00
C253   C     0.91082   0.30671   0.03138   0.00000  Uiso   1.00
C254   C     0.95221   0.27936   0.01472   0.00000  Uiso   1.00
H255   H     0.96810   0.25635   0.04422   0.00000  Uiso   1.00
H256   H     0.93680   0.26109   0.48226   0.00000  Uiso   1.00
H257   H     0.98419   0.30183   0.00451   0.00000  Uiso   1.00
H258   H     0.89319   0.32702   0.00062   0.00000  Uiso   1.00
H259   H     0.93191   0.33196   0.05411   0.00000  Uiso   1.00
C260   C     0.85919   0.16895   0.47923   0.00000  Uiso   1.00
C261   C     0.91018   0.17350   0.01165   0.00000  Uiso   1.00
H262   H     0.94131   0.18557   0.49030   0.00000  Uiso   1.00
H263   H     0.90749   0.19533   0.04188   0.00000  Uiso   1.00
H264   H     0.92042   0.14037   0.02777   0.00000  Uiso   1.00
H265   H     0.82868   0.15640   0.00099   0.00000  Uiso   1.00
H266   H     0.86535   0.14223   0.45476   0.00000  Uiso   1.00
C267   C     0.89922   0.31543   0.13430   0.00000  Uiso   1.00
C268   C     0.87642   0.36109   0.12298   0.00000  Uiso   1.00
H269   H     0.88080   0.37382   0.08597   0.00000  Uiso   1.00
H270   H     0.83476   0.35902   0.12633   0.00000  Uiso   1.00
H271   H     0.89573   0.38551   0.14862   0.00000  Uiso   1.00
H272   H     0.90357   0.31070   0.17292   0.00000  Uiso   1.00
H273   H     0.93996   0.31549   0.12762   0.00000  Uiso   1.00
C274   C     0.80184   0.16866   0.38044   0.00000  Uiso   1.00
C275   C     0.74791   0.17688   0.35475   0.00000  Uiso   1.00
H276   H     0.73330   0.20809   0.36633   0.00000  Uiso   1.00
H277   H     0.74709   0.17723   0.31524   0.00000  Uiso   1.00
H278   H     0.72058   0.14936   0.36368   0.00000  Uiso   1.00
H279   H     0.82556   0.14817   0.36105   0.00000  Uiso   1.00
H280   H     0.79318   0.14602   0.41089   0.00000  Uiso   1.00
F281   F     0.75966   0.20100   0.02456   0.00000  Uiso   1.00
F282   F     0.80788   0.32608   0.46153   0.00000  Uiso   1.00
C283   C     0.16682   0.66501   0.25074   0.00000  Uiso   1.00
C284   C     0.16705   0.83500   0.24927   0.00000  Uiso   1.00
C285   C     0.20303   0.77853   0.05571   0.00000  Uiso   1.00
C286   C     0.17620   0.71142   0.45021   0.00000  Uiso   1.00
C287   C     0.20028   0.77921   0.10679   0.00000  Uiso   1.00
C288   C     0.16475   0.71070   0.39890   0.00000  Uiso   1.00
C289   C     0.13228   0.72393   0.10139   0.00000  Uiso   1.00
C290   C     0.16061   0.78847   0.39315   0.00000  Uiso   1.00
C291   C     0.13050   0.72533   0.05072   0.00000  Uiso   1.00
C292   C     0.15583   0.78857   0.44289   0.00000  Uiso   1.00
C293   C     0.16648   0.75173   0.02715   0.00000  Uiso   1.00
C294   C     0.16636   0.75049   0.47294   0.00000  Uiso   1.00
C295   C     0.06818   0.74993   0.23786   0.00000  Uiso   1.00
C296   C     0.26516   0.75062   0.26208   0.00000  Uiso   1.00
C297   C     0.01319   0.74836   0.23116   0.00000  Uiso   1.00
C298   C     0.32013   0.75314   0.26855   0.00000  Uiso   1.00
C299   C     0.13640   0.54466   0.28102   0.00000  Uiso   1.00
C300   C     0.14124   0.95283   0.20747   0.00000  Uiso   1.00
C301   C     0.13709   0.59102   0.28076   0.00000  Uiso   1.00
C302   C     0.14147   0.90644   0.20894   0.00000  Uiso   1.00
C303   C     0.16776   0.61669   0.25176   0.00000  Uiso   1.00
C304   C     0.16787   0.88337   0.24804   0.00000  Uiso   1.00
C305   C     0.19824   0.59600   0.22231   0.00000  Uiso   1.00
C306   C     0.19463   0.90666   0.28630   0.00000  Uiso   1.00
C307   C     0.19754   0.55003   0.22153   0.00000  Uiso   1.00
C308   C     0.19407   0.95258   0.28587   0.00000  Uiso   1.00
C309   C     0.16588   0.52416   0.24966   0.00000  Uiso   1.00
C310   C     0.16639   0.97583   0.24752   0.00000  Uiso   1.00
Cu311  Cu    0.16667   0.75000   0.29822   0.00000  Uiso   1.00
Cu312  Cu    0.16667   0.75001   0.20179   0.00000  Uiso   1.00
H313   H     0.11263   0.60701   0.30243   0.00000  Uiso   1.00
H314   H     0.12027   0.88817   0.17988   0.00000  Uiso   1.00
H315   H     0.10484   0.70261   0.11829   0.00000  Uiso   1.00
H316   H     0.15561   0.81926   0.37258   0.00000  Uiso   1.00
N317   N     0.16667   0.75001   0.12935   0.00000  Uiso   1.00
N318   N     0.16667   0.74999   0.37065   0.00000  Uiso   1.00
O319   O     0.16667   0.68573   0.29071   0.00000  Uiso   1.00
O320   O     0.16666   0.81428   0.20929   0.00000  Uiso   1.00
O321   O     0.16667   0.68573   0.20928   0.00000  Uiso   1.00
O322   O     0.16666   0.81427   0.29072   0.00000  Uiso   1.00
O323   O     0.09161   0.75000   0.28132   0.00000  Uiso   1.00
O324   O     0.24172   0.75001   0.21868   0.00000  Uiso   1.00
O325   O     0.09161   0.75000   0.19989   0.00000  Uiso   1.00
O326   O     0.24172   0.75000   0.30012   0.00000  Uiso   1.00
F327   F     0.32291   0.74074   0.18587   0.00000  Uiso   1.00
F328   F     0.01036   0.76184   0.31354   0.00000  Uiso   1.00
C329   C     0.10574   0.51871   0.31639   0.00000  Uiso   1.00
C330   C     0.05627   0.99687   0.29201   0.00000  Uiso   1.00
H331   H     0.03313   0.52173   0.26968   0.00000  Uiso   1.00
H332   H     0.06492   0.96954   0.26950   0.00000  Uiso   1.00
H333   H     0.03309   0.98245   0.31993   0.00000  Uiso   1.00
H334   H     0.12941   0.99320   0.33687   0.00000  Uiso   1.00
H335   H     0.09507   0.54109   0.34378   0.00000  Uiso   1.00
C336   C     0.11601   0.97626   0.16217   0.00000  Uiso   1.00
C337   C     0.06461   0.99502   0.16897   0.00000  Uiso   1.00
H338   H     0.03877   0.96870   0.18302   0.00000  Uiso   1.00
H339   H     0.07028   0.52297   0.19374   0.00000  Uiso   1.00
H340   H     0.04589   0.50788   0.13369   0.00000  Uiso   1.00
H341   H     0.14201   0.50318   0.14973   0.00000  Uiso   1.00
H342   H     0.10900   0.95280   0.13222   0.00000  Uiso   1.00
F343   F     0.22935   0.62033   0.19485   0.00000  Uiso   1.00
F344   F     0.22206   0.88503   0.32376   0.00000  Uiso   1.00
F345   F     0.22849   0.53053   0.19385   0.00000  Uiso   1.00
F346   F     0.22110   0.97467   0.32279   0.00000  Uiso   1.00
C347   C     0.24415   0.80671   0.03138   0.00000  Uiso   1.00
C348   C     0.28554   0.77936   0.01472   0.00000  Uiso   1.00
H349   H     0.30144   0.75635   0.04422   0.00000  Uiso   1.00
H350   H     0.27013   0.76109   0.48226   0.00000  Uiso   1.00
H351   H     0.31752   0.80183   0.00451   0.00000  Uiso   1.00
H352   H     0.22652   0.82702   0.00062   0.00000  Uiso   1.00
H353   H     0.26524   0.83196   0.05411   0.00000  Uiso   1.00
C354   C     0.19252   0.66895   0.47923   0.00000  Uiso   1.00
C355   C     0.24351   0.67350   0.01165   0.00000  Uiso   1.00
H356   H     0.27464   0.68557   0.49030   0.00000  Uiso   1.00
H357   H     0.24083   0.69533   0.04188   0.00000  Uiso   1.00
H358   H     0.25375   0.64037   0.02777   0.00000  Uiso   1.00
H359   H     0.16201   0.65640   0.00099   0.00000  Uiso   1.00
H360   H     0.19868   0.64223   0.45476   0.00000  Uiso   1.00
C361   C     0.23255   0.81543   0.13430   0.00000  Uiso   1.00
C362   C     0.20975   0.86109   0.12298   0.00000  Uiso   1.00
H363   H     0.21413   0.87382   0.08597   0.00000  Uiso   1.00
H364   H     0.16809   0.85902   0.12633   0.00000  Uiso   1.00
H365   H     0.22906   0.88551   0.14862   0.00000  Uiso   1.00
H366   H     0.23690   0.81070   0.17292   0.00000  Uiso   1.00
H367   H     0.27329   0.81549   0.12762   0.00000  Uiso   1.00
C368   C     0.13517   0.66866   0.38044   0.00000  Uiso   1.00
C369   C     0.08124   0.67688   0.35475   0.00000  Uiso   1.00
H370   H     0.06663   0.70809   0.36633   0.00000  Uiso   1.00
H371   H     0.08042   0.67723   0.31524   0.00000  Uiso   1.00
H372   H     0.05391   0.64936   0.36368   0.00000  Uiso   1.00
H373   H     0.15890   0.64817   0.36105   0.00000  Uiso   1.00
H374   H     0.12652   0.64602   0.41089   0.00000  Uiso   1.00
F375   F     0.09299   0.70100   0.02456   0.00000  Uiso   1.00
F376   F     0.14121   0.82608   0.46153   0.00000  Uiso   1.00
C377   C     0.50016   0.66501   0.25074   0.00000  Uiso   1.00
C378   C     0.50039   0.83500   0.24927   0.00000  Uiso   1.00
C379   C     0.53637   0.77853   0.05571   0.00000  Uiso   1.00
C380   C     0.50954   0.71142   0.45021   0.00000  Uiso   1.00
C381   C     0.53361   0.77921   0.10679   0.00000  Uiso   1.00
C382   C     0.49808   0.71070   0.39890   0.00000  Uiso   1.00
C383   C     0.46562   0.72393   0.10139   0.00000  Uiso   1.00
C384   C     0.49395   0.78847   0.39315   0.00000  Uiso   1.00
C385   C     0.46383   0.72533   0.05072   0.00000  Uiso   1.00
C386   C     0.48917   0.78857   0.44289   0.00000  Uiso   1.00
C387   C     0.49981   0.75173   0.02715   0.00000  Uiso   1.00
C388   C     0.49969   0.75049   0.47294   0.00000  Uiso   1.00
C389   C     0.40151   0.74993   0.23786   0.00000  Uiso   1.00
C390   C     0.59849   0.75062   0.26208   0.00000  Uiso   1.00
C391   C     0.34652   0.74836   0.23116   0.00000  Uiso   1.00
C392   C     0.65346   0.75314   0.26855   0.00000  Uiso   1.00
C393   C     0.46973   0.54466   0.28102   0.00000  Uiso   1.00
C394   C     0.47457   0.95283   0.20747   0.00000  Uiso   1.00
C395   C     0.47042   0.59102   0.28076   0.00000  Uiso   1.00
C396   C     0.47481   0.90644   0.20894   0.00000  Uiso   1.00
C397   C     0.50110   0.61669   0.25176   0.00000  Uiso   1.00
C398   C     0.50120   0.88337   0.24804   0.00000  Uiso   1.00
C399   C     0.53158   0.59600   0.22231   0.00000  Uiso   1.00
C400   C     0.52796   0.90666   0.28630   0.00000  Uiso   1.00
C401   C     0.53087   0.55003   0.22153   0.00000  Uiso   1.00
C402   C     0.52740   0.95258   0.28587   0.00000  Uiso   1.00
C403   C     0.49922   0.52416   0.24966   0.00000  Uiso   1.00
C404   C     0.49972   0.97583   0.24752   0.00000  Uiso   1.00
Cu405  Cu    0.50000   0.75000   0.29822   0.00000  Uiso   1.00
Cu406  Cu    0.50000   0.75001   0.20179   0.00000  Uiso   1.00
H407   H     0.44596   0.60701   0.30243   0.00000  Uiso   1.00
H408   H     0.45360   0.88817   0.17988   0.00000  Uiso   1.00
H409   H     0.43817   0.70261   0.11829   0.00000  Uiso   1.00
H410   H     0.48894   0.81926   0.37258   0.00000  Uiso   1.00
N411   N     0.50000   0.75001   0.12935   0.00000  Uiso   1.00
N412   N     0.50000   0.74999   0.37065   0.00000  Uiso   1.00
O413   O     0.50000   0.68573   0.29071   0.00000  Uiso   1.00
O414   O     0.50000   0.81428   0.20929   0.00000  Uiso   1.00
O415   O     0.50000   0.68573   0.20928   0.00000  Uiso   1.00
O416   O     0.50000   0.81427   0.29072   0.00000  Uiso   1.00
O417   O     0.42495   0.75000   0.28132   0.00000  Uiso   1.00
O418   O     0.57505   0.75001   0.21868   0.00000  Uiso   1.00
O419   O     0.42495   0.75000   0.19989   0.00000  Uiso   1.00
O420   O     0.57505   0.75000   0.30012   0.00000  Uiso   1.00
F421   F     0.65624   0.74074   0.18587   0.00000  Uiso   1.00
F422   F     0.34370   0.76184   0.31354   0.00000  Uiso   1.00
C423   C     0.43908   0.51871   0.31639   0.00000  Uiso   1.00
C424   C     0.38960   0.99687   0.29201   0.00000  Uiso   1.00
H425   H     0.36646   0.52173   0.26968   0.00000  Uiso   1.00
H426   H     0.39826   0.96954   0.26950   0.00000  Uiso   1.00
H427   H     0.36642   0.98245   0.31993   0.00000  Uiso   1.00
H428   H     0.46275   0.99320   0.33687   0.00000  Uiso   1.00
H429   H     0.42840   0.54109   0.34378   0.00000  Uiso   1.00
C430   C     0.44934   0.97626   0.16217   0.00000  Uiso   1.00
C431   C     0.39795   0.99502   0.16897   0.00000  Uiso   1.00
H432   H     0.37210   0.96870   0.18302   0.00000  Uiso   1.00
H433   H     0.40362   0.52297   0.19374   0.00000  Uiso   1.00
H434   H     0.37922   0.50788   0.13369   0.00000  Uiso   1.00
H435   H     0.47534   0.50318   0.14973   0.00000  Uiso   1.00
H436   H     0.44233   0.95280   0.13222   0.00000  Uiso   1.00
F437   F     0.56268   0.62033   0.19485   0.00000  Uiso   1.00
F438   F     0.55539   0.88503   0.32376   0.00000  Uiso   1.00
F439   F     0.56182   0.53053   0.19385   0.00000  Uiso   1.00
F440   F     0.55443   0.97467   0.32279   0.00000  Uiso   1.00
C441   C     0.57749   0.80671   0.03138   0.00000  Uiso   1.00
C442   C     0.61887   0.77936   0.01472   0.00000  Uiso   1.00
H443   H     0.63477   0.75635   0.04422   0.00000  Uiso   1.00
H444   H     0.60347   0.76109   0.48226   0.00000  Uiso   1.00
H445   H     0.65085   0.80183   0.00451   0.00000  Uiso   1.00
H446   H     0.55985   0.82702   0.00062   0.00000  Uiso   1.00
H447   H     0.59857   0.83196   0.05411   0.00000  Uiso   1.00
C448   C     0.52586   0.66895   0.47923   0.00000  Uiso   1.00
C449   C     0.57684   0.67350   0.01165   0.00000  Uiso   1.00
H450   H     0.60797   0.68557   0.49030   0.00000  Uiso   1.00
H451   H     0.57416   0.69533   0.04188   0.00000  Uiso   1.00
H452   H     0.58708   0.64037   0.02777   0.00000  Uiso   1.00
H453   H     0.49534   0.65640   0.00099   0.00000  Uiso   1.00
H454   H     0.53201   0.64223   0.45476   0.00000  Uiso   1.00
C455   C     0.56588   0.81543   0.13430   0.00000  Uiso   1.00
C456   C     0.54309   0.86109   0.12298   0.00000  Uiso   1.00
H457   H     0.54747   0.87382   0.08597   0.00000  Uiso   1.00
H458   H     0.50142   0.85902   0.12633   0.00000  Uiso   1.00
H459   H     0.56240   0.88551   0.14862   0.00000  Uiso   1.00
H460   H     0.57023   0.81070   0.17292   0.00000  Uiso   1.00
H461   H     0.60663   0.81549   0.12762   0.00000  Uiso   1.00
C462   C     0.46851   0.66866   0.38044   0.00000  Uiso   1.00
C463   C     0.41458   0.67688   0.35475   0.00000  Uiso   1.00
H464   H     0.39997   0.70809   0.36633   0.00000  Uiso   1.00
H465   H     0.41375   0.67723   0.31524   0.00000  Uiso   1.00
H466   H     0.38724   0.64936   0.36368   0.00000  Uiso   1.00
H467   H     0.49223   0.64817   0.36105   0.00000  Uiso   1.00
H468   H     0.45985   0.64602   0.41089   0.00000  Uiso   1.00
F469   F     0.42633   0.70100   0.02456   0.00000  Uiso   1.00
F470   F     0.47454   0.82608   0.46153   0.00000  Uiso   1.00
C471   C     0.83349   0.66501   0.25074   0.00000  Uiso   1.00
C472   C     0.83372   0.83500   0.24927   0.00000  Uiso   1.00
C473   C     0.86970   0.77853   0.05571   0.00000  Uiso   1.00
C474   C     0.84287   0.71142   0.45021   0.00000  Uiso   1.00
C475   C     0.86695   0.77921   0.10679   0.00000  Uiso   1.00
C476   C     0.83141   0.71070   0.39890   0.00000  Uiso   1.00
C477   C     0.79895   0.72393   0.10139   0.00000  Uiso   1.00
C478   C     0.82728   0.78847   0.39315   0.00000  Uiso   1.00
C479   C     0.79716   0.72533   0.05072   0.00000  Uiso   1.00
C480   C     0.82250   0.78857   0.44289   0.00000  Uiso   1.00
C481   C     0.83315   0.75173   0.02715   0.00000  Uiso   1.00
C482   C     0.83303   0.75049   0.47294   0.00000  Uiso   1.00
C483   C     0.73484   0.74993   0.23786   0.00000  Uiso   1.00
C484   C     0.93183   0.75062   0.26208   0.00000  Uiso   1.00
C485   C     0.67985   0.74836   0.23116   0.00000  Uiso   1.00
C486   C     0.98680   0.75314   0.26855   0.00000  Uiso   1.00
C487   C     0.80307   0.54466   0.28102   0.00000  Uiso   1.00
C488   C     0.80791   0.95283   0.20747   0.00000  Uiso   1.00
C489   C     0.80376   0.59102   0.28076   0.00000  Uiso   1.00
C490   C     0.80814   0.90644   0.20894   0.00000  Uiso   1.00
C491   C     0.83443   0.61669   0.25176   0.00000  Uiso   1.00
C492   C     0.83454   0.88337   0.24804   0.00000  Uiso   1.00
C493   C     0.86491   0.59600   0.22231   0.00000  Uiso   1.00
C494   C     0.86130   0.90666   0.28630   0.00000  Uiso   1.00
C495   C     0.86421   0.55003   0.22153   0.00000  Uiso   1.00
C496   C     0.86073   0.95258   0.28587   0.00000  Uiso   1.00
C497   C     0.83255   0.52416   0.24966   0.00000  Uiso   1.00
C498   C     0.83305   0.97583   0.24752   0.00000  Uiso   1.00
Cu499  Cu    0.83333   0.75000   0.29822   0.00000  Uiso   1.00
Cu500  Cu    0.83333   0.75001   0.20179   0.00000  Uiso   1.00
H501   H     0.77929   0.60701   0.30243   0.00000  Uiso   1.00
H502   H     0.78693   0.88817   0.17988   0.00000  Uiso   1.00
H503   H     0.77150   0.70261   0.11829   0.00000  Uiso   1.00
H504   H     0.82227   0.81926   0.37258   0.00000  Uiso   1.00
N505   N     0.83333   0.75001   0.12935   0.00000  Uiso   1.00
N506   N     0.83333   0.74999   0.37065   0.00000  Uiso   1.00
O507   O     0.83334   0.68573   0.29071   0.00000  Uiso   1.00
O508   O     0.83333   0.81428   0.20929   0.00000  Uiso   1.00
O509   O     0.83334   0.68573   0.20928   0.00000  Uiso   1.00
O510   O     0.83333   0.81427   0.29072   0.00000  Uiso   1.00
O511   O     0.75828   0.75000   0.28132   0.00000  Uiso   1.00
O512   O     0.90839   0.75001   0.21868   0.00000  Uiso   1.00
O513   O     0.75828   0.75000   0.19989   0.00000  Uiso   1.00
O514   O     0.90839   0.75000   0.30012   0.00000  Uiso   1.00
F515   F     0.98958   0.74074   0.18587   0.00000  Uiso   1.00
F516   F     0.67703   0.76184   0.31354   0.00000  Uiso   1.00
C517   C     0.77241   0.51871   0.31639   0.00000  Uiso   1.00
C518   C     0.72293   0.99687   0.29201   0.00000  Uiso   1.00
H519   H     0.69980   0.52173   0.26968   0.00000  Uiso   1.00
H520   H     0.73159   0.96954   0.26950   0.00000  Uiso   1.00
H521   H     0.69976   0.98245   0.31993   0.00000  Uiso   1.00
H522   H     0.79608   0.99320   0.33687   0.00000  Uiso   1.00
H523   H     0.76174   0.54109   0.34378   0.00000  Uiso   1.00
C524   C     0.78267   0.97626   0.16217   0.00000  Uiso   1.00
C525   C     0.73128   0.99502   0.16897   0.00000  Uiso   1.00
H526   H     0.70544   0.96870   0.18302   0.00000  Uiso   1.00
H527   H     0.73695   0.52297   0.19374   0.00000  Uiso   1.00
H528   H     0.71255   0.50788   0.13369   0.00000  Uiso   1.00
H529   H     0.80867   0.50318   0.14973   0.00000  Uiso   1.00
H530   H     0.77567   0.95280   0.13222   0.00000  Uiso   1.00
F531   F     0.89601   0.62033   0.19485   0.00000  Uiso   1.00
F532   F     0.88873   0.88503   0.32376   0.00000  Uiso   1.00
F533   F     0.89515   0.53053   0.19385   0.00000  Uiso   1.00
F534   F     0.88776   0.97467   0.32279   0.00000  Uiso   1.00
C535   C     0.91082   0.80671   0.03138   0.00000  Uiso   1.00
C536   C     0.95221   0.77936   0.01472   0.00000  Uiso   1.00
H537   H     0.96810   0.75635   0.04422   0.00000  Uiso   1.00
H538   H     0.93680   0.76109   0.48226   0.00000  Uiso   1.00
H539   H     0.98419   0.80183   0.00451   0.00000  Uiso   1.00
H540   H     0.89319   0.82702   0.00062   0.00000  Uiso   1.00
H541   H     0.93191   0.83196   0.05411   0.00000  Uiso   1.00
C542   C     0.85919   0.66895   0.47923   0.00000  Uiso   1.00
C543   C     0.91018   0.67350   0.01165   0.00000  Uiso   1.00
H544   H     0.94131   0.68557   0.49030   0.00000  Uiso   1.00
H545   H     0.90749   0.69533   0.04188   0.00000  Uiso   1.00
H546   H     0.92042   0.64037   0.02777   0.00000  Uiso   1.00
H547   H     0.82868   0.65640   0.00099   0.00000  Uiso   1.00
H548   H     0.86535   0.64223   0.45476   0.00000  Uiso   1.00
C549   C     0.89922   0.81543   0.13430   0.00000  Uiso   1.00
C550   C     0.87642   0.86109   0.12298   0.00000  Uiso   1.00
H551   H     0.88080   0.87382   0.08597   0.00000  Uiso   1.00
H552   H     0.83476   0.85902   0.12633   0.00000  Uiso   1.00
H553   H     0.89573   0.88551   0.14862   0.00000  Uiso   1.00
H554   H     0.90357   0.81070   0.17292   0.00000  Uiso   1.00
H555   H     0.93996   0.81549   0.12762   0.00000  Uiso   1.00
C556   C     0.80184   0.66866   0.38044   0.00000  Uiso   1.00
C557   C     0.74791   0.67688   0.35475   0.00000  Uiso   1.00
H558   H     0.73330   0.70809   0.36633   0.00000  Uiso   1.00
H559   H     0.74709   0.67723   0.31524   0.00000  Uiso   1.00
H560   H     0.72058   0.64936   0.36368   0.00000  Uiso   1.00
H561   H     0.82556   0.64817   0.36105   0.00000  Uiso   1.00
H562   H     0.79318   0.64602   0.41089   0.00000  Uiso   1.00
F563   F     0.75966   0.70100   0.02456   0.00000  Uiso   1.00
F564   F     0.80788   0.82608   0.46153   0.00000  Uiso   1.00
C565   C     0.16682   0.16501   0.75074   0.00000  Uiso   1.00
C566   C     0.16705   0.33500   0.74927   0.00000  Uiso   1.00
C567   C     0.20303   0.27853   0.55571   0.00000  Uiso   1.00
C568   C     0.17620   0.21142   0.95021   0.00000  Uiso   1.00
C569   C     0.20028   0.27921   0.60679   0.00000  Uiso   1.00
C570   C     0.16475   0.21070   0.89890   0.00000  Uiso   1.00
C571   C     0.13228   0.22393   0.60139   0.00000  Uiso   1.00
C572   C     0.16061   0.28847   0.89315   0.00000  Uiso   1.00
C573   C     0.13050   0.22533   0.55072   0.00000  Uiso   1.00
C574   C     0.15583   0.28857   0.94289   0.00000  Uiso   1.00
C575   C     0.16648   0.25173   0.52715   0.00000  Uiso   1.00
C576   C     0.16636   0.25049   0.97294   0.00000  Uiso   1.00
C577   C     0.06818   0.24993   0.73786   0.00000  Uiso   1.00
C578   C     0.26516   0.25062   0.76208   0.00000  Uiso   1.00
C579   C     0.01319   0.24836   0.73116   0.00000  Uiso   1.00
C580   C     0.32013   0.25314   0.76855   0.00000  Uiso   1.00
C581   C     0.13640   0.04466   0.78102   0.00000  Uiso   1.00
C582   C     0.14124   0.45283   0.70747   0.00000  Uiso   1.00
C583   C     0.13709   0.09102   0.78076   0.00000  Uiso   1.00
C584   C     0.14147   0.40644   0.70894   0.00000  Uiso   1.00
C585   C     0.16776   0.11669   0.75176   0.00000  Uiso   1.00
C586   C     0.16787   0.38337   0.74804   0.00000  Uiso   1.00
C587   C     0.19824   0.09600   0.72231   0.00000  Uiso   1.00
C588   C     0.19463   0.40666   0.78630   0.00000  Uiso   1.00
C589   C     0.19754   0.05003   0.72153   0.00000  Uiso   1.00
C590   C     0.19407   0.45258   0.78587   0.00000  Uiso   1.00
C591   C     0.16588   0.02416   0.74966   0.00000  Uiso   1.00
C592   C     0.16639   0.47583   0.74752   0.00000  Uiso   1.00
Cu593  Cu    0.16667   0.25000   0.79822   0.00000  Uiso   1.00
Cu594  Cu    0.16667   0.25001   0.70179   0.00000  Uiso   1.00
H595   H     0.11263   0.10701   0.80243   0.00000  Uiso   1.00
H596   H     0.12027   0.38817   0.67988   0.00000  Uiso   1.00
H597   H     0.10484   0.20261   0.61829   0.00000  Uiso   1.00
H598   H     0.15561   0.31926   0.87258   0.00000  Uiso   1.00
N599   N     0.16667   0.25001   0.62935   0.00000  Uiso   1.00
N600   N     0.16667   0.24999   0.87065   0.00000  Uiso   1.00
O601   O     0.16667   0.18573   0.79071   0.00000  Uiso   1.00
O602   O     0.16666   0.31428   0.70929   0.00000  Uiso   1.00
O603   O     0.16667   0.18573   0.70928   0.00000  Uiso   1.00
O604   O     0.16666   0.31427   0.79072   0.00000  Uiso   1.00
O605   O     0.09161   0.25000   0.78132   0.00000  Uiso   1.00
O606   O     0.24172   0.25001   0.71868   0.00000  Uiso   1.00
O607   O     0.09161   0.25000   0.69989   0.00000  Uiso   1.00
O608   O     0.24172   0.25000   0.80012   0.00000  Uiso   1.00
F609   F     0.32291   0.24074   0.68587   0.00000  Uiso   1.00
F610   F     0.01036   0.26184   0.81354   0.00000  Uiso   1.00
C611   C     0.10574   0.01871   0.81639   0.00000  Uiso   1.00
C612   C     0.05627   0.49687   0.79201   0.00000  Uiso   1.00
H613   H     0.03313   0.02173   0.76968   0.00000  Uiso   1.00
H614   H     0.06492   0.46954   0.76950   0.00000  Uiso   1.00
H615   H     0.03309   0.48245   0.81993   0.00000  Uiso   1.00
H616   H     0.12941   0.49320   0.83687   0.00000  Uiso   1.00
H617   H     0.09507   0.04109   0.84378   0.00000  Uiso   1.00
C618   C     0.11601   0.47626   0.66217   0.00000  Uiso   1.00
C619   C     0.06461   0.49502   0.66897   0.00000  Uiso   1.00
H620   H     0.03877   0.46870   0.68302   0.00000  Uiso   1.00
H621   H     0.07028   0.02297   0.69374   0.00000  Uiso   1.00
H622   H     0.04589   0.00788   0.63369   0.00000  Uiso   1.00
H623   H     0.14201   0.00318   0.64973   0.00000  Uiso   1.00
H624   H     0.10900   0.45280   0.63222   0.00000  Uiso   1.00
F625   F     0.22935   0.12033   0.69485   0.00000  Uiso   1.00
F626   F     0.22206   0.38503   0.82376   0.00000  Uiso   1.00
F627   F     0.22849   0.03053   0.69385   0.00000  Uiso   1.00
F628   F     0.22110   0.47467   0.82279   0.00000  Uiso   1.00
C629   C     0.24415   0.30671   0.53138   0.00000  Uiso   1.00
C630   C     0.28554   0.27936   0.51472   0.00000  Uiso   1.00
H631   H     0.30144   0.25635   0.54422   0.00000  Uiso   1.00
H632   H     0.27013   0.26109   0.98226   0.00000  Uiso   1.00
H633   H     0.31752   0.30183   0.50451   0.00000  Uiso   1.00
H634   H     0.22652   0.32702   0.50062   0.00000  Uiso   1.00
H635   H     0.26524   0.33196   0.55411   0.00000  Uiso   1.00
C636   C     0.19252   0.16895   0.97923   0.00000  Uiso   1.00
C637   C     0.24351   0.17350   0.51165   0.00000  Uiso   1.00
H638   H     0.27464   0.18557   0.99030   0.00000  Uiso   1.00
H639   H     0.24083   0.19533   0.54188   0.00000  Uiso   1.00
H640   H     0.25375   0.14037   0.52777   0.00000  Uiso   1.00
H641   H     0.16201   0.15640   0.50099   0.00000  Uiso   1.00
H642   H     0.19868   0.14223   0.95476   0.00000  Uiso   1.00
C643   C     0.23255   0.31543   0.63430   0.00000  Uiso   1.00
C644   C     0.20975   0.36109   0.62298   0.00000  Uiso   1.00
H645   H     0.21413   0.37382   0.58597   0.00000  Uiso   1.00
H646   H     0.16809   0.35902   0.62633   0.00000  Uiso   1.00
H647   H     0.22906   0.38551   0.64862   0.00000  Uiso   1.00
H648   H     0.23690   0.31070   0.67292   0.00000  Uiso   1.00
H649   H     0.27329   0.31549   0.62762   0.00000  Uiso   1.00
C650   C     0.13517   0.16866   0.88044   0.00000  Uiso   1.00
C651   C     0.08124   0.17688   0.85475   0.00000  Uiso   1.00
H652   H     0.06663   0.20809   0.86633   0.00000  Uiso   1.00
H653   H     0.08042   0.17723   0.81524   0.00000  Uiso   1.00
H654   H     0.05391   0.14936   0.86368   0.00000  Uiso   1.00
H655   H     0.15890   0.14817   0.86105   0.00000  Uiso   1.00
H656   H     0.12652   0.14602   0.91089   0.00000  Uiso   1.00
F657   F     0.09299   0.20100   0.52456   0.00000  Uiso   1.00
F658   F     0.14121   0.32608   0.96153   0.00000  Uiso   1.00
C659   C     0.50016   0.16501   0.75074   0.00000  Uiso   1.00
C660   C     0.50039   0.33500   0.74927   0.00000  Uiso   1.00
C661   C     0.53637   0.27853   0.55571   0.00000  Uiso   1.00
C662   C     0.50954   0.21142   0.95021   0.00000  Uiso   1.00
C663   C     0.53361   0.27921   0.60679   0.00000  Uiso   1.00
C664   C     0.49808   0.21070   0.89890   0.00000  Uiso   1.00
C665   C     0.46562   0.22393   0.60139   0.00000  Uiso   1.00
C666   C     0.49395   0.28847   0.89315   0.00000  Uiso   1.00
C667   C     0.46383   0.22533   0.55072   0.00000  Uiso   1.00
C668   C     0.48917   0.28857   0.94289   0.00000  Uiso   1.00
C669   C     0.49981   0.25173   0.52715   0.00000  Uiso   1.00
C670   C     0.49969   0.25049   0.97294   0.00000  Uiso   1.00
C671   C     0.40151   0.24993   0.73786   0.00000  Uiso   1.00
C672   C     0.59849   0.25062   0.76208   0.00000  Uiso   1.00
C673   C     0.34652   0.24836   0.73116   0.00000  Uiso   1.00
C674   C     0.65346   0.25314   0.76855   0.00000  Uiso   1.00
C675   C     0.46973   0.04466   0.78102   0.00000  Uiso   1.00
C676   C     0.47457   0.45283   0.70747   0.00000  Uiso   1.00
C677   C     0.47042   0.09102   0.78076   0.00000  Uiso   1.00
C678   C     0.47481   0.40644   0.70894   0.00000  Uiso   1.00
C679   C     0.50110   0.11669   0.75176   0.00000  Uiso   1.00
C680   C     0.50120   0.38337   0.74804   0.00000  Uiso   1.00
C681   C     0.53158   0.09600   0.72231   0.00000  Uiso   1.00
C682   C     0.52796   0.40666   0.78630   0.00000  Uiso   1.00
C683   C     0.53087   0.05003   0.72153   0.00000  Uiso   1.00
C684   C     0.52740   0.45258   0.78587   0.00000  Uiso   1.00
C685   C     0.49922   0.02416   0.74966   0.00000  Uiso   1.00
C686   C     0.49972   0.47583   0.74752   0.00000  Uiso   1.00
Cu687  Cu    0.50000   0.25000   0.79822   0.00000  Uiso   1.00
Cu688  Cu    0.50000   0.25001   0.70179   0.00000  Uiso   1.00
H689   H     0.44596   0.10701   0.80243   0.00000  Uiso   1.00
H690   H     0.45360   0.38817   0.67988   0.00000  Uiso   1.00
H691   H     0.43817   0.20261   0.61829   0.00000  Uiso   1.00
H692   H     0.48894   0.31926   0.87258   0.00000  Uiso   1.00
N693   N     0.50000   0.25001   0.62935   0.00000  Uiso   1.00
N694   N     0.50000   0.24999   0.87065   0.00000  Uiso   1.00
O695   O     0.50000   0.18573   0.79071   0.00000  Uiso   1.00
O696   O     0.50000   0.31428   0.70929   0.00000  Uiso   1.00
O697   O     0.50000   0.18573   0.70928   0.00000  Uiso   1.00
O698   O     0.50000   0.31427   0.79072   0.00000  Uiso   1.00
O699   O     0.42495   0.25000   0.78132   0.00000  Uiso   1.00
O700   O     0.57505   0.25001   0.71868   0.00000  Uiso   1.00
O701   O     0.42495   0.25000   0.69989   0.00000  Uiso   1.00
O702   O     0.57505   0.25000   0.80012   0.00000  Uiso   1.00
F703   F     0.65624   0.24074   0.68587   0.00000  Uiso   1.00
F704   F     0.34370   0.26184   0.81354   0.00000  Uiso   1.00
C705   C     0.43908   0.01871   0.81639   0.00000  Uiso   1.00
C706   C     0.38960   0.49687   0.79201   0.00000  Uiso   1.00
H707   H     0.36646   0.02173   0.76968   0.00000  Uiso   1.00
H708   H     0.39826   0.46954   0.76950   0.00000  Uiso   1.00
H709   H     0.36642   0.48245   0.81993   0.00000  Uiso   1.00
H710   H     0.46275   0.49320   0.83687   0.00000  Uiso   1.00
H711   H     0.42840   0.04109   0.84378   0.00000  Uiso   1.00
C712   C     0.44934   0.47626   0.66217   0.00000  Uiso   1.00
C713   C     0.39795   0.49502   0.66897   0.00000  Uiso   1.00
H714   H     0.37210   0.46870   0.68302   0.00000  Uiso   1.00
H715   H     0.40362   0.02297   0.69374   0.00000  Uiso   1.00
H716   H     0.37922   0.00788   0.63369   0.00000  Uiso   1.00
H717   H     0.47534   0.00318   0.64973   0.00000  Uiso   1.00
H718   H     0.44233   0.45280   0.63222   0.00000  Uiso   1.00
F719   F     0.56268   0.12033   0.69485   0.00000  Uiso   1.00
F720   F     0.55539   0.38503   0.82376   0.00000  Uiso   1.00
F721   F     0.56182   0.03053   0.69385   0.00000  Uiso   1.00
F722   F     0.55443   0.47467   0.82279   0.00000  Uiso   1.00
C723   C     0.57749   0.30671   0.53138   0.00000  Uiso   1.00
C724   C     0.61887   0.27936   0.51472   0.00000  Uiso   1.00
H725   H     0.63477   0.25635   0.54422   0.00000  Uiso   1.00
H726   H     0.60347   0.26109   0.98226   0.00000  Uiso   1.00
H727   H     0.65085   0.30183   0.50451   0.00000  Uiso   1.00
H728   H     0.55985   0.32702   0.50062   0.00000  Uiso   1.00
H729   H     0.59857   0.33196   0.55411   0.00000  Uiso   1.00
C730   C     0.52586   0.16895   0.97923   0.00000  Uiso   1.00
C731   C     0.57684   0.17350   0.51165   0.00000  Uiso   1.00
H732   H     0.60797   0.18557   0.99030   0.00000  Uiso   1.00
H733   H     0.57416   0.19533   0.54188   0.00000  Uiso   1.00
H734   H     0.58708   0.14037   0.52777   0.00000  Uiso   1.00
H735   H     0.49534   0.15640   0.50099   0.00000  Uiso   1.00
H736   H     0.53201   0.14223   0.95476   0.00000  Uiso   1.00
C737   C     0.56588   0.31543   0.63430   0.00000  Uiso   1.00
C738   C     0.54309   0.36109   0.62298   0.00000  Uiso   1.00
H739   H     0.54747   0.37382   0.58597   0.00000  Uiso   1.00
H740   H     0.50142   0.35902   0.62633   0.00000  Uiso   1.00
H741   H     0.56240   0.38551   0.64862   0.00000  Uiso   1.00
H742   H     0.57023   0.31070   0.67292   0.00000  Uiso   1.00
H743   H     0.60663   0.31549   0.62762   0.00000  Uiso   1.00
C744   C     0.46851   0.16866   0.88044   0.00000  Uiso   1.00
C745   C     0.41458   0.17688   0.85475   0.00000  Uiso   1.00
H746   H     0.39997   0.20809   0.86633   0.00000  Uiso   1.00
H747   H     0.41375   0.17723   0.81524   0.00000  Uiso   1.00
H748   H     0.38724   0.14936   0.86368   0.00000  Uiso   1.00
H749   H     0.49223   0.14817   0.86105   0.00000  Uiso   1.00
H750   H     0.45985   0.14602   0.91089   0.00000  Uiso   1.00
F751   F     0.42633   0.20100   0.52456   0.00000  Uiso   1.00
F752   F     0.47454   0.32608   0.96153   0.00000  Uiso   1.00
C753   C     0.83349   0.16501   0.75074   0.00000  Uiso   1.00
C754   C     0.83372   0.33500   0.74927   0.00000  Uiso   1.00
C755   C     0.86970   0.27853   0.55571   0.00000  Uiso   1.00
C756   C     0.84287   0.21142   0.95021   0.00000  Uiso   1.00
C757   C     0.86695   0.27921   0.60679   0.00000  Uiso   1.00
C758   C     0.83141   0.21070   0.89890   0.00000  Uiso   1.00
C759   C     0.79895   0.22393   0.60139   0.00000  Uiso   1.00
C760   C     0.82728   0.28847   0.89315   0.00000  Uiso   1.00
C761   C     0.79716   0.22533   0.55072   0.00000  Uiso   1.00
C762   C     0.82250   0.28857   0.94289   0.00000  Uiso   1.00
C763   C     0.83315   0.25173   0.52715   0.00000  Uiso   1.00
C764   C     0.83303   0.25049   0.97294   0.00000  Uiso   1.00
C765   C     0.73484   0.24993   0.73786   0.00000  Uiso   1.00
C766   C     0.93183   0.25062   0.76208   0.00000  Uiso   1.00
C767   C     0.67985   0.24836   0.73116   0.00000  Uiso   1.00
C768   C     0.98680   0.25314   0.76855   0.00000  Uiso   1.00
C769   C     0.80307   0.04466   0.78102   0.00000  Uiso   1.00
C770   C     0.80791   0.45283   0.70747   0.00000  Uiso   1.00
C771   C     0.80376   0.09102   0.78076   0.00000  Uiso   1.00
C772   C     0.80814   0.40644   0.70894   0.00000  Uiso   1.00
C773   C     0.83443   0.11669   0.75176   0.00000  Uiso   1.00
C774   C     0.83454   0.38337   0.74804   0.00000  Uiso   1.00
C775   C     0.86491   0.09600   0.72231   0.00000  Uiso   1.00
C776   C     0.86130   0.40666   0.78630   0.00000  Uiso   1.00
C777   C     0.86421   0.05003   0.72153   0.00000  Uiso   1.00
C778   C     0.86073   0.45258   0.78587   0.00000  Uiso   1.00
C779   C     0.83255   0.02416   0.74966   0.00000  Uiso   1.00
C780   C     0.83305   0.47583   0.74752   0.00000  Uiso   1.00
Cu781  Cu    0.83333   0.25000   0.79822   0.00000  Uiso   1.00
Cu782  Cu    0.83333   0.25001   0.70179   0.00000  Uiso   1.00
H783   H     0.77929   0.10701   0.80243   0.00000  Uiso   1.00
H784   H     0.78693   0.38817   0.67988   0.00000  Uiso   1.00
H785   H     0.77150   0.20261   0.61829   0.00000  Uiso   1.00
H786   H     0.82227   0.31926   0.87258   0.00000  Uiso   1.00
N787   N     0.83333   0.25001   0.62935   0.00000  Uiso   1.00
N788   N     0.83333   0.24999   0.87065   0.00000  Uiso   1.00
O789   O     0.83334   0.18573   0.79071   0.00000  Uiso   1.00
O790   O     0.83333   0.31428   0.70929   0.00000  Uiso   1.00
O791   O     0.83334   0.18573   0.70928   0.00000  Uiso   1.00
O792   O     0.83333   0.31427   0.79072   0.00000  Uiso   1.00
O793   O     0.75828   0.25000   0.78132   0.00000  Uiso   1.00
O794   O     0.90839   0.25001   0.71868   0.00000  Uiso   1.00
O795   O     0.75828   0.25000   0.69989   0.00000  Uiso   1.00
O796   O     0.90839   0.25000   0.80012   0.00000  Uiso   1.00
F797   F     0.98958   0.24074   0.68587   0.00000  Uiso   1.00
F798   F     0.67703   0.26184   0.81354   0.00000  Uiso   1.00
C799   C     0.77241   0.01871   0.81639   0.00000  Uiso   1.00
C800   C     0.72293   0.49687   0.79201   0.00000  Uiso   1.00
H801   H     0.69980   0.02173   0.76968   0.00000  Uiso   1.00
H802   H     0.73159   0.46954   0.76950   0.00000  Uiso   1.00
H803   H     0.69976   0.48245   0.81993   0.00000  Uiso   1.00
H804   H     0.79608   0.49320   0.83687   0.00000  Uiso   1.00
H805   H     0.76174   0.04109   0.84378   0.00000  Uiso   1.00
C806   C     0.78267   0.47626   0.66217   0.00000  Uiso   1.00
C807   C     0.73128   0.49502   0.66897   0.00000  Uiso   1.00
H808   H     0.70544   0.46870   0.68302   0.00000  Uiso   1.00
H809   H     0.73695   0.02297   0.69374   0.00000  Uiso   1.00
H810   H     0.71255   0.00788   0.63369   0.00000  Uiso   1.00
H811   H     0.80867   0.00318   0.64973   0.00000  Uiso   1.00
H812   H     0.77567   0.45280   0.63222   0.00000  Uiso   1.00
F813   F     0.89601   0.12033   0.69485   0.00000  Uiso   1.00
F814   F     0.88873   0.38503   0.82376   0.00000  Uiso   1.00
F815   F     0.89515   0.03053   0.69385   0.00000  Uiso   1.00
F816   F     0.88776   0.47467   0.82279   0.00000  Uiso   1.00
C817   C     0.91082   0.30671   0.53138   0.00000  Uiso   1.00
C818   C     0.95221   0.27936   0.51472   0.00000  Uiso   1.00
H819   H     0.96810   0.25635   0.54422   0.00000  Uiso   1.00
H820   H     0.93680   0.26109   0.98226   0.00000  Uiso   1.00
H821   H     0.98419   0.30183   0.50451   0.00000  Uiso   1.00
H822   H     0.89319   0.32702   0.50062   0.00000  Uiso   1.00
H823   H     0.93191   0.33196   0.55411   0.00000  Uiso   1.00
C824   C     0.85919   0.16895   0.97923   0.00000  Uiso   1.00
C825   C     0.91018   0.17350   0.51165   0.00000  Uiso   1.00
H826   H     0.94131   0.18557   0.99030   0.00000  Uiso   1.00
H827   H     0.90749   0.19533   0.54188   0.00000  Uiso   1.00
H828   H     0.92042   0.14037   0.52777   0.00000  Uiso   1.00
H829   H     0.82868   0.15640   0.50099   0.00000  Uiso   1.00
H830   H     0.86535   0.14223   0.95476   0.00000  Uiso   1.00
C831   C     0.89922   0.31543   0.63430   0.00000  Uiso   1.00
C832   C     0.87642   0.36109   0.62298   0.00000  Uiso   1.00
H833   H     0.88080   0.37382   0.58597   0.00000  Uiso   1.00
H834   H     0.83476   0.35902   0.62633   0.00000  Uiso   1.00
H835   H     0.89573   0.38551   0.64862   0.00000  Uiso   1.00
H836   H     0.90357   0.31070   0.67292   0.00000  Uiso   1.00
H837   H     0.93996   0.31549   0.62762   0.00000  Uiso   1.00
C838   C     0.80184   0.16866   0.88044   0.00000  Uiso   1.00
C839   C     0.74791   0.17688   0.85475   0.00000  Uiso   1.00
H840   H     0.73330   0.20809   0.86633   0.00000  Uiso   1.00
H841   H     0.74709   0.17723   0.81524   0.00000  Uiso   1.00
H842   H     0.72058   0.14936   0.86368   0.00000  Uiso   1.00
H843   H     0.82556   0.14817   0.86105   0.00000  Uiso   1.00
H844   H     0.79318   0.14602   0.91089   0.00000  Uiso   1.00
F845   F     0.75966   0.20100   0.52456   0.00000  Uiso   1.00
F846   F     0.80788   0.32608   0.96153   0.00000  Uiso   1.00
C847   C     0.16682   0.66501   0.75074   0.00000  Uiso   1.00
C848   C     0.16705   0.83500   0.74927   0.00000  Uiso   1.00
C849   C     0.20303   0.77853   0.55571   0.00000  Uiso   1.00
C850   C     0.17620   0.71142   0.95021   0.00000  Uiso   1.00
C851   C     0.20028   0.77921   0.60679   0.00000  Uiso   1.00
C852   C     0.16475   0.71070   0.89890   0.00000  Uiso   1.00
C853   C     0.13228   0.72393   0.60139   0.00000  Uiso   1.00
C854   C     0.16061   0.78847   0.89315   0.00000  Uiso   1.00
C855   C     0.13050   0.72533   0.55072   0.00000  Uiso   1.00
C856   C     0.15583   0.78857   0.94289   0.00000  Uiso   1.00
C857   C     0.16648   0.75173   0.52715   0.00000  Uiso   1.00
C858   C     0.16636   0.75049   0.97294   0.00000  Uiso   1.00
C859   C     0.06818   0.74993   0.73786   0.00000  Uiso   1.00
C860   C     0.26516   0.75062   0.76208   0.00000  Uiso   1.00
C861   C     0.01319   0.74836   0.73116   0.00000  Uiso   1.00
C862   C     0.32013   0.75314   0.76855   0.00000  Uiso   1.00
C863   C     0.13640   0.54466   0.78102   0.00000  Uiso   1.00
C864   C     0.14124   0.95283   0.70747   0.00000  Uiso   1.00
C865   C     0.13709   0.59102   0.78076   0.00000  Uiso   1.00
C866   C     0.14147   0.90644   0.70894   0.00000  Uiso   1.00
C867   C     0.16776   0.61669   0.75176   0.00000  Uiso   1.00
C868   C     0.16787   0.88337   0.74804   0.00000  Uiso   1.00
C869   C     0.19824   0.59600   0.72231   0.00000  Uiso   1.00
C870   C     0.19463   0.90666   0.78630   0.00000  Uiso   1.00
C871   C     0.19754   0.55003   0.72153   0.00000  Uiso   1.00
C872   C     0.19407   0.95258   0.78587   0.00000  Uiso   1.00
C873   C     0.16588   0.52416   0.74966   0.00000  Uiso   1.00
C874   C     0.16639   0.97583   0.74752   0.00000  Uiso   1.00
Cu875  Cu    0.16667   0.75000   0.79822   0.00000  Uiso   1.00
Cu876  Cu    0.16667   0.75001   0.70179   0.00000  Uiso   1.00
H877   H     0.11263   0.60701   0.80243   0.00000  Uiso   1.00
H878   H     0.12027   0.88817   0.67988   0.00000  Uiso   1.00
H879   H     0.10484   0.70261   0.61829   0.00000  Uiso   1.00
H880   H     0.15561   0.81926   0.87258   0.00000  Uiso   1.00
N881   N     0.16667   0.75001   0.62935   0.00000  Uiso   1.00
N882   N     0.16667   0.74999   0.87065   0.00000  Uiso   1.00
O883   O     0.16667   0.68573   0.79071   0.00000  Uiso   1.00
O884   O     0.16666   0.81428   0.70929   0.00000  Uiso   1.00
O885   O     0.16667   0.68573   0.70928   0.00000  Uiso   1.00
O886   O     0.16666   0.81427   0.79072   0.00000  Uiso   1.00
O887   O     0.09161   0.75000   0.78132   0.00000  Uiso   1.00
O888   O     0.24172   0.75001   0.71868   0.00000  Uiso   1.00
O889   O     0.09161   0.75000   0.69989   0.00000  Uiso   1.00
O890   O     0.24172   0.75000   0.80012   0.00000  Uiso   1.00
F891   F     0.32291   0.74074   0.68587   0.00000  Uiso   1.00
F892   F     0.01036   0.76184   0.81354   0.00000  Uiso   1.00
C893   C     0.10574   0.51871   0.81639   0.00000  Uiso   1.00
C894   C     0.05627   0.99687   0.79201   0.00000  Uiso   1.00
H895   H     0.03313   0.52173   0.76968   0.00000  Uiso   1.00
H896   H     0.06492   0.96954   0.76950   0.00000  Uiso   1.00
H897   H     0.03309   0.98245   0.81993   0.00000  Uiso   1.00
H898   H     0.12941   0.99320   0.83687   0.00000  Uiso   1.00
H899   H     0.09507   0.54109   0.84378   0.00000  Uiso   1.00
C900   C     0.11601   0.97626   0.66217   0.00000  Uiso   1.00
C901   C     0.06461   0.99502   0.66897   0.00000  Uiso   1.00
H902   H     0.03877   0.96870   0.68302   0.00000  Uiso   1.00
H903   H     0.07028   0.52297   0.69374   0.00000  Uiso   1.00
H904   H     0.04589   0.50788   0.63369   0.00000  Uiso   1.00
H905   H     0.14201   0.50318   0.64973   0.00000  Uiso   1.00
H906   H     0.10900   0.95280   0.63222   0.00000  Uiso   1.00
F907   F     0.22935   0.62033   0.69485   0.00000  Uiso   1.00
F908   F     0.22206   0.88503   0.82376   0.00000  Uiso   1.00
F909   F     0.22849   0.53053   0.69385   0.00000  Uiso   1.00
F910   F     0.22110   0.97467   0.82279   0.00000  Uiso   1.00
C911   C     0.24415   0.80671   0.53138   0.00000  Uiso   1.00
C912   C     0.28554   0.77936   0.51472   0.00000  Uiso   1.00
H913   H     0.30144   0.75635   0.54422   0.00000  Uiso   1.00
H914   H     0.27013   0.76109   0.98226   0.00000  Uiso   1.00
H915   H     0.31752   0.80183   0.50451   0.00000  Uiso   1.00
H916   H     0.22652   0.82702   0.50062   0.00000  Uiso   1.00
H917   H     0.26524   0.83196   0.55411   0.00000  Uiso   1.00
C918   C     0.19252   0.66895   0.97923   0.00000  Uiso   1.00
C919   C     0.24351   0.67350   0.51165   0.00000  Uiso   1.00
H920   H     0.27464   0.68557   0.99030   0.00000  Uiso   1.00
H921   H     0.24083   0.69533   0.54188   0.00000  Uiso   1.00
H922   H     0.25375   0.64037   0.52777   0.00000  Uiso   1.00
H923   H     0.16201   0.65640   0.50099   0.00000  Uiso   1.00
H924   H     0.19868   0.64223   0.95476   0.00000  Uiso   1.00
C925   C     0.23255   0.81543   0.63430   0.00000  Uiso   1.00
C926   C     0.20975   0.86109   0.62298   0.00000  Uiso   1.00
H927   H     0.21413   0.87382   0.58597   0.00000  Uiso   1.00
H928   H     0.16809   0.85902   0.62633   0.00000  Uiso   1.00
H929   H     0.22906   0.88551   0.64862   0.00000  Uiso   1.00
H930   H     0.23690   0.81070   0.67292   0.00000  Uiso   1.00
H931   H     0.27329   0.81549   0.62762   0.00000  Uiso   1.00
C932   C     0.13517   0.66866   0.88044   0.00000  Uiso   1.00
C933   C     0.08124   0.67688   0.85475   0.00000  Uiso   1.00
H934   H     0.06663   0.70809   0.86633   0.00000  Uiso   1.00
H935   H     0.08042   0.67723   0.81524   0.00000  Uiso   1.00
H936   H     0.05391   0.64936   0.86368   0.00000  Uiso   1.00
H937   H     0.15890   0.64817   0.86105   0.00000  Uiso   1.00
H938   H     0.12652   0.64602   0.91089   0.00000  Uiso   1.00
F939   F     0.09299   0.70100   0.52456   0.00000  Uiso   1.00
F940   F     0.14121   0.82608   0.96153   0.00000  Uiso   1.00
C941   C     0.50016   0.66501   0.75074   0.00000  Uiso   1.00
C942   C     0.50039   0.83500   0.74927   0.00000  Uiso   1.00
C943   C     0.53637   0.77853   0.55571   0.00000  Uiso   1.00
C944   C     0.50954   0.71142   0.95021   0.00000  Uiso   1.00
C945   C     0.53361   0.77921   0.60679   0.00000  Uiso   1.00
C946   C     0.49808   0.71070   0.89890   0.00000  Uiso   1.00
C947   C     0.46562   0.72393   0.60139   0.00000  Uiso   1.00
C948   C     0.49395   0.78847   0.89315   0.00000  Uiso   1.00
C949   C     0.46383   0.72533   0.55072   0.00000  Uiso   1.00
C950   C     0.48917   0.78857   0.94289   0.00000  Uiso   1.00
C951   C     0.49981   0.75173   0.52715   0.00000  Uiso   1.00
C952   C     0.49969   0.75049   0.97294   0.00000  Uiso   1.00
C953   C     0.40151   0.74993   0.73786   0.00000  Uiso   1.00
C954   C     0.59849   0.75062   0.76208   0.00000  Uiso   1.00
C955   C     0.34652   0.74836   0.73116   0.00000  Uiso   1.00
C956   C     0.65346   0.75314   0.76855   0.00000  Uiso   1.00
C957   C     0.46973   0.54466   0.78102   0.00000  Uiso   1.00
C958   C     0.47457   0.95283   0.70747   0.00000  Uiso   1.00
C959   C     0.47042   0.59102   0.78076   0.00000  Uiso   1.00
C960   C     0.47481   0.90644   0.70894   0.00000  Uiso   1.00
C961   C     0.50110   0.61669   0.75176   0.00000  Uiso   1.00
C962   C     0.50120   0.88337   0.74804   0.00000  Uiso   1.00
C963   C     0.53158   0.59600   0.72231   0.00000  Uiso   1.00
C964   C     0.52796   0.90666   0.78630   0.00000  Uiso   1.00
C965   C     0.53087   0.55003   0.72153   0.00000  Uiso   1.00
C966   C     0.52740   0.95258   0.78587   0.00000  Uiso   1.00
C967   C     0.49922   0.52416   0.74966   0.00000  Uiso   1.00
C968   C     0.49972   0.97583   0.74752   0.00000  Uiso   1.00
Cu969  Cu    0.50000   0.75000   0.79822   0.00000  Uiso   1.00
Cu970  Cu    0.50000   0.75001   0.70179   0.00000  Uiso   1.00
H971   H     0.44596   0.60701   0.80243   0.00000  Uiso   1.00
H972   H     0.45360   0.88817   0.67988   0.00000  Uiso   1.00
H973   H     0.43817   0.70261   0.61829   0.00000  Uiso   1.00
H974   H     0.48894   0.81926   0.87258   0.00000  Uiso   1.00
N975   N     0.50000   0.75001   0.62935   0.00000  Uiso   1.00
N976   N     0.50000   0.74999   0.87065   0.00000  Uiso   1.00
O977   O     0.50000   0.68573   0.79071   0.00000  Uiso   1.00
O978   O     0.50000   0.81428   0.70929   0.00000  Uiso   1.00
O979   O     0.50000   0.68573   0.70928   0.00000  Uiso   1.00
O980   O     0.50000   0.81427   0.79072   0.00000  Uiso   1.00
O981   O     0.42495   0.75000   0.78132   0.00000  Uiso   1.00
O982   O     0.57505   0.75001   0.71868   0.00000  Uiso   1.00
O983   O     0.42495   0.75000   0.69989   0.00000  Uiso   1.00
O984   O     0.57505   0.75000   0.80012   0.00000  Uiso   1.00
F985   F     0.65624   0.74074   0.68587   0.00000  Uiso   1.00
F986   F     0.34370   0.76184   0.81354   0.00000  Uiso   1.00
C987   C     0.43908   0.51871   0.81639   0.00000  Uiso   1.00
C988   C     0.38960   0.99687   0.79201   0.00000  Uiso   1.00
H989   H     0.36646   0.52173   0.76968   0.00000  Uiso   1.00
H990   H     0.39826   0.96954   0.76950   0.00000  Uiso   1.00
H991   H     0.36642   0.98245   0.81993   0.00000  Uiso   1.00
H992   H     0.46275   0.99320   0.83687   0.00000  Uiso   1.00
H993   H     0.42840   0.54109   0.84378   0.00000  Uiso   1.00
C994   C     0.44934   0.97626   0.66217   0.00000  Uiso   1.00
C995   C     0.39795   0.99502   0.66897   0.00000  Uiso   1.00
H996   H     0.37210   0.96870   0.68302   0.00000  Uiso   1.00
H997   H     0.40362   0.52297   0.69374   0.00000  Uiso   1.00
H998   H     0.37922   0.50788   0.63369   0.00000  Uiso   1.00
H999   H     0.47534   0.50318   0.64973   0.00000  Uiso   1.00
H1000  H     0.44233   0.95280   0.63222   0.00000  Uiso   1.00
F1001  F     0.56268   0.62033   0.69485   0.00000  Uiso   1.00
F1002  F     0.55539   0.88503   0.82376   0.00000  Uiso   1.00
F1003  F     0.56182   0.53053   0.69385   0.00000  Uiso   1.00
F1004  F     0.55443   0.97467   0.82279   0.00000  Uiso   1.00
C1005  C     0.57749   0.80671   0.53138   0.00000  Uiso   1.00
C1006  C     0.61887   0.77936   0.51472   0.00000  Uiso   1.00
H1007  H     0.63477   0.75635   0.54422   0.00000  Uiso   1.00
H1008  H     0.60347   0.76109   0.98226   0.00000  Uiso   1.00
H1009  H     0.65085   0.80183   0.50451   0.00000  Uiso   1.00
H1010  H     0.55985   0.82702   0.50062   0.00000  Uiso   1.00
H1011  H     0.59857   0.83196   0.55411   0.00000  Uiso   1.00
C1012  C     0.52586   0.66895   0.97923   0.00000  Uiso   1.00
C1013  C     0.57684   0.67350   0.51165   0.00000  Uiso   1.00
H1014  H     0.60797   0.68557   0.99030   0.00000  Uiso   1.00
H1015  H     0.57416   0.69533   0.54188   0.00000  Uiso   1.00
H1016  H     0.58708   0.64037   0.52777   0.00000  Uiso   1.00
H1017  H     0.49534   0.65640   0.50099   0.00000  Uiso   1.00
H1018  H     0.53201   0.64223   0.95476   0.00000  Uiso   1.00
C1019  C     0.56588   0.81543   0.63430   0.00000  Uiso   1.00
C1020  C     0.54309   0.86109   0.62298   0.00000  Uiso   1.00
H1021  H     0.54747   0.87382   0.58597   0.00000  Uiso   1.00
H1022  H     0.50142   0.85902   0.62633   0.00000  Uiso   1.00
H1023  H     0.56240   0.88551   0.64862   0.00000  Uiso   1.00
H1024  H     0.57023   0.81070   0.67292   0.00000  Uiso   1.00
H1025  H     0.60663   0.81549   0.62762   0.00000  Uiso   1.00
C1026  C     0.46851   0.66866   0.88044   0.00000  Uiso   1.00
C1027  C     0.41458   0.67688   0.85475   0.00000  Uiso   1.00
H1028  H     0.39997   0.70809   0.86633   0.00000  Uiso   1.00
H1029  H     0.41375   0.67723   0.81524   0.00000  Uiso   1.00
H1030  H     0.38724   0.64936   0.86368   0.00000  Uiso   1.00
H1031  H     0.49223   0.64817   0.86105   0.00000  Uiso   1.00
H1032  H     0.45985   0.64602   0.91089   0.00000  Uiso   1.00
F1033  F     0.42633   0.70100   0.52456   0.00000  Uiso   1.00
F1034  F     0.47454   0.82608   0.96153   0.00000  Uiso   1.00
C1035  C     0.83349   0.66501   0.75074   0.00000  Uiso   1.00
C1036  C     0.83372   0.83500   0.74927   0.00000  Uiso   1.00
C1037  C     0.86970   0.77853   0.55571   0.00000  Uiso   1.00
C1038  C     0.84287   0.71142   0.95021   0.00000  Uiso   1.00
C1039  C     0.86695   0.77921   0.60679   0.00000  Uiso   1.00
C1040  C     0.83141   0.71070   0.89890   0.00000  Uiso   1.00
C1041  C     0.79895   0.72393   0.60139   0.00000  Uiso   1.00
C1042  C     0.82728   0.78847   0.89315   0.00000  Uiso   1.00
C1043  C     0.79716   0.72533   0.55072   0.00000  Uiso   1.00
C1044  C     0.82250   0.78857   0.94289   0.00000  Uiso   1.00
C1045  C     0.83315   0.75173   0.52715   0.00000  Uiso   1.00
C1046  C     0.83303   0.75049   0.97294   0.00000  Uiso   1.00
C1047  C     0.73484   0.74993   0.73786   0.00000  Uiso   1.00
C1048  C     0.93183   0.75062   0.76208   0.00000  Uiso   1.00
C1049  C     0.67985   0.74836   0.73116   0.00000  Uiso   1.00
C1050  C     0.98680   0.75314   0.76855   0.00000  Uiso   1.00
C1051  C     0.80307   0.54466   0.78102   0.00000  Uiso   1.00
C1052  C     0.80791   0.95283   0.70747   0.00000  Uiso   1.00
C1053  C     0.80376   0.59102   0.78076   0.00000  Uiso   1.00
C1054  C     0.80814   0.90644   0.70894   0.00000  Uiso   1.00
C1055  C     0.83443   0.61669   0.75176   0.00000  Uiso   1.00
C1056  C     0.83454   0.88337   0.74804   0.00000  Uiso   1.00
C1057  C     0.86491   0.59600   0.72231   0.00000  Uiso   1.00
C1058  C     0.86130   0.90666   0.78630   0.00000  Uiso   1.00
C1059  C     0.86421   0.55003   0.72153   0.00000  Uiso   1.00
C1060  C     0.86073   0.95258   0.78587   0.00000  Uiso   1.00
C1061  C     0.83255   0.52416   0.74966   0.00000  Uiso   1.00
C1062  C     0.83305   0.97583   0.74752   0.00000  Uiso   1.00
Cu1063 Cu    0.83333   0.75000   0.79822   0.00000  Uiso   1.00
Cu1064 Cu    0.83333   0.75001   0.70179   0.00000  Uiso   1.00
H1065  H     0.77929   0.60701   0.80243   0.00000  Uiso   1.00
H1066  H     0.78693   0.88817   0.67988   0.00000  Uiso   1.00
H1067  H     0.77150   0.70261   0.61829   0.00000  Uiso   1.00
H1068  H     0.82227   0.81926   0.87258   0.00000  Uiso   1.00
N1069  N     0.83333   0.75001   0.62935   0.00000  Uiso   1.00
N1070  N     0.83333   0.74999   0.87065   0.00000  Uiso   1.00
O1071  O     0.83334   0.68573   0.79071   0.00000  Uiso   1.00
O1072  O     0.83333   0.81428   0.70929   0.00000  Uiso   1.00
O1073  O     0.83334   0.68573   0.70928   0.00000  Uiso   1.00
O1074  O     0.83333   0.81427   0.79072   0.00000  Uiso   1.00
O1075  O     0.75828   0.75000   0.78132   0.00000  Uiso   1.00
O1076  O     0.90839   0.75001   0.71868   0.00000  Uiso   1.00
O1077  O     0.75828   0.75000   0.69989   0.00000  Uiso   1.00
O1078  O     0.90839   0.75000   0.80012   0.00000  Uiso   1.00
F1079  F     0.98958   0.74074   0.68587   0.00000  Uiso   1.00
F1080  F     0.67703   0.76184   0.81354   0.00000  Uiso   1.00
C1081  C     0.77241   0.51871   0.81639   0.00000  Uiso   1.00
C1082  C     0.72293   0.99687   0.79201   0.00000  Uiso   1.00
H1083  H     0.69980   0.52173   0.76968   0.00000  Uiso   1.00
H1084  H     0.73159   0.96954   0.76950   0.00000  Uiso   1.00
H1085  H     0.69976   0.98245   0.81993   0.00000  Uiso   1.00
H1086  H     0.79608   0.99320   0.83687   0.00000  Uiso   1.00
H1087  H     0.76174   0.54109   0.84378   0.00000  Uiso   1.00
C1088  C     0.78267   0.97626   0.66217   0.00000  Uiso   1.00
C1089  C     0.73128   0.99502   0.66897   0.00000  Uiso   1.00
H1090  H     0.70544   0.96870   0.68302   0.00000  Uiso   1.00
H1091  H     0.73695   0.52297   0.69374   0.00000  Uiso   1.00
H1092  H     0.71255   0.50788   0.63369   0.00000  Uiso   1.00
H1093  H     0.80867   0.50318   0.64973   0.00000  Uiso   1.00
H1094  H     0.77567   0.95280   0.63222   0.00000  Uiso   1.00
F1095  F     0.89601   0.62033   0.69485   0.00000  Uiso   1.00
F1096  F     0.88873   0.88503   0.82376   0.00000  Uiso   1.00
F1097  F     0.89515   0.53053   0.69385   0.00000  Uiso   1.00
F1098  F     0.88776   0.97467   0.82279   0.00000  Uiso   1.00
C1099  C     0.91082   0.80671   0.53138   0.00000  Uiso   1.00
C1100  C     0.95221   0.77936   0.51472   0.00000  Uiso   1.00
H1101  H     0.96810   0.75635   0.54422   0.00000  Uiso   1.00
H1102  H     0.93680   0.76109   0.98226   0.00000  Uiso   1.00
H1103  H     0.98419   0.80183   0.50451   0.00000  Uiso   1.00
H1104  H     0.89319   0.82702   0.50062   0.00000  Uiso   1.00
H1105  H     0.93191   0.83196   0.55411   0.00000  Uiso   1.00
C1106  C     0.85919   0.66895   0.97923   0.00000  Uiso   1.00
C1107  C     0.91018   0.67350   0.51165   0.00000  Uiso   1.00
H1108  H     0.94131   0.68557   0.99030   0.00000  Uiso   1.00
H1109  H     0.90749   0.69533   0.54188   0.00000  Uiso   1.00
H1110  H     0.92042   0.64037   0.52777   0.00000  Uiso   1.00
H1111  H     0.82868   0.65640   0.50099   0.00000  Uiso   1.00
H1112  H     0.86535   0.64223   0.95476   0.00000  Uiso   1.00
C1113  C     0.89922   0.81543   0.63430   0.00000  Uiso   1.00
C1114  C     0.87642   0.86109   0.62298   0.00000  Uiso   1.00
H1115  H     0.88080   0.87382   0.58597   0.00000  Uiso   1.00
H1116  H     0.83476   0.85902   0.62633   0.00000  Uiso   1.00
H1117  H     0.89573   0.88551   0.64862   0.00000  Uiso   1.00
H1118  H     0.90357   0.81070   0.67292   0.00000  Uiso   1.00
H1119  H     0.93996   0.81549   0.62762   0.00000  Uiso   1.00
C1120  C     0.80184   0.66866   0.88044   0.00000  Uiso   1.00
C1121  C     0.74791   0.67688   0.85475   0.00000  Uiso   1.00
H1122  H     0.73330   0.70809   0.86633   0.00000  Uiso   1.00
H1123  H     0.74709   0.67723   0.81524   0.00000  Uiso   1.00
H1124  H     0.72058   0.64936   0.86368   0.00000  Uiso   1.00
H1125  H     0.82556   0.64817   0.86105   0.00000  Uiso   1.00
H1126  H     0.79318   0.64602   0.91089   0.00000  Uiso   1.00
F1127  F     0.75966   0.70100   0.52456   0.00000  Uiso   1.00
F1128  F     0.80788   0.82608   0.96153   0.00000  Uiso   1.00
loop_
_geom_bond_atom_site_label_1
_geom_bond_atom_site_label_2
_geom_bond_distance
_geom_bond_site_symmetry_2
_ccdc_geom_bond_type
C1     C21     1.459   .     S
C1     O37     1.305   .     A
C1     O39     1.294   .     A
C2     C22     1.459   .     S
C2     O38     1.303   .     A
C2     O40     1.295   .     A
C3     C65     1.548   .     S
C3     C5      1.441   .     A
C3     C11     1.416   .     A
C4     C72     1.538   .     S
C4     C6      1.431   .     A
C4     C12     1.413   .     A
C5     C79     1.525   .     S
C5     N35     1.403   .     A
C6     C86     1.530   .     S
C6     N36     1.400   .     A
C7     H33     1.082   .     S
C7     C9      1.412   .     A
C7     N35     1.362   .     A
C8     N36     1.369   .     A
C8     H34     1.078   .     S
C8     C10     1.413   .     A
C9     C11     1.414   .     A
C9     F93     1.357   .     S
C10    F94     1.358   .     S
C10    C12     1.413   .     A
C11    C576    1.518   1_554 S
C12    C575    1.518   .     S
C13    O41     1.293   .     A
C13    C15     1.431   .     S
C13    O43     1.292   .     A
C14    O42     1.292   .     A
C14    C16     1.431   .     S
C14    O44     1.292   .     A
C15    C204    1.340   1_455 S
C15    F233    1.364   1_455 S
C16    C109    1.340   .     S
C16    F140    1.362   .     S
C17    C27     1.418   .     A
C17    C47     1.520   .     S
C17    C19     1.399   .     A
C18    C20     1.400   .     A
C18    C28     1.419   .     A
C18    C54     1.519   .     S
C19    H31     1.079   .     S
C19    C21     1.398   .     A
C20    C22     1.399   .     A
C20    H32     1.083   .     S
C21    C23     1.401   .     A
C22    C24     1.402   .     A
C23    C25     1.388   .     A
C23    F61     1.358   .     S
C24    C26     1.387   .     A
C24    F62     1.358   .     S
C25    F63     1.359   .     S
C25    C27     1.402   .     A
C26    F64     1.359   .     S
C26    C28     1.402   .     A
C27    C310    1.464   1_545 S
C28    C309    1.464   .     S
Cu29   N36     2.027   .     S
Cu29   Cu30    2.698   .     S
Cu29   O44     1.964   .     S
Cu29   O41     1.969   .     S
Cu29   O40     1.943   .     S
Cu29   O37     1.961   .     S
Cu30   N35     2.027   .     S
Cu30   O38     1.961   .     S
Cu30   O43     1.964   .     S
Cu30   O39     1.943   .     S
Cu30   O42     1.969   .     S
F45    C109    1.364   .     S
F46    C204    1.362   1_455 S
C47    H53     1.112   .     S
C47    C330    1.524   1_545 S
C47    H334    1.108   1_545 S
C48    H51     1.110   .     S
C48    H50     1.108   .     S
C48    C329    1.524   .     S
C48    H331    1.111   .     S
H49    C330    1.111   1_545 S
H52    C329    1.108   .     S
C54    H60     1.112   .     S
C54    C55     1.524   .     S
C54    H341    1.108   .     S
C55    H56     1.111   .     S
C55    H339    1.108   .     S
C55    H340    1.110   .     S
H57    C337    1.108   1_545 S
H58    C337    1.110   1_545 S
H59    C336    1.108   1_545 S
C65    H71     1.098   .     S
C65    C66     1.524   .     S
C65    H70     1.102   .     S
C66    H69     1.111   .     S
C66    H67     1.110   .     S
C66    H632    1.106   1_554 S
H68    C630    1.106   .     S
C72    H78     1.110   .     S
C72    C637    1.525   .     S
C72    H641    1.108   .     S
C73    H75     1.105   .     S
C73    H76     1.111   .     S
C73    C636    1.525   1_554 S
C73    H638    1.109   1_554 S
H74    C637    1.109   .     S
H77    C636    1.108   1_554 S
C79    H84     1.077   .     S
C79    H85     1.108   .     S
C79    C80     1.535   .     S
C80    H83     1.111   .     S
C80    H82     1.108   .     S
C80    H81     1.106   .     S
C86    H91     1.102   .     S
C86    C87     1.533   .     S
C86    H92     1.108   .     S
C87    H88     1.110   .     S
C87    H90     1.112   .     S
C87    H89     1.102   .     S
C95    C115    1.459   .     S
C95    O131    1.305   .     A
C95    O133    1.294   .     A
C96    C116    1.459   .     S
C96    O132    1.303   .     A
C96    O134    1.295   .     A
C97    C159    1.548   .     S
C97    C99     1.441   .     A
C97    C105    1.416   .     A
C98    C166    1.538   .     S
C98    C100    1.431   .     A
C98    C106    1.413   .     A
C99    C173    1.525   .     S
C99    N129    1.403   .     A
C100   C180    1.530   .     S
C100   N130    1.400   .     A
C101   H127    1.082   .     S
C101   C103    1.412   .     A
C101   N129    1.362   .     A
C102   N130    1.369   .     A
C102   H128    1.078   .     S
C102   C104    1.413   .     A
C103   C105    1.414   .     A
C103   F187    1.357   .     S
C104   F188    1.358   .     S
C104   C106    1.413   .     A
C105   C670    1.518   1_554 S
C106   C669    1.518   .     S
C107   O135    1.293   .     A
C107   C109    1.431   .     S
C107   O137    1.292   .     A
C108   O136    1.292   .     A
C108   C110    1.431   .     S
C108   O138    1.292   .     A
C110   C203    1.340   .     S
C110   F234    1.362   .     S
C111   C121    1.418   .     A
C111   C141    1.520   .     S
C111   C113    1.399   .     A
C112   C114    1.400   .     A
C112   C122    1.419   .     A
C112   C148    1.519   .     S
C113   H125    1.079   .     S
C113   C115    1.398   .     A
C114   C116    1.399   .     A
C114   H126    1.083   .     S
C115   C117    1.401   .     A
C116   C118    1.402   .     A
C117   C119    1.388   .     A
C117   F155    1.358   .     S
C118   C120    1.387   .     A
C118   F156    1.358   .     S
C119   F157    1.359   .     S
C119   C121    1.402   .     A
C120   F158    1.359   .     S
C120   C122    1.402   .     A
C121   C404    1.464   1_545 S
C122   C403    1.464   .     S
Cu123  N130    2.027   .     S
Cu123  Cu124   2.698   .     S
Cu123  O138    1.964   .     S
Cu123  O135    1.969   .     S
Cu123  O134    1.943   .     S
Cu123  O131    1.961   .     S
Cu124  N129    2.027   .     S
Cu124  O132    1.961   .     S
Cu124  O137    1.964   .     S
Cu124  O133    1.943   .     S
Cu124  O136    1.969   .     S
F139   C203    1.364   .     S
C141   H147    1.112   .     S
C141   C424    1.524   1_545 S
C141   H428    1.108   1_545 S
C142   H145    1.110   .     S
C142   H144    1.108   .     S
C142   C423    1.524   .     S
C142   H425    1.111   .     S
H143   C424    1.111   1_545 S
H146   C423    1.108   .     S
C148   H154    1.112   .     S
C148   C149    1.524   .     S
C148   H435    1.108   .     S
C149   H150    1.111   .     S
C149   H433    1.108   .     S
C149   H434    1.110   .     S
H151   C431    1.108   1_545 S
H152   C431    1.110   1_545 S
H153   C430    1.108   1_545 S
C159   H165    1.098   .     S
C159   C160    1.524   .     S
C159   H164    1.102   .     S
C160   H163    1.111   .     S
C160   H161    1.110   .     S
C160   H726    1.106   1_554 S
H162   C724    1.106   .     S
C166   H172    1.110   .     S
C166   C731    1.525   .     S
C166   H735    1.108   .     S
C167   H169    1.105   .     S
C167   H170    1.111   .     S
C167   C730    1.525   1_554 S
C167   H732    1.109   1_554 S
H168   C731    1.109   .     S
H171   C730    1.108   1_554 S
C173   H178    1.077   .     S
C173   H179    1.108   .     S
C173   C174    1.535   .     S
C174   H177    1.111   .     S
C174   H176    1.108   .     S
C174   H175    1.106   .     S
C180   H185    1.102   .     S
C180   C181    1.533   .     S
C180   H186    1.108   .     S
C181   H182    1.110   .     S
C181   H184    1.112   .     S
C181   H183    1.102   .     S
C189   C209    1.459   .     S
C189   O225    1.305   .     A
C189   O227    1.294   .     A
C190   C210    1.459   .     S
C190   O226    1.303   .     A
C190   O228    1.295   .     A
C191   C253    1.548   .     S
C191   C193    1.441   .     A
C191   C199    1.416   .     A
C192   C260    1.538   .     S
C192   C194    1.431   .     A
C192   C200    1.413   .     A
C193   C267    1.525   .     S
C193   N223    1.403   .     A
C194   C274    1.530   .     S
C194   N224    1.400   .     A
C195   H221    1.082   .     S
C195   C197    1.412   .     A
C195   N223    1.362   .     A
C196   N224    1.369   .     A
C196   H222    1.078   .     S
C196   C198    1.413   .     A
C197   C199    1.414   .     A
C197   F281    1.357   .     S
C198   F282    1.358   .     S
C198   C200    1.413   .     A
C199   C764    1.518   1_554 S
C200   C763    1.518   .     S
C201   O229    1.293   .     A
C201   C203    1.431   .     S
C201   O231    1.292   .     A
C202   O230    1.292   .     A
C202   C204    1.431   .     S
C202   O232    1.292   .     A
C204   C15     1.340   1_655 S
C204   F46     1.362   1_655 S
C205   C215    1.418   .     A
C205   C235    1.520   .     S
C205   C207    1.399   .     A
C206   C208    1.400   .     A
C206   C216    1.419   .     A
C206   C242    1.519   .     S
C207   H219    1.079   .     S
C207   C209    1.398   .     A
C208   C210    1.399   .     A
C208   H220    1.083   .     S
C209   C211    1.401   .     A
C210   C212    1.402   .     A
C211   C213    1.388   .     A
C211   F249    1.358   .     S
C212   C214    1.387   .     A
C212   F250    1.358   .     S
C213   F251    1.359   .     S
C213   C215    1.402   .     A
C214   F252    1.359   .     S
C214   C216    1.402   .     A
C215   C498    1.464   1_545 S
C216   C497    1.464   .     S
Cu217  N224    2.027   .     S
Cu217  Cu218   2.698   .     S
Cu217  O232    1.964   .     S
Cu217  O229    1.969   .     S
Cu217  O228    1.943   .     S
Cu217  O225    1.961   .     S
Cu218  N223    2.027   .     S
Cu218  O226    1.961   .     S
Cu218  O231    1.964   .     S
Cu218  O227    1.943   .     S
Cu218  O230    1.969   .     S
F233   C15     1.364   1_655 S
C235   H241    1.112   .     S
C235   C518    1.524   1_545 S
C235   H522    1.108   1_545 S
C236   H239    1.110   .     S
C236   H238    1.108   .     S
C236   C517    1.524   .     S
C236   H519    1.111   .     S
H237   C518    1.111   1_545 S
H240   C517    1.108   .     S
C242   H248    1.112   .     S
C242   C243    1.524   .     S
C242   H529    1.108   .     S
C243   H244    1.111   .     S
C243   H527    1.108   .     S
C243   H528    1.110   .     S
H245   C525    1.108   1_545 S
H246   C525    1.110   1_545 S
H247   C524    1.108   1_545 S
C253   H259    1.098   .     S
C253   C254    1.524   .     S
C253   H258    1.102   .     S
C254   H257    1.111   .     S
C254   H255    1.110   .     S
C254   H820    1.106   1_554 S
H256   C818    1.106   .     S
C260   H266    1.110   .     S
C260   C825    1.525   .     S
C260   H829    1.108   .     S
C261   H263    1.105   .     S
C261   H264    1.111   .     S
C261   C824    1.525   1_554 S
C261   H826    1.109   1_554 S
H262   C825    1.109   .     S
H265   C824    1.108   1_554 S
C267   H272    1.077   .     S
C267   H273    1.108   .     S
C267   C268    1.535   .     S
C268   H271    1.111   .     S
C268   H270    1.108   .     S
C268   H269    1.106   .     S
C274   H279    1.102   .     S
C274   C275    1.533   .     S
C274   H280    1.108   .     S
C275   H276    1.110   .     S
C275   H278    1.112   .     S
C275   H277    1.102   .     S
C283   C303    1.459   .     S
C283   O319    1.305   .     A
C283   O321    1.294   .     A
C284   C304    1.459   .     S
C284   O320    1.303   .     A
C284   O322    1.295   .     A
C285   C347    1.548   .     S
C285   C287    1.441   .     A
C285   C293    1.416   .     A
C286   C354    1.538   .     S
C286   C288    1.431   .     A
C286   C294    1.413   .     A
C287   C361    1.525   .     S
C287   N317    1.403   .     A
C288   C368    1.530   .     S
C288   N318    1.400   .     A
C289   H315    1.082   .     S
C289   C291    1.412   .     A
C289   N317    1.362   .     A
C290   N318    1.369   .     A
C290   H316    1.078   .     S
C290   C292    1.413   .     A
C291   C293    1.414   .     A
C291   F375    1.357   .     S
C292   F376    1.358   .     S
C292   C294    1.413   .     A
C293   C858    1.518   1_554 S
C294   C857    1.518   .     S
C295   O323    1.293   .     A
C295   C297    1.431   .     S
C295   O325    1.292   .     A
C296   O324    1.292   .     A
C296   C298    1.431   .     S
C296   O326    1.292   .     A
C297   C486    1.340   1_455 S
C297   F515    1.364   1_455 S
C298   C391    1.340   .     S
C298   F422    1.362   .     S
C299   C309    1.418   .     A
C299   C329    1.520   .     S
C299   C301    1.399   .     A
C300   C302    1.400   .     A
C300   C310    1.419   .     A
C300   C336    1.519   .     S
C301   H313    1.079   .     S
C301   C303    1.398   .     A
C302   C304    1.399   .     A
C302   H314    1.083   .     S
C303   C305    1.401   .     A
C304   C306    1.402   .     A
C305   C307    1.388   .     A
C305   F343    1.358   .     S
C306   C308    1.387   .     A
C306   F344    1.358   .     S
C307   F345    1.359   .     S
C307   C309    1.402   .     A
C308   F346    1.359   .     S
C308   C310    1.402   .     A
C310   C27     1.464   1_565 S
Cu311  N318    2.027   .     S
Cu311  Cu312   2.698   .     S
Cu311  O326    1.964   .     S
Cu311  O323    1.969   .     S
Cu311  O322    1.943   .     S
Cu311  O319    1.961   .     S
Cu312  N317    2.027   .     S
Cu312  O320    1.961   .     S
Cu312  O325    1.964   .     S
Cu312  O321    1.943   .     S
Cu312  O324    1.969   .     S
F327   C391    1.364   .     S
F328   C486    1.362   1_455 S
C329   H335    1.112   .     S
C330   H333    1.110   .     S
C330   H332    1.108   .     S
C330   C47     1.524   1_565 S
C330   H49     1.111   1_565 S
H334   C47     1.108   1_565 S
C336   H342    1.112   .     S
C336   C337    1.524   .     S
C336   H59     1.108   1_565 S
C337   H338    1.111   .     S
C337   H57     1.108   1_565 S
C337   H58     1.110   1_565 S
C347   H353    1.098   .     S
C347   C348    1.524   .     S
C347   H352    1.102   .     S
C348   H351    1.111   .     S
C348   H349    1.110   .     S
C348   H914    1.106   1_554 S
H350   C912    1.106   .     S
C354   H360    1.110   .     S
C354   C919    1.525   .     S
C354   H923    1.108   .     S
C355   H357    1.105   .     S
C355   H358    1.111   .     S
C355   C918    1.525   1_554 S
C355   H920    1.109   1_554 S
H356   C919    1.109   .     S
H359   C918    1.108   1_554 S
C361   H366    1.077   .     S
C361   H367    1.108   .     S
C361   C362    1.535   .     S
C362   H365    1.111   .     S
C362   H364    1.108   .     S
C362   H363    1.106   .     S
C368   H373    1.102   .     S
C368   C369    1.533   .     S
C368   H374    1.108   .     S
C369   H370    1.110   .     S
C369   H372    1.112   .     S
C369   H371    1.102   .     S
C377   C397    1.459   .     S
C377   O413    1.305   .     A
C377   O415    1.294   .     A
C378   C398    1.459   .     S
C378   O414    1.303   .     A
C378   O416    1.295   .     A
C379   C441    1.548   .     S
C379   C381    1.441   .     A
C379   C387    1.416   .     A
C380   C448    1.538   .     S
C380   C382    1.431   .     A
C380   C388    1.413   .     A
C381   C455    1.525   .     S
C381   N411    1.403   .     A
C382   C462    1.530   .     S
C382   N412    1.400   .     A
C383   H409    1.082   .     S
C383   C385    1.412   .     A
C383   N411    1.362   .     A
C384   N412    1.369   .     A
C384   H410    1.078   .     S
C384   C386    1.413   .     A
C385   C387    1.414   .     A
C385   F469    1.357   .     S
C386   F470    1.358   .     S
C386   C388    1.413   .     A
C387   C952    1.518   1_554 S
C388   C951    1.518   .     S
C389   O417    1.293   .     A
C389   C391    1.431   .     S
C389   O419    1.292   .     A
C390   O418    1.292   .     A
C390   C392    1.431   .     S
C390   O420    1.292   .     A
C392   C485    1.340   .     S
C392   F516    1.362   .     S
C393   C403    1.418   .     A
C393   C423    1.520   .     S
C393   C395    1.399   .     A
C394   C396    1.400   .     A
C394   C404    1.419   .     A
C394   C430    1.519   .     S
C395   H407    1.079   .     S
C395   C397    1.398   .     A
C396   C398    1.399   .     A
C396   H408    1.083   .     S
C397   C399    1.401   .     A
C398   C400    1.402   .     A
C399   C401    1.388   .     A
C399   F437    1.358   .     S
C400   C402    1.387   .     A
C400   F438    1.358   .     S
C401   F439    1.359   .     S
C401   C403    1.402   .     A
C402   F440    1.359   .     S
C402   C404    1.402   .     A
C404   C121    1.464   1_565 S
Cu405  N412    2.027   .     S
Cu405  Cu406   2.698   .     S
Cu405  O420    1.964   .     S
Cu405  O417    1.969   .     S
Cu405  O416    1.943   .     S
Cu405  O413    1.961   .     S
Cu406  N411    2.027   .     S
Cu406  O414    1.961   .     S
Cu406  O419    1.964   .     S
Cu406  O415    1.943   .     S
Cu406  O418    1.969   .     S
F421   C485    1.364   .     S
C423   H429    1.112   .     S
C424   H427    1.110   .     S
C424   H426    1.108   .     S
C424   C141    1.524   1_565 S
C424   H143    1.111   1_565 S
H428   C141    1.108   1_565 S
C430   H436    1.112   .     S
C430   C431    1.524   .     S
C430   H153    1.108   1_565 S
C431   H432    1.111   .     S
C431   H151    1.108   1_565 S
C431   H152    1.110   1_565 S
C441   H447    1.098   .     S
C441   C442    1.524   .     S
C441   H446    1.102   .     S
C442   H445    1.111   .     S
C442   H443    1.110   .     S
C442   H1008   1.106   1_554 S
H444   C1006   1.106   .     S
C448   H454    1.110   .     S
C448   C1013   1.525   .     S
C448   H1017   1.108   .     S
C449   H451    1.105   .     S
C449   H452    1.111   .     S
C449   C1012   1.525   1_554 S
C449   H1014   1.109   1_554 S
H450   C1013   1.109   .     S
H453   C1012   1.108   1_554 S
C455   H460    1.077   .     S
C455   H461    1.108   .     S
C455   C456    1.535   .     S
C456   H459    1.111   .     S
C456   H458    1.108   .     S
C456   H457    1.106   .     S
C462   H467    1.102   .     S
C462   C463    1.533   .     S
C462   H468    1.108   .     S
C463   H464    1.110   .     S
C463   H466    1.112   .     S
C463   H465    1.102   .     S
C471   C491    1.459   .     S
C471   O507    1.305   .     A
C471   O509    1.294   .     A
C472   C492    1.459   .     S
C472   O508    1.303   .     A
C472   O510    1.295   .     A
C473   C535    1.548   .     S
C473   C475    1.441   .     A
C473   C481    1.416   .     A
C474   C542    1.538   .     S
C474   C476    1.431   .     A
C474   C482    1.413   .     A
C475   C549    1.525   .     S
C475   N505    1.403   .     A
C476   C556    1.530   .     S
C476   N506    1.400   .     A
C477   H503    1.082   .     S
C477   C479    1.412   .     A
C477   N505    1.362   .     A
C478   N506    1.369   .     A
C478   H504    1.078   .     S
C478   C480    1.413   .     A
C479   C481    1.414   .     A
C479   F563    1.357   .     S
C480   F564    1.358   .     S
C480   C482    1.413   .     A
C481   C1046   1.518   1_554 S
C482   C1045   1.518   .     S
C483   O511    1.293   .     A
C483   C485    1.431   .     S
C483   O513    1.292   .     A
C484   O512    1.292   .     A
C484   C486    1.431   .     S
C484   O514    1.292   .     A
C486   C297    1.340   1_655 S
C486   F328    1.362   1_655 S
C487   C497    1.418   .     A
C487   C517    1.520   .     S
C487   C489    1.399   .     A
C488   C490    1.400   .     A
C488   C498    1.419   .     A
C488   C524    1.519   .     S
C489   H501    1.079   .     S
C489   C491    1.398   .     A
C490   C492    1.399   .     A
C490   H502    1.083   .     S
C491   C493    1.401   .     A
C492   C494    1.402   .     A
C493   C495    1.388   .     A
C493   F531    1.358   .     S
C494   C496    1.387   .     A
C494   F532    1.358   .     S
C495   F533    1.359   .     S
C495   C497    1.402   .     A
C496   F534    1.359   .     S
C496   C498    1.402   .     A
C498   C215    1.464   1_565 S
Cu499  N506    2.027   .     S
Cu499  Cu500   2.698   .     S
Cu499  O514    1.964   .     S
Cu499  O511    1.969   .     S
Cu499  O510    1.943   .     S
Cu499  O507    1.961   .     S
Cu500  N505    2.027   .     S
Cu500  O508    1.961   .     S
Cu500  O513    1.964   .     S
Cu500  O509    1.943   .     S
Cu500  O512    1.969   .     S
F515   C297    1.364   1_655 S
C517   H523    1.112   .     S
C518   H521    1.110   .     S
C518   H520    1.108   .     S
C518   C235    1.524   1_565 S
C518   H237    1.111   1_565 S
H522   C235    1.108   1_565 S
C524   H530    1.112   .     S
C524   C525    1.524   .     S
C524   H247    1.108   1_565 S
C525   H526    1.111   .     S
C525   H245    1.108   1_565 S
C525   H246    1.110   1_565 S
C535   H541    1.098   .     S
C535   C536    1.524   .     S
C535   H540    1.102   .     S
C536   H539    1.111   .     S
C536   H537    1.110   .     S
C536   H1102   1.106   1_554 S
H538   C1100   1.106   .     S
C542   H548    1.110   .     S
C542   C1107   1.525   .     S
C542   H1111   1.108   .     S
C543   H545    1.105   .     S
C543   H546    1.111   .     S
C543   C1106   1.525   1_554 S
C543   H1108   1.109   1_554 S
H544   C1107   1.109   .     S
H547   C1106   1.108   1_554 S
C549   H554    1.077   .     S
C549   H555    1.108   .     S
C549   C550    1.535   .     S
C550   H553    1.111   .     S
C550   H552    1.108   .     S
C550   H551    1.106   .     S
C556   H561    1.102   .     S
C556   C557    1.533   .     S
C556   H562    1.108   .     S
C557   H558    1.110   .     S
C557   H560    1.112   .     S
C557   H559    1.102   .     S
C565   C585    1.459   .     S
C565   O601    1.305   .     A
C565   O603    1.294   .     A
C566   C586    1.459   .     S
C566   O602    1.303   .     A
C566   O604    1.295   .     A
C567   C629    1.548   .     S
C567   C569    1.441   .     A
C567   C575    1.416   .     A
C568   C636    1.538   .     S
C568   C570    1.431   .     A
C568   C576    1.413   .     A
C569   C643    1.525   .     S
C569   N599    1.403   .     A
C570   C650    1.530   .     S
C570   N600    1.400   .     A
C571   H597    1.082   .     S
C571   C573    1.412   .     A
C571   N599    1.362   .     A
C572   N600    1.369   .     A
C572   H598    1.078   .     S
C572   C574    1.413   .     A
C573   C575    1.414   .     A
C573   F657    1.357   .     S
C574   F658    1.358   .     S
C574   C576    1.413   .     A
C576   C11     1.518   1_556 S
C577   O605    1.293   .     A
C577   C579    1.431   .     S
C577   O607    1.292   .     A
C578   O606    1.292   .     A
C578   C580    1.431   .     S
C578   O608    1.292   .     A
C579   C768    1.340   1_455 S
C579   F797    1.364   1_455 S
C580   C673    1.340   .     S
C580   F704    1.362   .     S
C581   C591    1.418   .     A
C581   C611    1.520   .     S
C581   C583    1.399   .     A
C582   C584    1.400   .     A
C582   C592    1.419   .     A
C582   C618    1.519   .     S
C583   H595    1.079   .     S
C583   C585    1.398   .     A
C584   C586    1.399   .     A
C584   H596    1.083   .     S
C585   C587    1.401   .     A
C586   C588    1.402   .     A
C587   C589    1.388   .     A
C587   F625    1.358   .     S
C588   C590    1.387   .     A
C588   F626    1.358   .     S
C589   F627    1.359   .     S
C589   C591    1.402   .     A
C590   F628    1.359   .     S
C590   C592    1.402   .     A
C591   C874    1.464   1_545 S
C592   C873    1.464   .     S
Cu593  N600    2.027   .     S
Cu593  Cu594   2.698   .     S
Cu593  O608    1.964   .     S
Cu593  O605    1.969   .     S
Cu593  O604    1.943   .     S
Cu593  O601    1.961   .     S
Cu594  N599    2.027   .     S
Cu594  O602    1.961   .     S
Cu594  O607    1.964   .     S
Cu594  O603    1.943   .     S
Cu594  O606    1.969   .     S
F609   C673    1.364   .     S
F610   C768    1.362   1_455 S
C611   H617    1.112   .     S
C611   C894    1.524   1_545 S
C611   H898    1.108   1_545 S
C612   H615    1.110   .     S
C612   H614    1.108   .     S
C612   C893    1.524   .     S
C612   H895    1.111   .     S
H613   C894    1.111   1_545 S
H616   C893    1.108   .     S
C618   H624    1.112   .     S
C618   C619    1.524   .     S
C618   H905    1.108   .     S
C619   H620    1.111   .     S
C619   H903    1.108   .     S
C619   H904    1.110   .     S
H621   C901    1.108   1_545 S
H622   C901    1.110   1_545 S
H623   C900    1.108   1_545 S
C629   H635    1.098   .     S
C629   C630    1.524   .     S
C629   H634    1.102   .     S
C630   H633    1.111   .     S
C630   H631    1.110   .     S
H632   C66     1.106   1_556 S
C636   H642    1.110   .     S
C636   C73     1.525   1_556 S
C636   H77     1.108   1_556 S
C637   H639    1.105   .     S
C637   H640    1.111   .     S
H638   C73     1.109   1_556 S
C643   H648    1.077   .     S
C643   H649    1.108   .     S
C643   C644    1.535   .     S
C644   H647    1.111   .     S
C644   H646    1.108   .     S
C644   H645    1.106   .     S
C650   H655    1.102   .     S
C650   C651    1.533   .     S
C650   H656    1.108   .     S
C651   H652    1.110   .     S
C651   H654    1.112   .     S
C651   H653    1.102   .     S
C659   C679    1.459   .     S
C659   O695    1.305   .     A
C659   O697    1.294   .     A
C660   C680    1.459   .     S
C660   O696    1.303   .     A
C660   O698    1.295   .     A
C661   C723    1.548   .     S
C661   C663    1.441   .     A
C661   C669    1.416   .     A
C662   C730    1.538   .     S
C662   C664    1.431   .     A
C662   C670    1.413   .     A
C663   C737    1.525   .     S
C663   N693    1.403   .     A
C664   C744    1.530   .     S
C664   N694    1.400   .     A
C665   H691    1.082   .     S
C665   C667    1.412   .     A
C665   N693    1.362   .     A
C666   N694    1.369   .     A
C666   H692    1.078   .     S
C666   C668    1.413   .     A
C667   C669    1.414   .     A
C667   F751    1.357   .     S
C668   F752    1.358   .     S
C668   C670    1.413   .     A
C670   C105    1.518   1_556 S
C671   O699    1.293   .     A
C671   C673    1.431   .     S
C671   O701    1.292   .     A
C672   O700    1.292   .     A
C672   C674    1.431   .     S
C672   O702    1.292   .     A
C674   C767    1.340   .     S
C674   F798    1.362   .     S
C675   C685    1.418   .     A
C675   C705    1.520   .     S
C675   C677    1.399   .     A
C676   C678    1.400   .     A
C676   C686    1.419   .     A
C676   C712    1.519   .     S
C677   H689    1.079   .     S
C677   C679    1.398   .     A
C678   C680    1.399   .     A
C678   H690    1.083   .     S
C679   C681    1.401   .     A
C680   C682    1.402   .     A
C681   C683    1.388   .     A
C681   F719    1.358   .     S
C682   C684    1.387   .     A
C682   F720    1.358   .     S
C683   F721    1.359   .     S
C683   C685    1.402   .     A
C684   F722    1.359   .     S
C684   C686    1.402   .     A
C685   C968    1.464   1_545 S
C686   C967    1.464   .     S
Cu687  N694    2.027   .     S
Cu687  Cu688   2.698   .     S
Cu687  O702    1.964   .     S
Cu687  O699    1.969   .     S
Cu687  O698    1.943   .     S
Cu687  O695    1.961   .     S
Cu688  N693    2.027   .     S
Cu688  O696    1.961   .     S
Cu688  O701    1.964   .     S
Cu688  O697    1.943   .     S
Cu688  O700    1.969   .     S
F703   C767    1.364   .     S
C705   H711    1.112   .     S
C705   C988    1.524   1_545 S
C705   H992    1.108   1_545 S
C706   H709    1.110   .     S
C706   H708    1.108   .     S
C706   C987    1.524   .     S
C706   H989    1.111   .     S
H707   C988    1.111   1_545 S
H710   C987    1.108   .     S
C712   H718    1.112   .     S
C712   C713    1.524   .     S
C712   H999    1.108   .     S
C713   H714    1.111   .     S
C713   H997    1.108   .     S
C713   H998    1.110   .     S
H715   C995    1.108   1_545 S
H716   C995    1.110   1_545 S
H717   C994    1.108   1_545 S
C723   H729    1.098   .     S
C723   C724    1.524   .     S
C723   H728    1.102   .     S
C724   H727    1.111   .     S
C724   H725    1.110   .     S
H726   C160    1.106   1_556 S
C730   H736    1.110   .     S
C730   C167    1.525   1_556 S
C730   H171    1.108   1_556 S
C731   H733    1.105   .     S
C731   H734    1.111   .     S
H732   C167    1.109   1_556 S
C737   H742    1.077   .     S
C737   H743    1.108   .     S
C737   C738    1.535   .     S
C738   H741    1.111   .     S
C738   H740    1.108   .     S
C738   H739    1.106   .     S
C744   H749    1.102   .     S
C744   C745    1.533   .     S
C744   H750    1.108   .     S
C745   H746    1.110   .     S
C745   H748    1.112   .     S
C745   H747    1.102   .     S
C753   C773    1.459   .     S
C753   O789    1.305   .     A
C753   O791    1.294   .     A
C754   C774    1.459   .     S
C754   O790    1.303   .     A
C754   O792    1.295   .     A
C755   C817    1.548   .     S
C755   C757    1.441   .     A
C755   C763    1.416   .     A
C756   C824    1.538   .     S
C756   C758    1.431   .     A
C756   C764    1.413   .     A
C757   C831    1.525   .     S
C757   N787    1.403   .     A
C758   C838    1.530   .     S
C758   N788    1.400   .     A
C759   H785    1.082   .     S
C759   C761    1.412   .     A
C759   N787    1.362   .     A
C760   N788    1.369   .     A
C760   H786    1.078   .     S
C760   C762    1.413   .     A
C761   C763    1.414   .     A
C761   F845    1.357   .     S
C762   F846    1.358   .     S
C762   C764    1.413   .     A
C764   C199    1.518   1_556 S
C765   O793    1.293   .     A
C765   C767    1.431   .     S
C765   O795    1.292   .     A
C766   O794    1.292   .     A
C766   C768    1.431   .     S
C766   O796    1.292   .     A
C768   C579    1.340   1_655 S
C768   F610    1.362   1_655 S
C769   C779    1.418   .     A
C769   C799    1.520   .     S
C769   C771    1.399   .     A
C770   C772    1.400   .     A
C770   C780    1.419   .     A
C770   C806    1.519   .     S
C771   H783    1.079   .     S
C771   C773    1.398   .     A
C772   C774    1.399   .     A
C772   H784    1.083   .     S
C773   C775    1.401   .     A
C774   C776    1.402   .     A
C775   C777    1.388   .     A
C775   F813    1.358   .     S
C776   C778    1.387   .     A
C776   F814    1.358   .     S
C777   F815    1.359   .     S
C777   C779    1.402   .     A
C778   F816    1.359   .     S
C778   C780    1.402   .     A
C779   C1062   1.464   1_545 S
C780   C1061   1.464   .     S
Cu781  N788    2.027   .     S
Cu781  Cu782   2.698   .     S
Cu781  O796    1.964   .     S
Cu781  O793    1.969   .     S
Cu781  O792    1.943   .     S
Cu781  O789    1.961   .     S
Cu782  N787    2.027   .     S
Cu782  O790    1.961   .     S
Cu782  O795    1.964   .     S
Cu782  O791    1.943   .     S
Cu782  O794    1.969   .     S
F797   C579    1.364   1_655 S
C799   H805    1.112   .     S
C799   C1082   1.524   1_545 S
C799   H1086   1.108   1_545 S
C800   H803    1.110   .     S
C800   H802    1.108   .     S
C800   C1081   1.524   .     S
C800   H1083   1.111   .     S
H801   C1082   1.111   1_545 S
H804   C1081   1.108   .     S
C806   H812    1.112   .     S
C806   C807    1.524   .     S
C806   H1093   1.108   .     S
C807   H808    1.111   .     S
C807   H1091   1.108   .     S
C807   H1092   1.110   .     S
H809   C1089   1.108   1_545 S
H810   C1089   1.110   1_545 S
H811   C1088   1.108   1_545 S
C817   H823    1.098   .     S
C817   C818    1.524   .     S
C817   H822    1.102   .     S
C818   H821    1.111   .     S
C818   H819    1.110   .     S
H820   C254    1.106   1_556 S
C824   H830    1.110   .     S
C824   C261    1.525   1_556 S
C824   H265    1.108   1_556 S
C825   H827    1.105   .     S
C825   H828    1.111   .     S
H826   C261    1.109   1_556 S
C831   H836    1.077   .     S
C831   H837    1.108   .     S
C831   C832    1.535   .     S
C832   H835    1.111   .     S
C832   H834    1.108   .     S
C832   H833    1.106   .     S
C838   H843    1.102   .     S
C838   C839    1.533   .     S
C838   H844    1.108   .     S
C839   H840    1.110   .     S
C839   H842    1.112   .     S
C839   H841    1.102   .     S
C847   C867    1.459   .     S
C847   O883    1.305   .     A
C847   O885    1.294   .     A
C848   C868    1.459   .     S
C848   O884    1.303   .     A
C848   O886    1.295   .     A
C849   C911    1.548   .     S
C849   C851    1.441   .     A
C849   C857    1.416   .     A
C850   C918    1.538   .     S
C850   C852    1.431   .     A
C850   C858    1.413   .     A
C851   C925    1.525   .     S
C851   N881    1.403   .     A
C852   C932    1.530   .     S
C852   N882    1.400   .     A
C853   H879    1.082   .     S
C853   C855    1.412   .     A
C853   N881    1.362   .     A
C854   N882    1.369   .     A
C854   H880    1.078   .     S
C854   C856    1.413   .     A
C855   C857    1.414   .     A
C855   F939    1.357   .     S
C856   F940    1.358   .     S
C856   C858    1.413   .     A
C858   C293    1.518   1_556 S
C859   O887    1.293   .     A
C859   C861    1.431   .     S
C859   O889    1.292   .     A
C860   O888    1.292   .     A
C860   C862    1.431   .     S
C860   O890    1.292   .     A
C861   C1050   1.340   1_455 S
C861   F1079   1.364   1_455 S
C862   C955    1.340   .     S
C862   F986    1.362   .     S
C863   C873    1.418   .     A
C863   C893    1.520   .     S
C863   C865    1.399   .     A
C864   C866    1.400   .     A
C864   C874    1.419   .     A
C864   C900    1.519   .     S
C865   H877    1.079   .     S
C865   C867    1.398   .     A
C866   C868    1.399   .     A
C866   H878    1.083   .     S
C867   C869    1.401   .     A
C868   C870    1.402   .     A
C869   C871    1.388   .     A
C869   F907    1.358   .     S
C870   C872    1.387   .     A
C870   F908    1.358   .     S
C871   F909    1.359   .     S
C871   C873    1.402   .     A
C872   F910    1.359   .     S
C872   C874    1.402   .     A
C874   C591    1.464   1_565 S
Cu875  N882    2.027   .     S
Cu875  Cu876   2.698   .     S
Cu875  O890    1.964   .     S
Cu875  O887    1.969   .     S
Cu875  O886    1.943   .     S
Cu875  O883    1.961   .     S
Cu876  N881    2.027   .     S
Cu876  O884    1.961   .     S
Cu876  O889    1.964   .     S
Cu876  O885    1.943   .     S
Cu876  O888    1.969   .     S
F891   C955    1.364   .     S
F892   C1050   1.362   1_455 S
C893   H899    1.112   .     S
C894   H897    1.110   .     S
C894   H896    1.108   .     S
C894   C611    1.524   1_565 S
C894   H613    1.111   1_565 S
H898   C611    1.108   1_565 S
C900   H906    1.112   .     S
C900   C901    1.524   .     S
C900   H623    1.108   1_565 S
C901   H902    1.111   .     S
C901   H621    1.108   1_565 S
C901   H622    1.110   1_565 S
C911   H917    1.098   .     S
C911   C912    1.524   .     S
C911   H916    1.102   .     S
C912   H915    1.111   .     S
C912   H913    1.110   .     S
H914   C348    1.106   1_556 S
C918   H924    1.110   .     S
C918   C355    1.525   1_556 S
C918   H359    1.108   1_556 S
C919   H921    1.105   .     S
C919   H922    1.111   .     S
H920   C355    1.109   1_556 S
C925   H930    1.077   .     S
C925   H931    1.108   .     S
C925   C926    1.535   .     S
C926   H929    1.111   .     S
C926   H928    1.108   .     S
C926   H927    1.106   .     S
C932   H937    1.102   .     S
C932   C933    1.533   .     S
C932   H938    1.108   .     S
C933   H934    1.110   .     S
C933   H936    1.112   .     S
C933   H935    1.102   .     S
C941   C961    1.459   .     S
C941   O977    1.305   .     A
C941   O979    1.294   .     A
C942   C962    1.459   .     S
C942   O978    1.303   .     A
C942   O980    1.295   .     A
C943   C1005   1.548   .     S
C943   C945    1.441   .     A
C943   C951    1.416   .     A
C944   C1012   1.538   .     S
C944   C946    1.431   .     A
C944   C952    1.413   .     A
C945   C1019   1.525   .     S
C945   N975    1.403   .     A
C946   C1026   1.530   .     S
C946   N976    1.400   .     A
C947   H973    1.082   .     S
C947   C949    1.412   .     A
C947   N975    1.362   .     A
C948   N976    1.369   .     A
C948   H974    1.078   .     S
C948   C950    1.413   .     A
C949   C951    1.414   .     A
C949   F1033   1.357   .     S
C950   F1034   1.358   .     S
C950   C952    1.413   .     A
C952   C387    1.518   1_556 S
C953   O981    1.293   .     A
C953   C955    1.431   .     S
C953   O983    1.292   .     A
C954   O982    1.292   .     A
C954   C956    1.431   .     S
C954   O984    1.292   .     A
C956   C1049   1.340   .     S
C956   F1080   1.362   .     S
C957   C967    1.418   .     A
C957   C987    1.520   .     S
C957   C959    1.399   .     A
C958   C960    1.400   .     A
C958   C968    1.419   .     A
C958   C994    1.519   .     S
C959   H971    1.079   .     S
C959   C961    1.398   .     A
C960   C962    1.399   .     A
C960   H972    1.083   .     S
C961   C963    1.401   .     A
C962   C964    1.402   .     A
C963   C965    1.388   .     A
C963   F1001   1.358   .     S
C964   C966    1.387   .     A
C964   F1002   1.358   .     S
C965   F1003   1.359   .     S
C965   C967    1.402   .     A
C966   F1004   1.359   .     S
C966   C968    1.402   .     A
C968   C685    1.464   1_565 S
Cu969  N976    2.027   .     S
Cu969  Cu970   2.698   .     S
Cu969  O984    1.964   .     S
Cu969  O981    1.969   .     S
Cu969  O980    1.943   .     S
Cu969  O977    1.961   .     S
Cu970  N975    2.027   .     S
Cu970  O978    1.961   .     S
Cu970  O983    1.964   .     S
Cu970  O979    1.943   .     S
Cu970  O982    1.969   .     S
F985   C1049   1.364   .     S
C987   H993    1.112   .     S
C988   H991    1.110   .     S
C988   H990    1.108   .     S
C988   C705    1.524   1_565 S
C988   H707    1.111   1_565 S
H992   C705    1.108   1_565 S
C994   H1000   1.112   .     S
C994   C995    1.524   .     S
C994   H717    1.108   1_565 S
C995   H996    1.111   .     S
C995   H715    1.108   1_565 S
C995   H716    1.110   1_565 S
C1005  H1011   1.098   .     S
C1005  C1006   1.524   .     S
C1005  H1010   1.102   .     S
C1006  H1009   1.111   .     S
C1006  H1007   1.110   .     S
H1008  C442    1.106   1_556 S
C1012  H1018   1.110   .     S
C1012  C449    1.525   1_556 S
C1012  H453    1.108   1_556 S
C1013  H1015   1.105   .     S
C1013  H1016   1.111   .     S
H1014  C449    1.109   1_556 S
C1019  H1024   1.077   .     S
C1019  H1025   1.108   .     S
C1019  C1020   1.535   .     S
C1020  H1023   1.111   .     S
C1020  H1022   1.108   .     S
C1020  H1021   1.106   .     S
C1026  H1031   1.102   .     S
C1026  C1027   1.533   .     S
C1026  H1032   1.108   .     S
C1027  H1028   1.110   .     S
C1027  H1030   1.112   .     S
C1027  H1029   1.102   .     S
C1035  C1055   1.459   .     S
C1035  O1071   1.305   .     A
C1035  O1073   1.294   .     A
C1036  C1056   1.459   .     S
C1036  O1072   1.303   .     A
C1036  O1074   1.295   .     A
C1037  C1099   1.548   .     S
C1037  C1039   1.441   .     A
C1037  C1045   1.416   .     A
C1038  C1106   1.538   .     S
C1038  C1040   1.431   .     A
C1038  C1046   1.413   .     A
C1039  C1113   1.525   .     S
C1039  N1069   1.403   .     A
C1040  C1120   1.530   .     S
C1040  N1070   1.400   .     A
C1041  H1067   1.082   .     S
C1041  C1043   1.412   .     A
C1041  N1069   1.362   .     A
C1042  N1070   1.369   .     A
C1042  H1068   1.078   .     S
C1042  C1044   1.413   .     A
C1043  C1045   1.414   .     A
C1043  F1127   1.357   .     S
C1044  F1128   1.358   .     S
C1044  C1046   1.413   .     A
C1046  C481    1.518   1_556 S
C1047  O1075   1.293   .     A
C1047  C1049   1.431   .     S
C1047  O1077   1.292   .     A
C1048  O1076   1.292   .     A
C1048  C1050   1.431   .     S
C1048  O1078   1.292   .     A
C1050  C861    1.340   1_655 S
C1050  F892    1.362   1_655 S
C1051  C1061   1.418   .     A
C1051  C1081   1.520   .     S
C1051  C1053   1.399   .     A
C1052  C1054   1.400   .     A
C1052  C1062   1.419   .     A
C1052  C1088   1.519   .     S
C1053  H1065   1.079   .     S
C1053  C1055   1.398   .     A
C1054  C1056   1.399   .     A
C1054  H1066   1.083   .     S
C1055  C1057   1.401   .     A
C1056  C1058   1.402   .     A
C1057  C1059   1.388   .     A
C1057  F1095   1.358   .     S
C1058  C1060   1.387   .     A
C1058  F1096   1.358   .     S
C1059  F1097   1.359   .     S
C1059  C1061   1.402   .     A
C1060  F1098   1.359   .     S
C1060  C1062   1.402   .     A
C1062  C779    1.464   1_565 S
Cu1063 N1070   2.027   .     S
Cu1063 Cu1064  2.698   .     S
Cu1063 O1078   1.964   .     S
Cu1063 O1075   1.969   .     S
Cu1063 O1074   1.943   .     S
Cu1063 O1071   1.961   .     S
Cu1064 N1069   2.027   .     S
Cu1064 O1072   1.961   .     S
Cu1064 O1077   1.964   .     S
Cu1064 O1073   1.943   .     S
Cu1064 O1076   1.969   .     S
F1079  C861    1.364   1_655 S
C1081  H1087   1.112   .     S
C1082  H1085   1.110   .     S
C1082  H1084   1.108   .     S
C1082  C799    1.524   1_565 S
C1082  H801    1.111   1_565 S
H1086  C799    1.108   1_565 S
C1088  H1094   1.112   .     S
C1088  C1089   1.524   .     S
C1088  H811    1.108   1_565 S
C1089  H1090   1.111   .     S
C1089  H809    1.108   1_565 S
C1089  H810    1.110   1_565 S
C1099  H1105   1.098   .     S
C1099  C1100   1.524   .     S
C1099  H1104   1.102   .     S
C1100  H1103   1.111   .     S
C1100  H1101   1.110   .     S
H1102  C536    1.106   1_556 S
C1106  H1112   1.110   .     S
C1106  C543    1.525   1_556 S
C1106  H547    1.108   1_556 S
C1107  H1109   1.105   .     S
C1107  H1110   1.111   .     S
H1108  C543    1.109   1_556 S
C1113  H1118   1.077   .     S
C1113  H1119   1.108   .     S
C1113  C1114   1.535   .     S
C1114  H1117   1.111   .     S
C1114  H1116   1.108   .     S
C1114  H1115   1.106   .     S
C1120  H1125   1.102   .     S
C1120  C1121   1.533   .     S
C1120  H1126   1.108   .     S
C1121  H1122   1.110   .     S
C1121  H1124   1.112   .     S
C1121  H1123   1.102   .     S
