data_str_m2_o10_o17_pcu_sym.235
_audit_creation_date              2020-01-03
_audit_creation_method            'Materials Studio'
_symmetry_space_group_name_H-M    'P1'
_symmetry_Int_Tables_number       1
_symmetry_cell_setting            triclinic
loop_
_symmetry_equiv_pos_as_xyz
  x,y,z
_cell_length_a                    30.0293
_cell_length_b                    26.2688
_cell_length_c                    22.5214
_cell_angle_alpha                 102.9539
_cell_angle_beta                  94.8812
_cell_angle_gamma                 93.8511
loop_
_atom_site_label
_atom_site_type_symbol
_atom_site_fract_x
_atom_site_fract_y
_atom_site_fract_z
_atom_site_U_iso_or_equiv
_atom_site_adp_type
_atom_site_occupancy
C1     C     0.24788   0.06684   0.15137   0.00000  Uiso   1.00
C2     C     0.25211   0.26649   0.18196   0.00000  Uiso   1.00
C3     C     0.01405   0.07115   0.12308   0.00000  Uiso   1.00
C4     C     0.48595   0.26214   0.21037   0.00000  Uiso   1.00
C5     C     0.24190   0.01122   0.14409   0.00000  Uiso   1.00
C6     C     0.25810   0.32211   0.18924   0.00000  Uiso   1.00
C7     C     0.16472   0.16609   0.16698   0.00000  Uiso   1.00
C8     C     0.33528   0.16724   0.16636   0.00000  Uiso   1.00
C9     C     0.40972   0.21530   0.17850   0.00000  Uiso   1.00
C10    C     0.09029   0.11801   0.15485   0.00000  Uiso   1.00
C11    C     0.38344   0.16748   0.16563   0.00000  Uiso   1.00
C12    C     0.11656   0.16583   0.16771   0.00000  Uiso   1.00
C13    C     0.40238   0.11977   0.15386   0.00000  Uiso   1.00
C14    C     0.09761   0.21354   0.17953   0.00000  Uiso   1.00
C15    C     0.44852   0.11909   0.14691   0.00000  Uiso   1.00
C16    C     0.05148   0.21420   0.18651   0.00000  Uiso   1.00
C17    C     0.47645   0.16704   0.16635   0.00000  Uiso   1.00
C18    C     0.02356   0.16625   0.16706   0.00000  Uiso   1.00
C19    C     0.45716   0.21572   0.18482   0.00000  Uiso   1.00
C20    C     0.04285   0.11758   0.14858   0.00000  Uiso   1.00
C21    C     0.46739   0.07244   0.12054   0.00000  Uiso   1.00
C22    C     0.03262   0.26084   0.21291   0.00000  Uiso   1.00
Cu23   Cu    0.25501   0.17246   0.22813   0.00000  Uiso   1.00
Cu24   Cu    0.24500   0.16087   0.10521   0.00000  Uiso   1.00
N25    N     0.23745   0.15214   0.01284   0.00000  Uiso   1.00
N26    N     0.26256   0.18119   0.32049   0.00000  Uiso   1.00
O27    O     0.25326   0.09538   0.20659   0.00000  Uiso   1.00
O28    O     0.24675   0.23796   0.12674   0.00000  Uiso   1.00
O29    O     0.24480   0.08559   0.10279   0.00000  Uiso   1.00
O30    O     0.25520   0.24774   0.23055   0.00000  Uiso   1.00
O31    O     0.18936   0.17155   0.21857   0.00000  Uiso   1.00
O32    O     0.31065   0.16179   0.11476   0.00000  Uiso   1.00
O33    O     0.18090   0.16176   0.11477   0.00000  Uiso   1.00
O34    O     0.31910   0.17157   0.21857   0.00000  Uiso   1.00
Cl35   Cl    0.38068   0.27262   0.18392   0.00000  Uiso   1.00
Cl36   Cl    0.11935   0.06071   0.14935   0.00000  Uiso   1.00
Cl37   Cl    0.36796   0.06309   0.15752   0.00000  Uiso   1.00
Cl38   Cl    0.13202   0.27023   0.17588   0.00000  Uiso   1.00
Cl39   Cl    0.43375   0.01685   0.07428   0.00000  Uiso   1.00
Cl40   Cl    0.06626   0.31640   0.25923   0.00000  Uiso   1.00
C41    C     0.03057   0.02190   0.09431   0.00000  Uiso   1.00
N42    N     0.04304   0.31553   0.07116   0.00000  Uiso   1.00
C43    C     0.46944   0.31138   0.23918   0.00000  Uiso   1.00
N44    N     0.45697   0.01773   0.26235   0.00000  Uiso   1.00
C45    C     0.21408   0.31604   0.08894   0.00000  Uiso   1.00
N46    N     0.19195   0.29360   0.04505   0.00000  Uiso   1.00
C47    C     0.28592   0.01730   0.24440   0.00000  Uiso   1.00
N48    N     0.30804   0.03973   0.28829   0.00000  Uiso   1.00
C49    C     0.20630   0.11450   0.30930   0.00000  Uiso   1.00
N50    N     0.18008   0.08274   0.27939   0.00000  Uiso   1.00
C51    C     0.29370   0.21884   0.02403   0.00000  Uiso   1.00
N52    N     0.31991   0.25061   0.05394   0.00000  Uiso   1.00
C53    C     0.74788   0.06684   0.15137   0.00000  Uiso   1.00
C54    C     0.75211   0.26649   0.18196   0.00000  Uiso   1.00
C55    C     0.51405   0.07115   0.12308   0.00000  Uiso   1.00
C56    C     0.98595   0.26214   0.21037   0.00000  Uiso   1.00
C57    C     0.74190   0.01122   0.14409   0.00000  Uiso   1.00
C58    C     0.75810   0.32211   0.18924   0.00000  Uiso   1.00
C59    C     0.66472   0.16609   0.16698   0.00000  Uiso   1.00
C60    C     0.83528   0.16724   0.16636   0.00000  Uiso   1.00
C61    C     0.90972   0.21530   0.17850   0.00000  Uiso   1.00
C62    C     0.59029   0.11801   0.15485   0.00000  Uiso   1.00
C63    C     0.88344   0.16748   0.16563   0.00000  Uiso   1.00
C64    C     0.61656   0.16583   0.16771   0.00000  Uiso   1.00
C65    C     0.90238   0.11977   0.15386   0.00000  Uiso   1.00
C66    C     0.59761   0.21354   0.17953   0.00000  Uiso   1.00
C67    C     0.94852   0.11909   0.14691   0.00000  Uiso   1.00
C68    C     0.55148   0.21420   0.18651   0.00000  Uiso   1.00
C69    C     0.97645   0.16704   0.16635   0.00000  Uiso   1.00
C70    C     0.52356   0.16625   0.16706   0.00000  Uiso   1.00
C71    C     0.95716   0.21572   0.18482   0.00000  Uiso   1.00
C72    C     0.54285   0.11758   0.14858   0.00000  Uiso   1.00
C73    C     0.96739   0.07244   0.12054   0.00000  Uiso   1.00
C74    C     0.53262   0.26084   0.21291   0.00000  Uiso   1.00
Cu75   Cu    0.75501   0.17246   0.22813   0.00000  Uiso   1.00
Cu76   Cu    0.74500   0.16087   0.10521   0.00000  Uiso   1.00
N77    N     0.73745   0.15214   0.01284   0.00000  Uiso   1.00
N78    N     0.76256   0.18119   0.32049   0.00000  Uiso   1.00
O79    O     0.75326   0.09538   0.20659   0.00000  Uiso   1.00
O80    O     0.74675   0.23796   0.12674   0.00000  Uiso   1.00
O81    O     0.74480   0.08559   0.10279   0.00000  Uiso   1.00
O82    O     0.75520   0.24774   0.23055   0.00000  Uiso   1.00
O83    O     0.68936   0.17155   0.21857   0.00000  Uiso   1.00
O84    O     0.81065   0.16179   0.11476   0.00000  Uiso   1.00
O85    O     0.68090   0.16176   0.11477   0.00000  Uiso   1.00
O86    O     0.81910   0.17157   0.21857   0.00000  Uiso   1.00
Cl87   Cl    0.88068   0.27262   0.18392   0.00000  Uiso   1.00
Cl88   Cl    0.61935   0.06071   0.14935   0.00000  Uiso   1.00
Cl89   Cl    0.86796   0.06309   0.15752   0.00000  Uiso   1.00
Cl90   Cl    0.63202   0.27023   0.17588   0.00000  Uiso   1.00
Cl91   Cl    0.93375   0.01685   0.07428   0.00000  Uiso   1.00
Cl92   Cl    0.56626   0.31640   0.25923   0.00000  Uiso   1.00
C93    C     0.53057   0.02190   0.09431   0.00000  Uiso   1.00
N94    N     0.54304   0.31553   0.07116   0.00000  Uiso   1.00
C95    C     0.96944   0.31138   0.23918   0.00000  Uiso   1.00
N96    N     0.95697   0.01773   0.26235   0.00000  Uiso   1.00
C97    C     0.71408   0.31604   0.08894   0.00000  Uiso   1.00
N98    N     0.69195   0.29360   0.04505   0.00000  Uiso   1.00
C99    C     0.78592   0.01730   0.24440   0.00000  Uiso   1.00
N100   N     0.80804   0.03973   0.28829   0.00000  Uiso   1.00
C101   C     0.70630   0.11450   0.30930   0.00000  Uiso   1.00
N102   N     0.68008   0.08274   0.27939   0.00000  Uiso   1.00
C103   C     0.79370   0.21884   0.02403   0.00000  Uiso   1.00
N104   N     0.81991   0.25061   0.05394   0.00000  Uiso   1.00
C105   C     0.24788   0.40017   0.15137   0.00000  Uiso   1.00
C106   C     0.25211   0.59983   0.18196   0.00000  Uiso   1.00
C107   C     0.01405   0.40448   0.12308   0.00000  Uiso   1.00
C108   C     0.48595   0.59547   0.21037   0.00000  Uiso   1.00
C109   C     0.24190   0.34455   0.14409   0.00000  Uiso   1.00
C110   C     0.25810   0.65545   0.18924   0.00000  Uiso   1.00
C111   C     0.16472   0.49943   0.16698   0.00000  Uiso   1.00
C112   C     0.33528   0.50057   0.16636   0.00000  Uiso   1.00
C113   C     0.40972   0.54863   0.17850   0.00000  Uiso   1.00
C114   C     0.09029   0.45135   0.15485   0.00000  Uiso   1.00
C115   C     0.38344   0.50082   0.16563   0.00000  Uiso   1.00
C116   C     0.11656   0.49917   0.16771   0.00000  Uiso   1.00
C117   C     0.40238   0.45310   0.15386   0.00000  Uiso   1.00
C118   C     0.09761   0.54687   0.17953   0.00000  Uiso   1.00
C119   C     0.44852   0.45243   0.14691   0.00000  Uiso   1.00
C120   C     0.05148   0.54753   0.18651   0.00000  Uiso   1.00
C121   C     0.47645   0.50037   0.16635   0.00000  Uiso   1.00
C122   C     0.02356   0.49959   0.16706   0.00000  Uiso   1.00
C123   C     0.45716   0.54905   0.18482   0.00000  Uiso   1.00
C124   C     0.04285   0.45091   0.14858   0.00000  Uiso   1.00
C125   C     0.46739   0.40578   0.12054   0.00000  Uiso   1.00
C126   C     0.03262   0.59417   0.21291   0.00000  Uiso   1.00
Cu127  Cu    0.25501   0.50579   0.22813   0.00000  Uiso   1.00
Cu128  Cu    0.24500   0.49421   0.10521   0.00000  Uiso   1.00
N129   N     0.23745   0.48547   0.01284   0.00000  Uiso   1.00
N130   N     0.26256   0.51453   0.32049   0.00000  Uiso   1.00
O131   O     0.25326   0.42871   0.20659   0.00000  Uiso   1.00
O132   O     0.24675   0.57129   0.12674   0.00000  Uiso   1.00
O133   O     0.24480   0.41892   0.10279   0.00000  Uiso   1.00
O134   O     0.25520   0.58108   0.23055   0.00000  Uiso   1.00
O135   O     0.18936   0.50488   0.21857   0.00000  Uiso   1.00
O136   O     0.31065   0.49512   0.11476   0.00000  Uiso   1.00
O137   O     0.18090   0.49510   0.11477   0.00000  Uiso   1.00
O138   O     0.31910   0.50490   0.21857   0.00000  Uiso   1.00
Cl139  Cl    0.38068   0.60595   0.18392   0.00000  Uiso   1.00
Cl140  Cl    0.11935   0.39404   0.14935   0.00000  Uiso   1.00
Cl141  Cl    0.36796   0.39642   0.15752   0.00000  Uiso   1.00
Cl142  Cl    0.13202   0.60356   0.17588   0.00000  Uiso   1.00
Cl143  Cl    0.43375   0.35019   0.07428   0.00000  Uiso   1.00
Cl144  Cl    0.06626   0.64973   0.25923   0.00000  Uiso   1.00
C145   C     0.03057   0.35523   0.09431   0.00000  Uiso   1.00
N146   N     0.04304   0.64887   0.07116   0.00000  Uiso   1.00
C147   C     0.46944   0.64471   0.23918   0.00000  Uiso   1.00
N148   N     0.45697   0.35107   0.26235   0.00000  Uiso   1.00
C149   C     0.21408   0.64937   0.08894   0.00000  Uiso   1.00
N150   N     0.19195   0.62694   0.04505   0.00000  Uiso   1.00
C151   C     0.28592   0.35063   0.24440   0.00000  Uiso   1.00
N152   N     0.30804   0.37306   0.28829   0.00000  Uiso   1.00
C153   C     0.20630   0.44783   0.30930   0.00000  Uiso   1.00
N154   N     0.18008   0.41607   0.27939   0.00000  Uiso   1.00
C155   C     0.29370   0.55218   0.02403   0.00000  Uiso   1.00
N156   N     0.31991   0.58394   0.05394   0.00000  Uiso   1.00
C157   C     0.74788   0.40017   0.15137   0.00000  Uiso   1.00
C158   C     0.75211   0.59983   0.18196   0.00000  Uiso   1.00
C159   C     0.51405   0.40448   0.12308   0.00000  Uiso   1.00
C160   C     0.98595   0.59547   0.21037   0.00000  Uiso   1.00
C161   C     0.74190   0.34455   0.14409   0.00000  Uiso   1.00
C162   C     0.75810   0.65545   0.18924   0.00000  Uiso   1.00
C163   C     0.66472   0.49943   0.16698   0.00000  Uiso   1.00
C164   C     0.83528   0.50057   0.16636   0.00000  Uiso   1.00
C165   C     0.90972   0.54863   0.17850   0.00000  Uiso   1.00
C166   C     0.59029   0.45135   0.15485   0.00000  Uiso   1.00
C167   C     0.88344   0.50082   0.16563   0.00000  Uiso   1.00
C168   C     0.61656   0.49917   0.16771   0.00000  Uiso   1.00
C169   C     0.90238   0.45310   0.15386   0.00000  Uiso   1.00
C170   C     0.59761   0.54687   0.17953   0.00000  Uiso   1.00
C171   C     0.94852   0.45243   0.14691   0.00000  Uiso   1.00
C172   C     0.55148   0.54753   0.18651   0.00000  Uiso   1.00
C173   C     0.97645   0.50037   0.16635   0.00000  Uiso   1.00
C174   C     0.52356   0.49959   0.16706   0.00000  Uiso   1.00
C175   C     0.95716   0.54905   0.18482   0.00000  Uiso   1.00
C176   C     0.54285   0.45091   0.14858   0.00000  Uiso   1.00
C177   C     0.96739   0.40578   0.12054   0.00000  Uiso   1.00
C178   C     0.53262   0.59417   0.21291   0.00000  Uiso   1.00
Cu179  Cu    0.75501   0.50579   0.22813   0.00000  Uiso   1.00
Cu180  Cu    0.74500   0.49421   0.10521   0.00000  Uiso   1.00
N181   N     0.73745   0.48547   0.01284   0.00000  Uiso   1.00
N182   N     0.76256   0.51453   0.32049   0.00000  Uiso   1.00
O183   O     0.75326   0.42871   0.20659   0.00000  Uiso   1.00
O184   O     0.74675   0.57129   0.12674   0.00000  Uiso   1.00
O185   O     0.74480   0.41892   0.10279   0.00000  Uiso   1.00
O186   O     0.75520   0.58108   0.23055   0.00000  Uiso   1.00
O187   O     0.68936   0.50488   0.21857   0.00000  Uiso   1.00
O188   O     0.81065   0.49512   0.11476   0.00000  Uiso   1.00
O189   O     0.68090   0.49510   0.11477   0.00000  Uiso   1.00
O190   O     0.81910   0.50490   0.21857   0.00000  Uiso   1.00
Cl191  Cl    0.88068   0.60595   0.18392   0.00000  Uiso   1.00
Cl192  Cl    0.61935   0.39404   0.14935   0.00000  Uiso   1.00
Cl193  Cl    0.86796   0.39642   0.15752   0.00000  Uiso   1.00
Cl194  Cl    0.63202   0.60356   0.17588   0.00000  Uiso   1.00
Cl195  Cl    0.93375   0.35019   0.07428   0.00000  Uiso   1.00
Cl196  Cl    0.56626   0.64973   0.25923   0.00000  Uiso   1.00
C197   C     0.53057   0.35523   0.09431   0.00000  Uiso   1.00
N198   N     0.54304   0.64887   0.07116   0.00000  Uiso   1.00
C199   C     0.96944   0.64471   0.23918   0.00000  Uiso   1.00
N200   N     0.95697   0.35107   0.26235   0.00000  Uiso   1.00
C201   C     0.71408   0.64937   0.08894   0.00000  Uiso   1.00
N202   N     0.69195   0.62694   0.04505   0.00000  Uiso   1.00
C203   C     0.78592   0.35063   0.24440   0.00000  Uiso   1.00
N204   N     0.80804   0.37306   0.28829   0.00000  Uiso   1.00
C205   C     0.70630   0.44783   0.30930   0.00000  Uiso   1.00
N206   N     0.68008   0.41607   0.27939   0.00000  Uiso   1.00
C207   C     0.79370   0.55218   0.02403   0.00000  Uiso   1.00
N208   N     0.81991   0.58394   0.05394   0.00000  Uiso   1.00
C209   C     0.24788   0.73350   0.15137   0.00000  Uiso   1.00
C210   C     0.25211   0.93316   0.18196   0.00000  Uiso   1.00
C211   C     0.01405   0.73782   0.12308   0.00000  Uiso   1.00
C212   C     0.48595   0.92880   0.21037   0.00000  Uiso   1.00
C213   C     0.24190   0.67789   0.14409   0.00000  Uiso   1.00
C214   C     0.25810   0.98878   0.18924   0.00000  Uiso   1.00
C215   C     0.16472   0.83276   0.16698   0.00000  Uiso   1.00
C216   C     0.33528   0.83391   0.16636   0.00000  Uiso   1.00
C217   C     0.40972   0.88197   0.17850   0.00000  Uiso   1.00
C218   C     0.09029   0.78468   0.15485   0.00000  Uiso   1.00
C219   C     0.38344   0.83415   0.16563   0.00000  Uiso   1.00
C220   C     0.11656   0.83250   0.16771   0.00000  Uiso   1.00
C221   C     0.40238   0.78644   0.15386   0.00000  Uiso   1.00
C222   C     0.09761   0.88020   0.17953   0.00000  Uiso   1.00
C223   C     0.44852   0.78576   0.14691   0.00000  Uiso   1.00
C224   C     0.05148   0.88086   0.18651   0.00000  Uiso   1.00
C225   C     0.47645   0.83371   0.16635   0.00000  Uiso   1.00
C226   C     0.02356   0.83292   0.16706   0.00000  Uiso   1.00
C227   C     0.45716   0.88239   0.18482   0.00000  Uiso   1.00
C228   C     0.04285   0.78424   0.14858   0.00000  Uiso   1.00
C229   C     0.46739   0.73911   0.12054   0.00000  Uiso   1.00
C230   C     0.03262   0.92751   0.21291   0.00000  Uiso   1.00
Cu231  Cu    0.25501   0.83913   0.22813   0.00000  Uiso   1.00
Cu232  Cu    0.24500   0.82754   0.10521   0.00000  Uiso   1.00
N233   N     0.23745   0.81881   0.01284   0.00000  Uiso   1.00
N234   N     0.26256   0.84786   0.32049   0.00000  Uiso   1.00
O235   O     0.25326   0.76204   0.20659   0.00000  Uiso   1.00
O236   O     0.24675   0.90462   0.12674   0.00000  Uiso   1.00
O237   O     0.24480   0.75226   0.10279   0.00000  Uiso   1.00
O238   O     0.25520   0.91441   0.23055   0.00000  Uiso   1.00
O239   O     0.18936   0.83821   0.21857   0.00000  Uiso   1.00
O240   O     0.31065   0.82845   0.11476   0.00000  Uiso   1.00
O241   O     0.18090   0.82843   0.11477   0.00000  Uiso   1.00
O242   O     0.31910   0.83824   0.21857   0.00000  Uiso   1.00
Cl243  Cl    0.38068   0.93929   0.18392   0.00000  Uiso   1.00
Cl244  Cl    0.11935   0.72737   0.14935   0.00000  Uiso   1.00
Cl245  Cl    0.36796   0.72976   0.15752   0.00000  Uiso   1.00
Cl246  Cl    0.13202   0.93689   0.17588   0.00000  Uiso   1.00
Cl247  Cl    0.43375   0.68352   0.07428   0.00000  Uiso   1.00
Cl248  Cl    0.06626   0.98306   0.25923   0.00000  Uiso   1.00
C249   C     0.03057   0.68856   0.09431   0.00000  Uiso   1.00
N250   N     0.04304   0.98220   0.07116   0.00000  Uiso   1.00
C251   C     0.46944   0.97804   0.23918   0.00000  Uiso   1.00
N252   N     0.45697   0.68440   0.26235   0.00000  Uiso   1.00
C253   C     0.21408   0.98270   0.08894   0.00000  Uiso   1.00
N254   N     0.19195   0.96027   0.04505   0.00000  Uiso   1.00
C255   C     0.28592   0.68396   0.24440   0.00000  Uiso   1.00
N256   N     0.30804   0.70640   0.28829   0.00000  Uiso   1.00
C257   C     0.20630   0.78116   0.30930   0.00000  Uiso   1.00
N258   N     0.18008   0.74940   0.27939   0.00000  Uiso   1.00
C259   C     0.29370   0.88551   0.02403   0.00000  Uiso   1.00
N260   N     0.31991   0.91728   0.05394   0.00000  Uiso   1.00
C261   C     0.74788   0.73350   0.15137   0.00000  Uiso   1.00
C262   C     0.75211   0.93316   0.18196   0.00000  Uiso   1.00
C263   C     0.51405   0.73782   0.12308   0.00000  Uiso   1.00
C264   C     0.98595   0.92880   0.21037   0.00000  Uiso   1.00
C265   C     0.74190   0.67789   0.14409   0.00000  Uiso   1.00
C266   C     0.75810   0.98878   0.18924   0.00000  Uiso   1.00
C267   C     0.66472   0.83276   0.16698   0.00000  Uiso   1.00
C268   C     0.83528   0.83391   0.16636   0.00000  Uiso   1.00
C269   C     0.90972   0.88197   0.17850   0.00000  Uiso   1.00
C270   C     0.59029   0.78468   0.15485   0.00000  Uiso   1.00
C271   C     0.88344   0.83415   0.16563   0.00000  Uiso   1.00
C272   C     0.61656   0.83250   0.16771   0.00000  Uiso   1.00
C273   C     0.90238   0.78644   0.15386   0.00000  Uiso   1.00
C274   C     0.59761   0.88020   0.17953   0.00000  Uiso   1.00
C275   C     0.94852   0.78576   0.14691   0.00000  Uiso   1.00
C276   C     0.55148   0.88086   0.18651   0.00000  Uiso   1.00
C277   C     0.97645   0.83371   0.16635   0.00000  Uiso   1.00
C278   C     0.52356   0.83292   0.16706   0.00000  Uiso   1.00
C279   C     0.95716   0.88239   0.18482   0.00000  Uiso   1.00
C280   C     0.54285   0.78424   0.14858   0.00000  Uiso   1.00
C281   C     0.96739   0.73911   0.12054   0.00000  Uiso   1.00
C282   C     0.53262   0.92751   0.21291   0.00000  Uiso   1.00
Cu283  Cu    0.75501   0.83913   0.22813   0.00000  Uiso   1.00
Cu284  Cu    0.74500   0.82754   0.10521   0.00000  Uiso   1.00
N285   N     0.73745   0.81881   0.01284   0.00000  Uiso   1.00
N286   N     0.76256   0.84786   0.32049   0.00000  Uiso   1.00
O287   O     0.75326   0.76204   0.20659   0.00000  Uiso   1.00
O288   O     0.74675   0.90462   0.12674   0.00000  Uiso   1.00
O289   O     0.74480   0.75226   0.10279   0.00000  Uiso   1.00
O290   O     0.75520   0.91441   0.23055   0.00000  Uiso   1.00
O291   O     0.68936   0.83821   0.21857   0.00000  Uiso   1.00
O292   O     0.81065   0.82845   0.11476   0.00000  Uiso   1.00
O293   O     0.68090   0.82843   0.11477   0.00000  Uiso   1.00
O294   O     0.81910   0.83824   0.21857   0.00000  Uiso   1.00
Cl295  Cl    0.88068   0.93929   0.18392   0.00000  Uiso   1.00
Cl296  Cl    0.61935   0.72737   0.14935   0.00000  Uiso   1.00
Cl297  Cl    0.86796   0.72976   0.15752   0.00000  Uiso   1.00
Cl298  Cl    0.63202   0.93689   0.17588   0.00000  Uiso   1.00
Cl299  Cl    0.93375   0.68352   0.07428   0.00000  Uiso   1.00
Cl300  Cl    0.56626   0.98306   0.25923   0.00000  Uiso   1.00
C301   C     0.53057   0.68856   0.09431   0.00000  Uiso   1.00
N302   N     0.54304   0.98220   0.07116   0.00000  Uiso   1.00
C303   C     0.96944   0.97804   0.23918   0.00000  Uiso   1.00
N304   N     0.95697   0.68440   0.26235   0.00000  Uiso   1.00
C305   C     0.71408   0.98270   0.08894   0.00000  Uiso   1.00
N306   N     0.69195   0.96027   0.04505   0.00000  Uiso   1.00
C307   C     0.78592   0.68396   0.24440   0.00000  Uiso   1.00
N308   N     0.80804   0.70640   0.28829   0.00000  Uiso   1.00
C309   C     0.70630   0.78116   0.30930   0.00000  Uiso   1.00
N310   N     0.68008   0.74940   0.27939   0.00000  Uiso   1.00
C311   C     0.79370   0.88551   0.02403   0.00000  Uiso   1.00
N312   N     0.81991   0.91728   0.05394   0.00000  Uiso   1.00
C313   C     0.24788   0.06684   0.48470   0.00000  Uiso   1.00
C314   C     0.25211   0.26649   0.51530   0.00000  Uiso   1.00
C315   C     0.01405   0.07115   0.45641   0.00000  Uiso   1.00
C316   C     0.48595   0.26214   0.54370   0.00000  Uiso   1.00
C317   C     0.24190   0.01122   0.47742   0.00000  Uiso   1.00
C318   C     0.25810   0.32211   0.52258   0.00000  Uiso   1.00
C319   C     0.16472   0.16609   0.50031   0.00000  Uiso   1.00
C320   C     0.33528   0.16724   0.49969   0.00000  Uiso   1.00
C321   C     0.40972   0.21530   0.51183   0.00000  Uiso   1.00
C322   C     0.09029   0.11801   0.48818   0.00000  Uiso   1.00
C323   C     0.38344   0.16748   0.49896   0.00000  Uiso   1.00
C324   C     0.11656   0.16583   0.50105   0.00000  Uiso   1.00
C325   C     0.40238   0.11977   0.48719   0.00000  Uiso   1.00
C326   C     0.09761   0.21354   0.51287   0.00000  Uiso   1.00
C327   C     0.44852   0.11909   0.48024   0.00000  Uiso   1.00
C328   C     0.05148   0.21420   0.51984   0.00000  Uiso   1.00
C329   C     0.47645   0.16704   0.49968   0.00000  Uiso   1.00
C330   C     0.02356   0.16625   0.50039   0.00000  Uiso   1.00
C331   C     0.45716   0.21572   0.51815   0.00000  Uiso   1.00
C332   C     0.04285   0.11758   0.48192   0.00000  Uiso   1.00
C333   C     0.46739   0.07244   0.45388   0.00000  Uiso   1.00
C334   C     0.03262   0.26084   0.54625   0.00000  Uiso   1.00
Cu335  Cu    0.25501   0.17246   0.56146   0.00000  Uiso   1.00
Cu336  Cu    0.24500   0.16087   0.43854   0.00000  Uiso   1.00
N337   N     0.23745   0.15214   0.34617   0.00000  Uiso   1.00
N338   N     0.26256   0.18119   0.65383   0.00000  Uiso   1.00
O339   O     0.25326   0.09538   0.53992   0.00000  Uiso   1.00
O340   O     0.24675   0.23796   0.46008   0.00000  Uiso   1.00
O341   O     0.24480   0.08559   0.43612   0.00000  Uiso   1.00
O342   O     0.25520   0.24774   0.56388   0.00000  Uiso   1.00
O343   O     0.18936   0.17155   0.55191   0.00000  Uiso   1.00
O344   O     0.31065   0.16179   0.44809   0.00000  Uiso   1.00
O345   O     0.18090   0.16176   0.44810   0.00000  Uiso   1.00
O346   O     0.31910   0.17157   0.55190   0.00000  Uiso   1.00
Cl347  Cl    0.38068   0.27262   0.51725   0.00000  Uiso   1.00
Cl348  Cl    0.11935   0.06071   0.48269   0.00000  Uiso   1.00
Cl349  Cl    0.36796   0.06309   0.49086   0.00000  Uiso   1.00
Cl350  Cl    0.13202   0.27023   0.50921   0.00000  Uiso   1.00
Cl351  Cl    0.43375   0.01685   0.40762   0.00000  Uiso   1.00
Cl352  Cl    0.06626   0.31640   0.59256   0.00000  Uiso   1.00
C353   C     0.03057   0.02190   0.42764   0.00000  Uiso   1.00
N354   N     0.04304   0.31553   0.40450   0.00000  Uiso   1.00
C355   C     0.46944   0.31138   0.57251   0.00000  Uiso   1.00
N356   N     0.45697   0.01773   0.59568   0.00000  Uiso   1.00
C357   C     0.21408   0.31604   0.42227   0.00000  Uiso   1.00
N358   N     0.19195   0.29360   0.37838   0.00000  Uiso   1.00
C359   C     0.28592   0.01730   0.57773   0.00000  Uiso   1.00
N360   N     0.30804   0.03973   0.62162   0.00000  Uiso   1.00
C361   C     0.20630   0.11450   0.64263   0.00000  Uiso   1.00
N362   N     0.18008   0.08274   0.61273   0.00000  Uiso   1.00
C363   C     0.29370   0.21884   0.35736   0.00000  Uiso   1.00
N364   N     0.31991   0.25061   0.38727   0.00000  Uiso   1.00
C365   C     0.74788   0.06684   0.48470   0.00000  Uiso   1.00
C366   C     0.75211   0.26649   0.51530   0.00000  Uiso   1.00
C367   C     0.51405   0.07115   0.45641   0.00000  Uiso   1.00
C368   C     0.98595   0.26214   0.54370   0.00000  Uiso   1.00
C369   C     0.74190   0.01122   0.47742   0.00000  Uiso   1.00
C370   C     0.75810   0.32211   0.52258   0.00000  Uiso   1.00
C371   C     0.66472   0.16609   0.50031   0.00000  Uiso   1.00
C372   C     0.83528   0.16724   0.49969   0.00000  Uiso   1.00
C373   C     0.90972   0.21530   0.51183   0.00000  Uiso   1.00
C374   C     0.59029   0.11801   0.48818   0.00000  Uiso   1.00
C375   C     0.88344   0.16748   0.49896   0.00000  Uiso   1.00
C376   C     0.61656   0.16583   0.50105   0.00000  Uiso   1.00
C377   C     0.90238   0.11977   0.48719   0.00000  Uiso   1.00
C378   C     0.59761   0.21354   0.51287   0.00000  Uiso   1.00
C379   C     0.94852   0.11909   0.48024   0.00000  Uiso   1.00
C380   C     0.55148   0.21420   0.51984   0.00000  Uiso   1.00
C381   C     0.97645   0.16704   0.49968   0.00000  Uiso   1.00
C382   C     0.52356   0.16625   0.50039   0.00000  Uiso   1.00
C383   C     0.95716   0.21572   0.51815   0.00000  Uiso   1.00
C384   C     0.54285   0.11758   0.48192   0.00000  Uiso   1.00
C385   C     0.96739   0.07244   0.45388   0.00000  Uiso   1.00
C386   C     0.53262   0.26084   0.54625   0.00000  Uiso   1.00
Cu387  Cu    0.75501   0.17246   0.56146   0.00000  Uiso   1.00
Cu388  Cu    0.74500   0.16087   0.43854   0.00000  Uiso   1.00
N389   N     0.73745   0.15214   0.34617   0.00000  Uiso   1.00
N390   N     0.76256   0.18119   0.65383   0.00000  Uiso   1.00
O391   O     0.75326   0.09538   0.53992   0.00000  Uiso   1.00
O392   O     0.74675   0.23796   0.46008   0.00000  Uiso   1.00
O393   O     0.74480   0.08559   0.43612   0.00000  Uiso   1.00
O394   O     0.75520   0.24774   0.56388   0.00000  Uiso   1.00
O395   O     0.68936   0.17155   0.55191   0.00000  Uiso   1.00
O396   O     0.81065   0.16179   0.44809   0.00000  Uiso   1.00
O397   O     0.68090   0.16176   0.44810   0.00000  Uiso   1.00
O398   O     0.81910   0.17157   0.55190   0.00000  Uiso   1.00
Cl399  Cl    0.88068   0.27262   0.51725   0.00000  Uiso   1.00
Cl400  Cl    0.61935   0.06071   0.48269   0.00000  Uiso   1.00
Cl401  Cl    0.86796   0.06309   0.49086   0.00000  Uiso   1.00
Cl402  Cl    0.63202   0.27023   0.50921   0.00000  Uiso   1.00
Cl403  Cl    0.93375   0.01685   0.40762   0.00000  Uiso   1.00
Cl404  Cl    0.56626   0.31640   0.59256   0.00000  Uiso   1.00
C405   C     0.53057   0.02190   0.42764   0.00000  Uiso   1.00
N406   N     0.54304   0.31553   0.40450   0.00000  Uiso   1.00
C407   C     0.96944   0.31138   0.57251   0.00000  Uiso   1.00
N408   N     0.95697   0.01773   0.59568   0.00000  Uiso   1.00
C409   C     0.71408   0.31604   0.42227   0.00000  Uiso   1.00
N410   N     0.69195   0.29360   0.37838   0.00000  Uiso   1.00
C411   C     0.78592   0.01730   0.57773   0.00000  Uiso   1.00
N412   N     0.80804   0.03973   0.62162   0.00000  Uiso   1.00
C413   C     0.70630   0.11450   0.64263   0.00000  Uiso   1.00
N414   N     0.68008   0.08274   0.61273   0.00000  Uiso   1.00
C415   C     0.79370   0.21884   0.35736   0.00000  Uiso   1.00
N416   N     0.81991   0.25061   0.38727   0.00000  Uiso   1.00
C417   C     0.24788   0.40017   0.48470   0.00000  Uiso   1.00
C418   C     0.25211   0.59983   0.51530   0.00000  Uiso   1.00
C419   C     0.01405   0.40448   0.45641   0.00000  Uiso   1.00
C420   C     0.48595   0.59547   0.54370   0.00000  Uiso   1.00
C421   C     0.24190   0.34455   0.47742   0.00000  Uiso   1.00
C422   C     0.25810   0.65545   0.52258   0.00000  Uiso   1.00
C423   C     0.16472   0.49943   0.50031   0.00000  Uiso   1.00
C424   C     0.33528   0.50057   0.49969   0.00000  Uiso   1.00
C425   C     0.40972   0.54863   0.51183   0.00000  Uiso   1.00
C426   C     0.09029   0.45135   0.48818   0.00000  Uiso   1.00
C427   C     0.38344   0.50082   0.49896   0.00000  Uiso   1.00
C428   C     0.11656   0.49917   0.50105   0.00000  Uiso   1.00
C429   C     0.40238   0.45310   0.48719   0.00000  Uiso   1.00
C430   C     0.09761   0.54687   0.51287   0.00000  Uiso   1.00
C431   C     0.44852   0.45243   0.48024   0.00000  Uiso   1.00
C432   C     0.05148   0.54753   0.51984   0.00000  Uiso   1.00
C433   C     0.47645   0.50037   0.49968   0.00000  Uiso   1.00
C434   C     0.02356   0.49959   0.50039   0.00000  Uiso   1.00
C435   C     0.45716   0.54905   0.51815   0.00000  Uiso   1.00
C436   C     0.04285   0.45091   0.48192   0.00000  Uiso   1.00
C437   C     0.46739   0.40578   0.45388   0.00000  Uiso   1.00
C438   C     0.03262   0.59417   0.54625   0.00000  Uiso   1.00
Cu439  Cu    0.25501   0.50579   0.56146   0.00000  Uiso   1.00
Cu440  Cu    0.24500   0.49421   0.43854   0.00000  Uiso   1.00
N441   N     0.23745   0.48547   0.34617   0.00000  Uiso   1.00
N442   N     0.26256   0.51453   0.65383   0.00000  Uiso   1.00
O443   O     0.25326   0.42871   0.53992   0.00000  Uiso   1.00
O444   O     0.24675   0.57129   0.46008   0.00000  Uiso   1.00
O445   O     0.24480   0.41892   0.43612   0.00000  Uiso   1.00
O446   O     0.25520   0.58108   0.56388   0.00000  Uiso   1.00
O447   O     0.18936   0.50488   0.55191   0.00000  Uiso   1.00
O448   O     0.31065   0.49512   0.44809   0.00000  Uiso   1.00
O449   O     0.18090   0.49510   0.44810   0.00000  Uiso   1.00
O450   O     0.31910   0.50490   0.55190   0.00000  Uiso   1.00
Cl451  Cl    0.38068   0.60595   0.51725   0.00000  Uiso   1.00
Cl452  Cl    0.11935   0.39404   0.48269   0.00000  Uiso   1.00
Cl453  Cl    0.36796   0.39642   0.49086   0.00000  Uiso   1.00
Cl454  Cl    0.13202   0.60356   0.50921   0.00000  Uiso   1.00
Cl455  Cl    0.43375   0.35019   0.40762   0.00000  Uiso   1.00
Cl456  Cl    0.06626   0.64973   0.59256   0.00000  Uiso   1.00
C457   C     0.03057   0.35523   0.42764   0.00000  Uiso   1.00
N458   N     0.04304   0.64887   0.40450   0.00000  Uiso   1.00
C459   C     0.46944   0.64471   0.57251   0.00000  Uiso   1.00
N460   N     0.45697   0.35107   0.59568   0.00000  Uiso   1.00
C461   C     0.21408   0.64937   0.42227   0.00000  Uiso   1.00
N462   N     0.19195   0.62694   0.37838   0.00000  Uiso   1.00
C463   C     0.28592   0.35063   0.57773   0.00000  Uiso   1.00
N464   N     0.30804   0.37306   0.62162   0.00000  Uiso   1.00
C465   C     0.20630   0.44783   0.64263   0.00000  Uiso   1.00
N466   N     0.18008   0.41607   0.61273   0.00000  Uiso   1.00
C467   C     0.29370   0.55218   0.35736   0.00000  Uiso   1.00
N468   N     0.31991   0.58394   0.38727   0.00000  Uiso   1.00
C469   C     0.74788   0.40017   0.48470   0.00000  Uiso   1.00
C470   C     0.75211   0.59983   0.51530   0.00000  Uiso   1.00
C471   C     0.51405   0.40448   0.45641   0.00000  Uiso   1.00
C472   C     0.98595   0.59547   0.54370   0.00000  Uiso   1.00
C473   C     0.74190   0.34455   0.47742   0.00000  Uiso   1.00
C474   C     0.75810   0.65545   0.52258   0.00000  Uiso   1.00
C475   C     0.66472   0.49943   0.50031   0.00000  Uiso   1.00
C476   C     0.83528   0.50057   0.49969   0.00000  Uiso   1.00
C477   C     0.90972   0.54863   0.51183   0.00000  Uiso   1.00
C478   C     0.59029   0.45135   0.48818   0.00000  Uiso   1.00
C479   C     0.88344   0.50082   0.49896   0.00000  Uiso   1.00
C480   C     0.61656   0.49917   0.50105   0.00000  Uiso   1.00
C481   C     0.90238   0.45310   0.48719   0.00000  Uiso   1.00
C482   C     0.59761   0.54687   0.51287   0.00000  Uiso   1.00
C483   C     0.94852   0.45243   0.48024   0.00000  Uiso   1.00
C484   C     0.55148   0.54753   0.51984   0.00000  Uiso   1.00
C485   C     0.97645   0.50037   0.49968   0.00000  Uiso   1.00
C486   C     0.52356   0.49959   0.50039   0.00000  Uiso   1.00
C487   C     0.95716   0.54905   0.51815   0.00000  Uiso   1.00
C488   C     0.54285   0.45091   0.48192   0.00000  Uiso   1.00
C489   C     0.96739   0.40578   0.45388   0.00000  Uiso   1.00
C490   C     0.53262   0.59417   0.54625   0.00000  Uiso   1.00
Cu491  Cu    0.75501   0.50579   0.56146   0.00000  Uiso   1.00
Cu492  Cu    0.74500   0.49421   0.43854   0.00000  Uiso   1.00
N493   N     0.73745   0.48547   0.34617   0.00000  Uiso   1.00
N494   N     0.76256   0.51453   0.65383   0.00000  Uiso   1.00
O495   O     0.75326   0.42871   0.53992   0.00000  Uiso   1.00
O496   O     0.74675   0.57129   0.46008   0.00000  Uiso   1.00
O497   O     0.74480   0.41892   0.43612   0.00000  Uiso   1.00
O498   O     0.75520   0.58108   0.56388   0.00000  Uiso   1.00
O499   O     0.68936   0.50488   0.55191   0.00000  Uiso   1.00
O500   O     0.81065   0.49512   0.44809   0.00000  Uiso   1.00
O501   O     0.68090   0.49510   0.44810   0.00000  Uiso   1.00
O502   O     0.81910   0.50490   0.55190   0.00000  Uiso   1.00
Cl503  Cl    0.88068   0.60595   0.51725   0.00000  Uiso   1.00
Cl504  Cl    0.61935   0.39404   0.48269   0.00000  Uiso   1.00
Cl505  Cl    0.86796   0.39642   0.49086   0.00000  Uiso   1.00
Cl506  Cl    0.63202   0.60356   0.50921   0.00000  Uiso   1.00
Cl507  Cl    0.93375   0.35019   0.40762   0.00000  Uiso   1.00
Cl508  Cl    0.56626   0.64973   0.59256   0.00000  Uiso   1.00
C509   C     0.53057   0.35523   0.42764   0.00000  Uiso   1.00
N510   N     0.54304   0.64887   0.40450   0.00000  Uiso   1.00
C511   C     0.96944   0.64471   0.57251   0.00000  Uiso   1.00
N512   N     0.95697   0.35107   0.59568   0.00000  Uiso   1.00
C513   C     0.71408   0.64937   0.42227   0.00000  Uiso   1.00
N514   N     0.69195   0.62694   0.37838   0.00000  Uiso   1.00
C515   C     0.78592   0.35063   0.57773   0.00000  Uiso   1.00
N516   N     0.80804   0.37306   0.62162   0.00000  Uiso   1.00
C517   C     0.70630   0.44783   0.64263   0.00000  Uiso   1.00
N518   N     0.68008   0.41607   0.61273   0.00000  Uiso   1.00
C519   C     0.79370   0.55218   0.35736   0.00000  Uiso   1.00
N520   N     0.81991   0.58394   0.38727   0.00000  Uiso   1.00
C521   C     0.24788   0.73350   0.48470   0.00000  Uiso   1.00
C522   C     0.25211   0.93316   0.51530   0.00000  Uiso   1.00
C523   C     0.01405   0.73782   0.45641   0.00000  Uiso   1.00
C524   C     0.48595   0.92880   0.54370   0.00000  Uiso   1.00
C525   C     0.24190   0.67789   0.47742   0.00000  Uiso   1.00
C526   C     0.25810   0.98878   0.52258   0.00000  Uiso   1.00
C527   C     0.16472   0.83276   0.50031   0.00000  Uiso   1.00
C528   C     0.33528   0.83391   0.49969   0.00000  Uiso   1.00
C529   C     0.40972   0.88197   0.51183   0.00000  Uiso   1.00
C530   C     0.09029   0.78468   0.48818   0.00000  Uiso   1.00
C531   C     0.38344   0.83415   0.49896   0.00000  Uiso   1.00
C532   C     0.11656   0.83250   0.50105   0.00000  Uiso   1.00
C533   C     0.40238   0.78644   0.48719   0.00000  Uiso   1.00
C534   C     0.09761   0.88020   0.51287   0.00000  Uiso   1.00
C535   C     0.44852   0.78576   0.48024   0.00000  Uiso   1.00
C536   C     0.05148   0.88086   0.51984   0.00000  Uiso   1.00
C537   C     0.47645   0.83371   0.49968   0.00000  Uiso   1.00
C538   C     0.02356   0.83292   0.50039   0.00000  Uiso   1.00
C539   C     0.45716   0.88239   0.51815   0.00000  Uiso   1.00
C540   C     0.04285   0.78424   0.48192   0.00000  Uiso   1.00
C541   C     0.46739   0.73911   0.45388   0.00000  Uiso   1.00
C542   C     0.03262   0.92751   0.54625   0.00000  Uiso   1.00
Cu543  Cu    0.25501   0.83913   0.56146   0.00000  Uiso   1.00
Cu544  Cu    0.24500   0.82754   0.43854   0.00000  Uiso   1.00
N545   N     0.23745   0.81881   0.34617   0.00000  Uiso   1.00
N546   N     0.26256   0.84786   0.65383   0.00000  Uiso   1.00
O547   O     0.25326   0.76204   0.53992   0.00000  Uiso   1.00
O548   O     0.24675   0.90462   0.46008   0.00000  Uiso   1.00
O549   O     0.24480   0.75226   0.43612   0.00000  Uiso   1.00
O550   O     0.25520   0.91441   0.56388   0.00000  Uiso   1.00
O551   O     0.18936   0.83821   0.55191   0.00000  Uiso   1.00
O552   O     0.31065   0.82845   0.44809   0.00000  Uiso   1.00
O553   O     0.18090   0.82843   0.44810   0.00000  Uiso   1.00
O554   O     0.31910   0.83824   0.55190   0.00000  Uiso   1.00
Cl555  Cl    0.38068   0.93929   0.51725   0.00000  Uiso   1.00
Cl556  Cl    0.11935   0.72737   0.48269   0.00000  Uiso   1.00
Cl557  Cl    0.36796   0.72976   0.49086   0.00000  Uiso   1.00
Cl558  Cl    0.13202   0.93689   0.50921   0.00000  Uiso   1.00
Cl559  Cl    0.43375   0.68352   0.40762   0.00000  Uiso   1.00
Cl560  Cl    0.06626   0.98306   0.59256   0.00000  Uiso   1.00
C561   C     0.03057   0.68856   0.42764   0.00000  Uiso   1.00
N562   N     0.04304   0.98220   0.40450   0.00000  Uiso   1.00
C563   C     0.46944   0.97804   0.57251   0.00000  Uiso   1.00
N564   N     0.45697   0.68440   0.59568   0.00000  Uiso   1.00
C565   C     0.21408   0.98270   0.42227   0.00000  Uiso   1.00
N566   N     0.19195   0.96027   0.37838   0.00000  Uiso   1.00
C567   C     0.28592   0.68396   0.57773   0.00000  Uiso   1.00
N568   N     0.30804   0.70640   0.62162   0.00000  Uiso   1.00
C569   C     0.20630   0.78116   0.64263   0.00000  Uiso   1.00
N570   N     0.18008   0.74940   0.61273   0.00000  Uiso   1.00
C571   C     0.29370   0.88551   0.35736   0.00000  Uiso   1.00
N572   N     0.31991   0.91728   0.38727   0.00000  Uiso   1.00
C573   C     0.74788   0.73350   0.48470   0.00000  Uiso   1.00
C574   C     0.75211   0.93316   0.51530   0.00000  Uiso   1.00
C575   C     0.51405   0.73782   0.45641   0.00000  Uiso   1.00
C576   C     0.98595   0.92880   0.54370   0.00000  Uiso   1.00
C577   C     0.74190   0.67789   0.47742   0.00000  Uiso   1.00
C578   C     0.75810   0.98878   0.52258   0.00000  Uiso   1.00
C579   C     0.66472   0.83276   0.50031   0.00000  Uiso   1.00
C580   C     0.83528   0.83391   0.49969   0.00000  Uiso   1.00
C581   C     0.90972   0.88197   0.51183   0.00000  Uiso   1.00
C582   C     0.59029   0.78468   0.48818   0.00000  Uiso   1.00
C583   C     0.88344   0.83415   0.49896   0.00000  Uiso   1.00
C584   C     0.61656   0.83250   0.50105   0.00000  Uiso   1.00
C585   C     0.90238   0.78644   0.48719   0.00000  Uiso   1.00
C586   C     0.59761   0.88020   0.51287   0.00000  Uiso   1.00
C587   C     0.94852   0.78576   0.48024   0.00000  Uiso   1.00
C588   C     0.55148   0.88086   0.51984   0.00000  Uiso   1.00
C589   C     0.97645   0.83371   0.49968   0.00000  Uiso   1.00
C590   C     0.52356   0.83292   0.50039   0.00000  Uiso   1.00
C591   C     0.95716   0.88239   0.51815   0.00000  Uiso   1.00
C592   C     0.54285   0.78424   0.48192   0.00000  Uiso   1.00
C593   C     0.96739   0.73911   0.45388   0.00000  Uiso   1.00
C594   C     0.53262   0.92751   0.54625   0.00000  Uiso   1.00
Cu595  Cu    0.75501   0.83913   0.56146   0.00000  Uiso   1.00
Cu596  Cu    0.74500   0.82754   0.43854   0.00000  Uiso   1.00
N597   N     0.73745   0.81881   0.34617   0.00000  Uiso   1.00
N598   N     0.76256   0.84786   0.65383   0.00000  Uiso   1.00
O599   O     0.75326   0.76204   0.53992   0.00000  Uiso   1.00
O600   O     0.74675   0.90462   0.46008   0.00000  Uiso   1.00
O601   O     0.74480   0.75226   0.43612   0.00000  Uiso   1.00
O602   O     0.75520   0.91441   0.56388   0.00000  Uiso   1.00
O603   O     0.68936   0.83821   0.55191   0.00000  Uiso   1.00
O604   O     0.81065   0.82845   0.44809   0.00000  Uiso   1.00
O605   O     0.68090   0.82843   0.44810   0.00000  Uiso   1.00
O606   O     0.81910   0.83824   0.55190   0.00000  Uiso   1.00
Cl607  Cl    0.88068   0.93929   0.51725   0.00000  Uiso   1.00
Cl608  Cl    0.61935   0.72737   0.48269   0.00000  Uiso   1.00
Cl609  Cl    0.86796   0.72976   0.49086   0.00000  Uiso   1.00
Cl610  Cl    0.63202   0.93689   0.50921   0.00000  Uiso   1.00
Cl611  Cl    0.93375   0.68352   0.40762   0.00000  Uiso   1.00
Cl612  Cl    0.56626   0.98306   0.59256   0.00000  Uiso   1.00
C613   C     0.53057   0.68856   0.42764   0.00000  Uiso   1.00
N614   N     0.54304   0.98220   0.40450   0.00000  Uiso   1.00
C615   C     0.96944   0.97804   0.57251   0.00000  Uiso   1.00
N616   N     0.95697   0.68440   0.59568   0.00000  Uiso   1.00
C617   C     0.71408   0.98270   0.42227   0.00000  Uiso   1.00
N618   N     0.69195   0.96027   0.37838   0.00000  Uiso   1.00
C619   C     0.78592   0.68396   0.57773   0.00000  Uiso   1.00
N620   N     0.80804   0.70640   0.62162   0.00000  Uiso   1.00
C621   C     0.70630   0.78116   0.64263   0.00000  Uiso   1.00
N622   N     0.68008   0.74940   0.61273   0.00000  Uiso   1.00
C623   C     0.79370   0.88551   0.35736   0.00000  Uiso   1.00
N624   N     0.81991   0.91728   0.38727   0.00000  Uiso   1.00
C625   C     0.24788   0.06684   0.81804   0.00000  Uiso   1.00
C626   C     0.25211   0.26649   0.84863   0.00000  Uiso   1.00
C627   C     0.01405   0.07115   0.78975   0.00000  Uiso   1.00
C628   C     0.48595   0.26214   0.87703   0.00000  Uiso   1.00
C629   C     0.24190   0.01122   0.81076   0.00000  Uiso   1.00
C630   C     0.25810   0.32211   0.85591   0.00000  Uiso   1.00
C631   C     0.16472   0.16609   0.83364   0.00000  Uiso   1.00
C632   C     0.33528   0.16724   0.83302   0.00000  Uiso   1.00
C633   C     0.40972   0.21530   0.84517   0.00000  Uiso   1.00
C634   C     0.09029   0.11801   0.82151   0.00000  Uiso   1.00
C635   C     0.38344   0.16748   0.83229   0.00000  Uiso   1.00
C636   C     0.11656   0.16583   0.83438   0.00000  Uiso   1.00
C637   C     0.40238   0.11977   0.82052   0.00000  Uiso   1.00
C638   C     0.09761   0.21354   0.84620   0.00000  Uiso   1.00
C639   C     0.44852   0.11909   0.81358   0.00000  Uiso   1.00
C640   C     0.05148   0.21420   0.85317   0.00000  Uiso   1.00
C641   C     0.47645   0.16704   0.83302   0.00000  Uiso   1.00
C642   C     0.02356   0.16625   0.83373   0.00000  Uiso   1.00
C643   C     0.45716   0.21572   0.85148   0.00000  Uiso   1.00
C644   C     0.04285   0.11758   0.81525   0.00000  Uiso   1.00
C645   C     0.46739   0.07244   0.78721   0.00000  Uiso   1.00
C646   C     0.03262   0.26084   0.87958   0.00000  Uiso   1.00
Cu647  Cu    0.25501   0.17246   0.89479   0.00000  Uiso   1.00
Cu648  Cu    0.24500   0.16087   0.77187   0.00000  Uiso   1.00
N649   N     0.23745   0.15214   0.67951   0.00000  Uiso   1.00
N650   N     0.26256   0.18119   0.98716   0.00000  Uiso   1.00
O651   O     0.25326   0.09538   0.87326   0.00000  Uiso   1.00
O652   O     0.24675   0.23796   0.79341   0.00000  Uiso   1.00
O653   O     0.24480   0.08559   0.76945   0.00000  Uiso   1.00
O654   O     0.25520   0.24774   0.89721   0.00000  Uiso   1.00
O655   O     0.18936   0.17155   0.88524   0.00000  Uiso   1.00
O656   O     0.31065   0.16179   0.78143   0.00000  Uiso   1.00
O657   O     0.18090   0.16176   0.78143   0.00000  Uiso   1.00
O658   O     0.31910   0.17157   0.88523   0.00000  Uiso   1.00
Cl659  Cl    0.38068   0.27262   0.85059   0.00000  Uiso   1.00
Cl660  Cl    0.11935   0.06071   0.81602   0.00000  Uiso   1.00
Cl661  Cl    0.36796   0.06309   0.82419   0.00000  Uiso   1.00
Cl662  Cl    0.13202   0.27023   0.84255   0.00000  Uiso   1.00
Cl663  Cl    0.43375   0.01685   0.74095   0.00000  Uiso   1.00
Cl664  Cl    0.06626   0.31640   0.92590   0.00000  Uiso   1.00
C665   C     0.03057   0.02190   0.76097   0.00000  Uiso   1.00
N666   N     0.04304   0.31553   0.73783   0.00000  Uiso   1.00
C667   C     0.46944   0.31138   0.90584   0.00000  Uiso   1.00
N668   N     0.45697   0.01773   0.92902   0.00000  Uiso   1.00
C669   C     0.21408   0.31604   0.75561   0.00000  Uiso   1.00
N670   N     0.19195   0.29360   0.71171   0.00000  Uiso   1.00
C671   C     0.28592   0.01730   0.91106   0.00000  Uiso   1.00
N672   N     0.30804   0.03973   0.95496   0.00000  Uiso   1.00
C673   C     0.20630   0.11450   0.97597   0.00000  Uiso   1.00
N674   N     0.18008   0.08274   0.94606   0.00000  Uiso   1.00
C675   C     0.29370   0.21884   0.69070   0.00000  Uiso   1.00
N676   N     0.31991   0.25061   0.72060   0.00000  Uiso   1.00
C677   C     0.74788   0.06684   0.81804   0.00000  Uiso   1.00
C678   C     0.75211   0.26649   0.84863   0.00000  Uiso   1.00
C679   C     0.51405   0.07115   0.78975   0.00000  Uiso   1.00
C680   C     0.98595   0.26214   0.87703   0.00000  Uiso   1.00
C681   C     0.74190   0.01122   0.81076   0.00000  Uiso   1.00
C682   C     0.75810   0.32211   0.85591   0.00000  Uiso   1.00
C683   C     0.66472   0.16609   0.83364   0.00000  Uiso   1.00
C684   C     0.83528   0.16724   0.83302   0.00000  Uiso   1.00
C685   C     0.90972   0.21530   0.84517   0.00000  Uiso   1.00
C686   C     0.59029   0.11801   0.82151   0.00000  Uiso   1.00
C687   C     0.88344   0.16748   0.83229   0.00000  Uiso   1.00
C688   C     0.61656   0.16583   0.83438   0.00000  Uiso   1.00
C689   C     0.90238   0.11977   0.82052   0.00000  Uiso   1.00
C690   C     0.59761   0.21354   0.84620   0.00000  Uiso   1.00
C691   C     0.94852   0.11909   0.81358   0.00000  Uiso   1.00
C692   C     0.55148   0.21420   0.85317   0.00000  Uiso   1.00
C693   C     0.97645   0.16704   0.83302   0.00000  Uiso   1.00
C694   C     0.52356   0.16625   0.83373   0.00000  Uiso   1.00
C695   C     0.95716   0.21572   0.85148   0.00000  Uiso   1.00
C696   C     0.54285   0.11758   0.81525   0.00000  Uiso   1.00
C697   C     0.96739   0.07244   0.78721   0.00000  Uiso   1.00
C698   C     0.53262   0.26084   0.87958   0.00000  Uiso   1.00
Cu699  Cu    0.75501   0.17246   0.89479   0.00000  Uiso   1.00
Cu700  Cu    0.74500   0.16087   0.77187   0.00000  Uiso   1.00
N701   N     0.73745   0.15214   0.67951   0.00000  Uiso   1.00
N702   N     0.76256   0.18119   0.98716   0.00000  Uiso   1.00
O703   O     0.75326   0.09538   0.87326   0.00000  Uiso   1.00
O704   O     0.74675   0.23796   0.79341   0.00000  Uiso   1.00
O705   O     0.74480   0.08559   0.76945   0.00000  Uiso   1.00
O706   O     0.75520   0.24774   0.89721   0.00000  Uiso   1.00
O707   O     0.68936   0.17155   0.88524   0.00000  Uiso   1.00
O708   O     0.81065   0.16179   0.78143   0.00000  Uiso   1.00
O709   O     0.68090   0.16176   0.78143   0.00000  Uiso   1.00
O710   O     0.81910   0.17157   0.88523   0.00000  Uiso   1.00
Cl711  Cl    0.88068   0.27262   0.85059   0.00000  Uiso   1.00
Cl712  Cl    0.61935   0.06071   0.81602   0.00000  Uiso   1.00
Cl713  Cl    0.86796   0.06309   0.82419   0.00000  Uiso   1.00
Cl714  Cl    0.63202   0.27023   0.84255   0.00000  Uiso   1.00
Cl715  Cl    0.93375   0.01685   0.74095   0.00000  Uiso   1.00
Cl716  Cl    0.56626   0.31640   0.92590   0.00000  Uiso   1.00
C717   C     0.53057   0.02190   0.76097   0.00000  Uiso   1.00
N718   N     0.54304   0.31553   0.73783   0.00000  Uiso   1.00
C719   C     0.96944   0.31138   0.90584   0.00000  Uiso   1.00
N720   N     0.95697   0.01773   0.92902   0.00000  Uiso   1.00
C721   C     0.71408   0.31604   0.75561   0.00000  Uiso   1.00
N722   N     0.69195   0.29360   0.71171   0.00000  Uiso   1.00
C723   C     0.78592   0.01730   0.91106   0.00000  Uiso   1.00
N724   N     0.80804   0.03973   0.95496   0.00000  Uiso   1.00
C725   C     0.70630   0.11450   0.97597   0.00000  Uiso   1.00
N726   N     0.68008   0.08274   0.94606   0.00000  Uiso   1.00
C727   C     0.79370   0.21884   0.69070   0.00000  Uiso   1.00
N728   N     0.81991   0.25061   0.72060   0.00000  Uiso   1.00
C729   C     0.24788   0.40017   0.81804   0.00000  Uiso   1.00
C730   C     0.25211   0.59983   0.84863   0.00000  Uiso   1.00
C731   C     0.01405   0.40448   0.78975   0.00000  Uiso   1.00
C732   C     0.48595   0.59547   0.87703   0.00000  Uiso   1.00
C733   C     0.24190   0.34455   0.81076   0.00000  Uiso   1.00
C734   C     0.25810   0.65545   0.85591   0.00000  Uiso   1.00
C735   C     0.16472   0.49943   0.83364   0.00000  Uiso   1.00
C736   C     0.33528   0.50057   0.83302   0.00000  Uiso   1.00
C737   C     0.40972   0.54863   0.84517   0.00000  Uiso   1.00
C738   C     0.09029   0.45135   0.82151   0.00000  Uiso   1.00
C739   C     0.38344   0.50082   0.83229   0.00000  Uiso   1.00
C740   C     0.11656   0.49917   0.83438   0.00000  Uiso   1.00
C741   C     0.40238   0.45310   0.82052   0.00000  Uiso   1.00
C742   C     0.09761   0.54687   0.84620   0.00000  Uiso   1.00
C743   C     0.44852   0.45243   0.81358   0.00000  Uiso   1.00
C744   C     0.05148   0.54753   0.85317   0.00000  Uiso   1.00
C745   C     0.47645   0.50037   0.83302   0.00000  Uiso   1.00
C746   C     0.02356   0.49959   0.83373   0.00000  Uiso   1.00
C747   C     0.45716   0.54905   0.85148   0.00000  Uiso   1.00
C748   C     0.04285   0.45091   0.81525   0.00000  Uiso   1.00
C749   C     0.46739   0.40578   0.78721   0.00000  Uiso   1.00
C750   C     0.03262   0.59417   0.87958   0.00000  Uiso   1.00
Cu751  Cu    0.25501   0.50579   0.89479   0.00000  Uiso   1.00
Cu752  Cu    0.24500   0.49421   0.77187   0.00000  Uiso   1.00
N753   N     0.23745   0.48547   0.67951   0.00000  Uiso   1.00
N754   N     0.26256   0.51453   0.98716   0.00000  Uiso   1.00
O755   O     0.25326   0.42871   0.87326   0.00000  Uiso   1.00
O756   O     0.24675   0.57129   0.79341   0.00000  Uiso   1.00
O757   O     0.24480   0.41892   0.76945   0.00000  Uiso   1.00
O758   O     0.25520   0.58108   0.89721   0.00000  Uiso   1.00
O759   O     0.18936   0.50488   0.88524   0.00000  Uiso   1.00
O760   O     0.31065   0.49512   0.78143   0.00000  Uiso   1.00
O761   O     0.18090   0.49510   0.78143   0.00000  Uiso   1.00
O762   O     0.31910   0.50490   0.88523   0.00000  Uiso   1.00
Cl763  Cl    0.38068   0.60595   0.85059   0.00000  Uiso   1.00
Cl764  Cl    0.11935   0.39404   0.81602   0.00000  Uiso   1.00
Cl765  Cl    0.36796   0.39642   0.82419   0.00000  Uiso   1.00
Cl766  Cl    0.13202   0.60356   0.84255   0.00000  Uiso   1.00
Cl767  Cl    0.43375   0.35019   0.74095   0.00000  Uiso   1.00
Cl768  Cl    0.06626   0.64973   0.92590   0.00000  Uiso   1.00
C769   C     0.03057   0.35523   0.76097   0.00000  Uiso   1.00
N770   N     0.04304   0.64887   0.73783   0.00000  Uiso   1.00
C771   C     0.46944   0.64471   0.90584   0.00000  Uiso   1.00
N772   N     0.45697   0.35107   0.92902   0.00000  Uiso   1.00
C773   C     0.21408   0.64937   0.75561   0.00000  Uiso   1.00
N774   N     0.19195   0.62694   0.71171   0.00000  Uiso   1.00
C775   C     0.28592   0.35063   0.91106   0.00000  Uiso   1.00
N776   N     0.30804   0.37306   0.95496   0.00000  Uiso   1.00
C777   C     0.20630   0.44783   0.97597   0.00000  Uiso   1.00
N778   N     0.18008   0.41607   0.94606   0.00000  Uiso   1.00
C779   C     0.29370   0.55218   0.69070   0.00000  Uiso   1.00
N780   N     0.31991   0.58394   0.72060   0.00000  Uiso   1.00
C781   C     0.74788   0.40017   0.81804   0.00000  Uiso   1.00
C782   C     0.75211   0.59983   0.84863   0.00000  Uiso   1.00
C783   C     0.51405   0.40448   0.78975   0.00000  Uiso   1.00
C784   C     0.98595   0.59547   0.87703   0.00000  Uiso   1.00
C785   C     0.74190   0.34455   0.81076   0.00000  Uiso   1.00
C786   C     0.75810   0.65545   0.85591   0.00000  Uiso   1.00
C787   C     0.66472   0.49943   0.83364   0.00000  Uiso   1.00
C788   C     0.83528   0.50057   0.83302   0.00000  Uiso   1.00
C789   C     0.90972   0.54863   0.84517   0.00000  Uiso   1.00
C790   C     0.59029   0.45135   0.82151   0.00000  Uiso   1.00
C791   C     0.88344   0.50082   0.83229   0.00000  Uiso   1.00
C792   C     0.61656   0.49917   0.83438   0.00000  Uiso   1.00
C793   C     0.90238   0.45310   0.82052   0.00000  Uiso   1.00
C794   C     0.59761   0.54687   0.84620   0.00000  Uiso   1.00
C795   C     0.94852   0.45243   0.81358   0.00000  Uiso   1.00
C796   C     0.55148   0.54753   0.85317   0.00000  Uiso   1.00
C797   C     0.97645   0.50037   0.83302   0.00000  Uiso   1.00
C798   C     0.52356   0.49959   0.83373   0.00000  Uiso   1.00
C799   C     0.95716   0.54905   0.85148   0.00000  Uiso   1.00
C800   C     0.54285   0.45091   0.81525   0.00000  Uiso   1.00
C801   C     0.96739   0.40578   0.78721   0.00000  Uiso   1.00
C802   C     0.53262   0.59417   0.87958   0.00000  Uiso   1.00
Cu803  Cu    0.75501   0.50579   0.89479   0.00000  Uiso   1.00
Cu804  Cu    0.74500   0.49421   0.77187   0.00000  Uiso   1.00
N805   N     0.73745   0.48547   0.67951   0.00000  Uiso   1.00
N806   N     0.76256   0.51453   0.98716   0.00000  Uiso   1.00
O807   O     0.75326   0.42871   0.87326   0.00000  Uiso   1.00
O808   O     0.74675   0.57129   0.79341   0.00000  Uiso   1.00
O809   O     0.74480   0.41892   0.76945   0.00000  Uiso   1.00
O810   O     0.75520   0.58108   0.89721   0.00000  Uiso   1.00
O811   O     0.68936   0.50488   0.88524   0.00000  Uiso   1.00
O812   O     0.81065   0.49512   0.78143   0.00000  Uiso   1.00
O813   O     0.68090   0.49510   0.78143   0.00000  Uiso   1.00
O814   O     0.81910   0.50490   0.88523   0.00000  Uiso   1.00
Cl815  Cl    0.88068   0.60595   0.85059   0.00000  Uiso   1.00
Cl816  Cl    0.61935   0.39404   0.81602   0.00000  Uiso   1.00
Cl817  Cl    0.86796   0.39642   0.82419   0.00000  Uiso   1.00
Cl818  Cl    0.63202   0.60356   0.84255   0.00000  Uiso   1.00
Cl819  Cl    0.93375   0.35019   0.74095   0.00000  Uiso   1.00
Cl820  Cl    0.56626   0.64973   0.92590   0.00000  Uiso   1.00
C821   C     0.53057   0.35523   0.76097   0.00000  Uiso   1.00
N822   N     0.54304   0.64887   0.73783   0.00000  Uiso   1.00
C823   C     0.96944   0.64471   0.90584   0.00000  Uiso   1.00
N824   N     0.95697   0.35107   0.92902   0.00000  Uiso   1.00
C825   C     0.71408   0.64937   0.75561   0.00000  Uiso   1.00
N826   N     0.69195   0.62694   0.71171   0.00000  Uiso   1.00
C827   C     0.78592   0.35063   0.91106   0.00000  Uiso   1.00
N828   N     0.80804   0.37306   0.95496   0.00000  Uiso   1.00
C829   C     0.70630   0.44783   0.97597   0.00000  Uiso   1.00
N830   N     0.68008   0.41607   0.94606   0.00000  Uiso   1.00
C831   C     0.79370   0.55218   0.69070   0.00000  Uiso   1.00
N832   N     0.81991   0.58394   0.72060   0.00000  Uiso   1.00
C833   C     0.24788   0.73350   0.81804   0.00000  Uiso   1.00
C834   C     0.25211   0.93316   0.84863   0.00000  Uiso   1.00
C835   C     0.01405   0.73782   0.78975   0.00000  Uiso   1.00
C836   C     0.48595   0.92880   0.87703   0.00000  Uiso   1.00
C837   C     0.24190   0.67789   0.81076   0.00000  Uiso   1.00
C838   C     0.25810   0.98878   0.85591   0.00000  Uiso   1.00
C839   C     0.16472   0.83276   0.83364   0.00000  Uiso   1.00
C840   C     0.33528   0.83391   0.83302   0.00000  Uiso   1.00
C841   C     0.40972   0.88197   0.84517   0.00000  Uiso   1.00
C842   C     0.09029   0.78468   0.82151   0.00000  Uiso   1.00
C843   C     0.38344   0.83415   0.83229   0.00000  Uiso   1.00
C844   C     0.11656   0.83250   0.83438   0.00000  Uiso   1.00
C845   C     0.40238   0.78644   0.82052   0.00000  Uiso   1.00
C846   C     0.09761   0.88020   0.84620   0.00000  Uiso   1.00
C847   C     0.44852   0.78576   0.81358   0.00000  Uiso   1.00
C848   C     0.05148   0.88086   0.85317   0.00000  Uiso   1.00
C849   C     0.47645   0.83371   0.83302   0.00000  Uiso   1.00
C850   C     0.02356   0.83292   0.83373   0.00000  Uiso   1.00
C851   C     0.45716   0.88239   0.85148   0.00000  Uiso   1.00
C852   C     0.04285   0.78424   0.81525   0.00000  Uiso   1.00
C853   C     0.46739   0.73911   0.78721   0.00000  Uiso   1.00
C854   C     0.03262   0.92751   0.87958   0.00000  Uiso   1.00
Cu855  Cu    0.25501   0.83913   0.89479   0.00000  Uiso   1.00
Cu856  Cu    0.24500   0.82754   0.77187   0.00000  Uiso   1.00
N857   N     0.23745   0.81881   0.67951   0.00000  Uiso   1.00
N858   N     0.26256   0.84786   0.98716   0.00000  Uiso   1.00
O859   O     0.25326   0.76204   0.87326   0.00000  Uiso   1.00
O860   O     0.24675   0.90462   0.79341   0.00000  Uiso   1.00
O861   O     0.24480   0.75226   0.76945   0.00000  Uiso   1.00
O862   O     0.25520   0.91441   0.89721   0.00000  Uiso   1.00
O863   O     0.18936   0.83821   0.88524   0.00000  Uiso   1.00
O864   O     0.31065   0.82845   0.78143   0.00000  Uiso   1.00
O865   O     0.18090   0.82843   0.78143   0.00000  Uiso   1.00
O866   O     0.31910   0.83824   0.88523   0.00000  Uiso   1.00
Cl867  Cl    0.38068   0.93929   0.85059   0.00000  Uiso   1.00
Cl868  Cl    0.11935   0.72737   0.81602   0.00000  Uiso   1.00
Cl869  Cl    0.36796   0.72976   0.82419   0.00000  Uiso   1.00
Cl870  Cl    0.13202   0.93689   0.84255   0.00000  Uiso   1.00
Cl871  Cl    0.43375   0.68352   0.74095   0.00000  Uiso   1.00
Cl872  Cl    0.06626   0.98306   0.92590   0.00000  Uiso   1.00
C873   C     0.03057   0.68856   0.76097   0.00000  Uiso   1.00
N874   N     0.04304   0.98220   0.73783   0.00000  Uiso   1.00
C875   C     0.46944   0.97804   0.90584   0.00000  Uiso   1.00
N876   N     0.45697   0.68440   0.92902   0.00000  Uiso   1.00
C877   C     0.21408   0.98270   0.75561   0.00000  Uiso   1.00
N878   N     0.19195   0.96027   0.71171   0.00000  Uiso   1.00
C879   C     0.28592   0.68396   0.91106   0.00000  Uiso   1.00
N880   N     0.30804   0.70640   0.95496   0.00000  Uiso   1.00
C881   C     0.20630   0.78116   0.97597   0.00000  Uiso   1.00
N882   N     0.18008   0.74940   0.94606   0.00000  Uiso   1.00
C883   C     0.29370   0.88551   0.69070   0.00000  Uiso   1.00
N884   N     0.31991   0.91728   0.72060   0.00000  Uiso   1.00
C885   C     0.74788   0.73350   0.81804   0.00000  Uiso   1.00
C886   C     0.75211   0.93316   0.84863   0.00000  Uiso   1.00
C887   C     0.51405   0.73782   0.78975   0.00000  Uiso   1.00
C888   C     0.98595   0.92880   0.87703   0.00000  Uiso   1.00
C889   C     0.74190   0.67789   0.81076   0.00000  Uiso   1.00
C890   C     0.75810   0.98878   0.85591   0.00000  Uiso   1.00
C891   C     0.66472   0.83276   0.83364   0.00000  Uiso   1.00
C892   C     0.83528   0.83391   0.83302   0.00000  Uiso   1.00
C893   C     0.90972   0.88197   0.84517   0.00000  Uiso   1.00
C894   C     0.59029   0.78468   0.82151   0.00000  Uiso   1.00
C895   C     0.88344   0.83415   0.83229   0.00000  Uiso   1.00
C896   C     0.61656   0.83250   0.83438   0.00000  Uiso   1.00
C897   C     0.90238   0.78644   0.82052   0.00000  Uiso   1.00
C898   C     0.59761   0.88020   0.84620   0.00000  Uiso   1.00
C899   C     0.94852   0.78576   0.81358   0.00000  Uiso   1.00
C900   C     0.55148   0.88086   0.85317   0.00000  Uiso   1.00
C901   C     0.97645   0.83371   0.83302   0.00000  Uiso   1.00
C902   C     0.52356   0.83292   0.83373   0.00000  Uiso   1.00
C903   C     0.95716   0.88239   0.85148   0.00000  Uiso   1.00
C904   C     0.54285   0.78424   0.81525   0.00000  Uiso   1.00
C905   C     0.96739   0.73911   0.78721   0.00000  Uiso   1.00
C906   C     0.53262   0.92751   0.87958   0.00000  Uiso   1.00
Cu907  Cu    0.75501   0.83913   0.89479   0.00000  Uiso   1.00
Cu908  Cu    0.74500   0.82754   0.77187   0.00000  Uiso   1.00
N909   N     0.73745   0.81881   0.67951   0.00000  Uiso   1.00
N910   N     0.76256   0.84786   0.98716   0.00000  Uiso   1.00
O911   O     0.75326   0.76204   0.87326   0.00000  Uiso   1.00
O912   O     0.74675   0.90462   0.79341   0.00000  Uiso   1.00
O913   O     0.74480   0.75226   0.76945   0.00000  Uiso   1.00
O914   O     0.75520   0.91441   0.89721   0.00000  Uiso   1.00
O915   O     0.68936   0.83821   0.88524   0.00000  Uiso   1.00
O916   O     0.81065   0.82845   0.78143   0.00000  Uiso   1.00
O917   O     0.68090   0.82843   0.78143   0.00000  Uiso   1.00
O918   O     0.81910   0.83824   0.88523   0.00000  Uiso   1.00
Cl919  Cl    0.88068   0.93929   0.85059   0.00000  Uiso   1.00
Cl920  Cl    0.61935   0.72737   0.81602   0.00000  Uiso   1.00
Cl921  Cl    0.86796   0.72976   0.82419   0.00000  Uiso   1.00
Cl922  Cl    0.63202   0.93689   0.84255   0.00000  Uiso   1.00
Cl923  Cl    0.93375   0.68352   0.74095   0.00000  Uiso   1.00
Cl924  Cl    0.56626   0.98306   0.92590   0.00000  Uiso   1.00
C925   C     0.53057   0.68856   0.76097   0.00000  Uiso   1.00
N926   N     0.54304   0.98220   0.73783   0.00000  Uiso   1.00
C927   C     0.96944   0.97804   0.90584   0.00000  Uiso   1.00
N928   N     0.95697   0.68440   0.92902   0.00000  Uiso   1.00
C929   C     0.71408   0.98270   0.75561   0.00000  Uiso   1.00
N930   N     0.69195   0.96027   0.71171   0.00000  Uiso   1.00
C931   C     0.78592   0.68396   0.91106   0.00000  Uiso   1.00
N932   N     0.80804   0.70640   0.95496   0.00000  Uiso   1.00
C933   C     0.70630   0.78116   0.97597   0.00000  Uiso   1.00
N934   N     0.68008   0.74940   0.94606   0.00000  Uiso   1.00
C935   C     0.79370   0.88551   0.69070   0.00000  Uiso   1.00
N936   N     0.81991   0.91728   0.72060   0.00000  Uiso   1.00
loop_
_geom_bond_atom_site_label_1
_geom_bond_atom_site_label_2
_geom_bond_distance
_geom_bond_site_symmetry_2
_ccdc_geom_bond_type
C1     O29     1.296   .     A
C1     C5      1.430   .     S
C1     O27     1.291   .     A
C2     O28     1.291   .     A
C2     O30     1.296   .     A
C2     C6      1.430   .     S
C3     C20     1.423   .     A
C3     C41     1.451   .     S
C3     C73     1.401   1_455 S
C4     C43     1.451   .     S
C4     C19     1.423   .     A
C4     C74     1.401   .     S
C5     C214    1.357   1_545 S
C5     C253    1.457   1_545 S
C6     C109    1.357   .     S
C6     C151    1.457   .     S
C7     C12     1.447   .     S
C7     O31     1.297   .     A
C7     O33     1.295   .     A
C8     O34     1.295   .     A
C8     C11     1.447   .     S
C8     O32     1.297   .     A
C9     C11     1.396   .     A
C9     Cl35    1.776   .     S
C9     C19     1.419   .     A
C10    C12     1.396   .     A
C10    C20     1.419   .     A
C10    Cl36    1.776   .     S
C11    C13     1.392   .     A
C12    C14     1.392   .     A
C13    Cl37    1.776   .     S
C13    C15     1.408   .     A
C14    Cl38    1.776   .     S
C14    C16     1.408   .     A
C15    C21     1.414   .     A
C15    C17     1.425   .     A
C16    C18     1.425   .     A
C16    C22     1.414   .     A
C17    C19     1.430   .     A
C17    C70     1.415   .     S
C18    C20     1.430   .     A
C18    C69     1.415   1_455 S
C21    Cl39    1.783   .     S
C21    C55     1.401   .     S
C22    Cl40    1.783   .     S
C22    C56     1.401   1_455 S
Cu23   O27     1.970   .     S
Cu23   O34     1.956   .     S
Cu23   Cu24    2.705   .     S
Cu23   O30     1.966   .     S
Cu23   N26     2.032   .     S
Cu23   O31     1.963   .     S
Cu24   O32     1.963   .     S
Cu24   O28     1.970   .     S
Cu24   N25     2.032   .     S
Cu24   O29     1.966   .     S
Cu24   O33     1.956   .     S
N25    N650    1.296   1_554 S
N25    C673    1.385   1_554 S
N26    N337    1.296   .     S
N26    C363    1.385   .     S
C41    N250    1.158   1_545 S
N42    C145    1.158   .     S
C43    N148    1.158   .     S
N44    C251    1.158   1_545 S
C45    N46     1.158   .     T
C45    C109    1.457   .     S
C47    N48     1.158   .     T
C47    C214    1.457   1_545 S
C49    N50     1.157   .     T
C49    N337    1.385   .     S
C51    N52     1.157   .     T
C51    N650    1.385   1_554 S
C53    O81     1.296   .     A
C53    C57     1.430   .     S
C53    O79     1.291   .     A
C54    O80     1.291   .     A
C54    O82     1.296   .     A
C54    C58     1.430   .     S
C55    C72     1.423   .     A
C55    C93     1.451   .     S
C56    C95     1.451   .     S
C56    C71     1.423   .     A
C56    C22     1.401   1_655 S
C57    C266    1.357   1_545 S
C57    C305    1.457   1_545 S
C58    C161    1.357   .     S
C58    C203    1.457   .     S
C59    C64     1.447   .     S
C59    O83     1.297   .     A
C59    O85     1.295   .     A
C60    O86     1.295   .     A
C60    C63     1.447   .     S
C60    O84     1.297   .     A
C61    C63     1.396   .     A
C61    Cl87    1.776   .     S
C61    C71     1.419   .     A
C62    C64     1.396   .     A
C62    C72     1.419   .     A
C62    Cl88    1.776   .     S
C63    C65     1.392   .     A
C64    C66     1.392   .     A
C65    Cl89    1.776   .     S
C65    C67     1.408   .     A
C66    Cl90    1.776   .     S
C66    C68     1.408   .     A
C67    C73     1.414   .     A
C67    C69     1.425   .     A
C68    C70     1.425   .     A
C68    C74     1.414   .     A
C69    C71     1.430   .     A
C69    C18     1.415   1_655 S
C70    C72     1.430   .     A
C73    Cl91    1.783   .     S
C73    C3      1.401   1_655 S
C74    Cl92    1.783   .     S
Cu75   O79     1.970   .     S
Cu75   O86     1.956   .     S
Cu75   Cu76    2.705   .     S
Cu75   O82     1.966   .     S
Cu75   N78     2.032   .     S
Cu75   O83     1.963   .     S
Cu76   O84     1.963   .     S
Cu76   O80     1.970   .     S
Cu76   N77     2.032   .     S
Cu76   O81     1.966   .     S
Cu76   O85     1.956   .     S
N77    N702    1.296   1_554 S
N77    C725    1.385   1_554 S
N78    N389    1.296   .     S
N78    C415    1.385   .     S
C93    N302    1.158   1_545 S
N94    C197    1.158   .     S
C95    N200    1.158   .     S
N96    C303    1.158   1_545 S
C97    N98     1.158   .     T
C97    C161    1.457   .     S
C99    N100    1.158   .     T
C99    C266    1.457   1_545 S
C101   N102    1.157   .     T
C101   N389    1.385   .     S
C103   N104    1.157   .     T
C103   N702    1.385   1_554 S
C105   O133    1.296   .     A
C105   C109    1.430   .     S
C105   O131    1.291   .     A
C106   O132    1.291   .     A
C106   O134    1.296   .     A
C106   C110    1.430   .     S
C107   C124    1.423   .     A
C107   C145    1.451   .     S
C107   C177    1.401   1_455 S
C108   C147    1.451   .     S
C108   C123    1.423   .     A
C108   C178    1.401   .     S
C110   C213    1.357   .     S
C110   C255    1.457   .     S
C111   C116    1.447   .     S
C111   O135    1.297   .     A
C111   O137    1.295   .     A
C112   O138    1.295   .     A
C112   C115    1.447   .     S
C112   O136    1.297   .     A
C113   C115    1.396   .     A
C113   Cl139   1.776   .     S
C113   C123    1.419   .     A
C114   C116    1.396   .     A
C114   C124    1.419   .     A
C114   Cl140   1.776   .     S
C115   C117    1.392   .     A
C116   C118    1.392   .     A
C117   Cl141   1.776   .     S
C117   C119    1.408   .     A
C118   Cl142   1.776   .     S
C118   C120    1.408   .     A
C119   C125    1.414   .     A
C119   C121    1.425   .     A
C120   C122    1.425   .     A
C120   C126    1.414   .     A
C121   C123    1.430   .     A
C121   C174    1.415   .     S
C122   C124    1.430   .     A
C122   C173    1.415   1_455 S
C125   Cl143   1.783   .     S
C125   C159    1.401   .     S
C126   Cl144   1.783   .     S
C126   C160    1.401   1_455 S
Cu127  O131    1.970   .     S
Cu127  O138    1.956   .     S
Cu127  Cu128   2.705   .     S
Cu127  O134    1.966   .     S
Cu127  N130    2.032   .     S
Cu127  O135    1.963   .     S
Cu128  O136    1.963   .     S
Cu128  O132    1.970   .     S
Cu128  N129    2.032   .     S
Cu128  O133    1.966   .     S
Cu128  O137    1.956   .     S
N129   N754    1.296   1_554 S
N129   C777    1.385   1_554 S
N130   N441    1.296   .     S
N130   C467    1.385   .     S
N146   C249    1.158   .     S
C147   N252    1.158   .     S
C149   N150    1.158   .     T
C149   C213    1.457   .     S
C151   N152    1.158   .     T
C153   N154    1.157   .     T
C153   N441    1.385   .     S
C155   N156    1.157   .     T
C155   N754    1.385   1_554 S
C157   O185    1.296   .     A
C157   C161    1.430   .     S
C157   O183    1.291   .     A
C158   O184    1.291   .     A
C158   O186    1.296   .     A
C158   C162    1.430   .     S
C159   C176    1.423   .     A
C159   C197    1.451   .     S
C160   C199    1.451   .     S
C160   C175    1.423   .     A
C160   C126    1.401   1_655 S
C162   C265    1.357   .     S
C162   C307    1.457   .     S
C163   C168    1.447   .     S
C163   O187    1.297   .     A
C163   O189    1.295   .     A
C164   O190    1.295   .     A
C164   C167    1.447   .     S
C164   O188    1.297   .     A
C165   C167    1.396   .     A
C165   Cl191   1.776   .     S
C165   C175    1.419   .     A
C166   C168    1.396   .     A
C166   C176    1.419   .     A
C166   Cl192   1.776   .     S
C167   C169    1.392   .     A
C168   C170    1.392   .     A
C169   Cl193   1.776   .     S
C169   C171    1.408   .     A
C170   Cl194   1.776   .     S
C170   C172    1.408   .     A
C171   C177    1.414   .     A
C171   C173    1.425   .     A
C172   C174    1.425   .     A
C172   C178    1.414   .     A
C173   C175    1.430   .     A
C173   C122    1.415   1_655 S
C174   C176    1.430   .     A
C177   Cl195   1.783   .     S
C177   C107    1.401   1_655 S
C178   Cl196   1.783   .     S
Cu179  O183    1.970   .     S
Cu179  O190    1.956   .     S
Cu179  Cu180   2.705   .     S
Cu179  O186    1.966   .     S
Cu179  N182    2.032   .     S
Cu179  O187    1.963   .     S
Cu180  O188    1.963   .     S
Cu180  O184    1.970   .     S
Cu180  N181    2.032   .     S
Cu180  O185    1.966   .     S
Cu180  O189    1.956   .     S
N181   N806    1.296   1_554 S
N181   C829    1.385   1_554 S
N182   N493    1.296   .     S
N182   C519    1.385   .     S
N198   C301    1.158   .     S
C199   N304    1.158   .     S
C201   N202    1.158   .     T
C201   C265    1.457   .     S
C203   N204    1.158   .     T
C205   N206    1.157   .     T
C205   N493    1.385   .     S
C207   N208    1.157   .     T
C207   N806    1.385   1_554 S
C209   O237    1.296   .     A
C209   C213    1.430   .     S
C209   O235    1.291   .     A
C210   O236    1.291   .     A
C210   O238    1.296   .     A
C210   C214    1.430   .     S
C211   C228    1.423   .     A
C211   C249    1.451   .     S
C211   C281    1.401   1_455 S
C212   C251    1.451   .     S
C212   C227    1.423   .     A
C212   C282    1.401   .     S
C214   C5      1.357   1_565 S
C214   C47     1.457   1_565 S
C215   C220    1.447   .     S
C215   O239    1.297   .     A
C215   O241    1.295   .     A
C216   O242    1.295   .     A
C216   C219    1.447   .     S
C216   O240    1.297   .     A
C217   C219    1.396   .     A
C217   Cl243   1.776   .     S
C217   C227    1.419   .     A
C218   C220    1.396   .     A
C218   C228    1.419   .     A
C218   Cl244   1.776   .     S
C219   C221    1.392   .     A
C220   C222    1.392   .     A
C221   Cl245   1.776   .     S
C221   C223    1.408   .     A
C222   Cl246   1.776   .     S
C222   C224    1.408   .     A
C223   C229    1.414   .     A
C223   C225    1.425   .     A
C224   C226    1.425   .     A
C224   C230    1.414   .     A
C225   C227    1.430   .     A
C225   C278    1.415   .     S
C226   C228    1.430   .     A
C226   C277    1.415   1_455 S
C229   Cl247   1.783   .     S
C229   C263    1.401   .     S
C230   Cl248   1.783   .     S
C230   C264    1.401   1_455 S
Cu231  O235    1.970   .     S
Cu231  O242    1.956   .     S
Cu231  Cu232   2.705   .     S
Cu231  O238    1.966   .     S
Cu231  N234    2.032   .     S
Cu231  O239    1.963   .     S
Cu232  O240    1.963   .     S
Cu232  O236    1.970   .     S
Cu232  N233    2.032   .     S
Cu232  O237    1.966   .     S
Cu232  O241    1.956   .     S
N233   N858    1.296   1_554 S
N233   C881    1.385   1_554 S
N234   N545    1.296   .     S
N234   C571    1.385   .     S
N250   C41     1.158   1_565 S
C251   N44     1.158   1_565 S
C253   N254    1.158   .     T
C253   C5      1.457   1_565 S
C255   N256    1.158   .     T
C257   N258    1.157   .     T
C257   N545    1.385   .     S
C259   N260    1.157   .     T
C259   N858    1.385   1_554 S
C261   O289    1.296   .     A
C261   C265    1.430   .     S
C261   O287    1.291   .     A
C262   O288    1.291   .     A
C262   O290    1.296   .     A
C262   C266    1.430   .     S
C263   C280    1.423   .     A
C263   C301    1.451   .     S
C264   C303    1.451   .     S
C264   C279    1.423   .     A
C264   C230    1.401   1_655 S
C266   C57     1.357   1_565 S
C266   C99     1.457   1_565 S
C267   C272    1.447   .     S
C267   O291    1.297   .     A
C267   O293    1.295   .     A
C268   O294    1.295   .     A
C268   C271    1.447   .     S
C268   O292    1.297   .     A
C269   C271    1.396   .     A
C269   Cl295   1.776   .     S
C269   C279    1.419   .     A
C270   C272    1.396   .     A
C270   C280    1.419   .     A
C270   Cl296   1.776   .     S
C271   C273    1.392   .     A
C272   C274    1.392   .     A
C273   Cl297   1.776   .     S
C273   C275    1.408   .     A
C274   Cl298   1.776   .     S
C274   C276    1.408   .     A
C275   C281    1.414   .     A
C275   C277    1.425   .     A
C276   C278    1.425   .     A
C276   C282    1.414   .     A
C277   C279    1.430   .     A
C277   C226    1.415   1_655 S
C278   C280    1.430   .     A
C281   Cl299   1.783   .     S
C281   C211    1.401   1_655 S
C282   Cl300   1.783   .     S
Cu283  O287    1.970   .     S
Cu283  O294    1.956   .     S
Cu283  Cu284   2.705   .     S
Cu283  O290    1.966   .     S
Cu283  N286    2.032   .     S
Cu283  O291    1.963   .     S
Cu284  O292    1.963   .     S
Cu284  O288    1.970   .     S
Cu284  N285    2.032   .     S
Cu284  O289    1.966   .     S
Cu284  O293    1.956   .     S
N285   N910    1.296   1_554 S
N285   C933    1.385   1_554 S
N286   N597    1.296   .     S
N286   C623    1.385   .     S
N302   C93     1.158   1_565 S
C303   N96     1.158   1_565 S
C305   N306    1.158   .     T
C305   C57     1.457   1_565 S
C307   N308    1.158   .     T
C309   N310    1.157   .     T
C309   N597    1.385   .     S
C311   N312    1.157   .     T
C311   N910    1.385   1_554 S
C313   O341    1.296   .     A
C313   C317    1.430   .     S
C313   O339    1.291   .     A
C314   O340    1.291   .     A
C314   O342    1.296   .     A
C314   C318    1.430   .     S
C315   C332    1.423   .     A
C315   C353    1.451   .     S
C315   C385    1.401   1_455 S
C316   C355    1.451   .     S
C316   C331    1.423   .     A
C316   C386    1.401   .     S
C317   C526    1.357   1_545 S
C317   C565    1.457   1_545 S
C318   C421    1.357   .     S
C318   C463    1.457   .     S
C319   C324    1.447   .     S
C319   O343    1.297   .     A
C319   O345    1.295   .     A
C320   O346    1.295   .     A
C320   C323    1.447   .     S
C320   O344    1.297   .     A
C321   C323    1.396   .     A
C321   Cl347   1.776   .     S
C321   C331    1.419   .     A
C322   C324    1.396   .     A
C322   C332    1.419   .     A
C322   Cl348   1.776   .     S
C323   C325    1.392   .     A
C324   C326    1.392   .     A
C325   Cl349   1.776   .     S
C325   C327    1.408   .     A
C326   Cl350   1.776   .     S
C326   C328    1.408   .     A
C327   C333    1.414   .     A
C327   C329    1.425   .     A
C328   C330    1.425   .     A
C328   C334    1.414   .     A
C329   C331    1.430   .     A
C329   C382    1.415   .     S
C330   C332    1.430   .     A
C330   C381    1.415   1_455 S
C333   Cl351   1.783   .     S
C333   C367    1.401   .     S
C334   Cl352   1.783   .     S
C334   C368    1.401   1_455 S
Cu335  O339    1.970   .     S
Cu335  O346    1.956   .     S
Cu335  Cu336   2.705   .     S
Cu335  O342    1.966   .     S
Cu335  N338    2.032   .     S
Cu335  O343    1.963   .     S
Cu336  O344    1.963   .     S
Cu336  O340    1.970   .     S
Cu336  N337    2.032   .     S
Cu336  O341    1.966   .     S
Cu336  O345    1.956   .     S
N338   N649    1.296   .     S
N338   C675    1.385   .     S
C353   N562    1.158   1_545 S
N354   C457    1.158   .     S
C355   N460    1.158   .     S
N356   C563    1.158   1_545 S
C357   N358    1.158   .     T
C357   C421    1.457   .     S
C359   N360    1.158   .     T
C359   C526    1.457   1_545 S
C361   N362    1.157   .     T
C361   N649    1.385   .     S
C363   N364    1.157   .     T
C365   O393    1.296   .     A
C365   C369    1.430   .     S
C365   O391    1.291   .     A
C366   O392    1.291   .     A
C366   O394    1.296   .     A
C366   C370    1.430   .     S
C367   C384    1.423   .     A
C367   C405    1.451   .     S
C368   C407    1.451   .     S
C368   C383    1.423   .     A
C368   C334    1.401   1_655 S
C369   C578    1.357   1_545 S
C369   C617    1.457   1_545 S
C370   C473    1.357   .     S
C370   C515    1.457   .     S
C371   C376    1.447   .     S
C371   O395    1.297   .     A
C371   O397    1.295   .     A
C372   O398    1.295   .     A
C372   C375    1.447   .     S
C372   O396    1.297   .     A
C373   C375    1.396   .     A
C373   Cl399   1.776   .     S
C373   C383    1.419   .     A
C374   C376    1.396   .     A
C374   C384    1.419   .     A
C374   Cl400   1.776   .     S
C375   C377    1.392   .     A
C376   C378    1.392   .     A
C377   Cl401   1.776   .     S
C377   C379    1.408   .     A
C378   Cl402   1.776   .     S
C378   C380    1.408   .     A
C379   C385    1.414   .     A
C379   C381    1.425   .     A
C380   C382    1.425   .     A
C380   C386    1.414   .     A
C381   C383    1.430   .     A
C381   C330    1.415   1_655 S
C382   C384    1.430   .     A
C385   Cl403   1.783   .     S
C385   C315    1.401   1_655 S
C386   Cl404   1.783   .     S
Cu387  O391    1.970   .     S
Cu387  O398    1.956   .     S
Cu387  Cu388   2.705   .     S
Cu387  O394    1.966   .     S
Cu387  N390    2.032   .     S
Cu387  O395    1.963   .     S
Cu388  O396    1.963   .     S
Cu388  O392    1.970   .     S
Cu388  N389    2.032   .     S
Cu388  O393    1.966   .     S
Cu388  O397    1.956   .     S
N390   N701    1.296   .     S
N390   C727    1.385   .     S
C405   N614    1.158   1_545 S
N406   C509    1.158   .     S
C407   N512    1.158   .     S
N408   C615    1.158   1_545 S
C409   N410    1.158   .     T
C409   C473    1.457   .     S
C411   N412    1.158   .     T
C411   C578    1.457   1_545 S
C413   N414    1.157   .     T
C413   N701    1.385   .     S
C415   N416    1.157   .     T
C417   O445    1.296   .     A
C417   C421    1.430   .     S
C417   O443    1.291   .     A
C418   O444    1.291   .     A
C418   O446    1.296   .     A
C418   C422    1.430   .     S
C419   C436    1.423   .     A
C419   C457    1.451   .     S
C419   C489    1.401   1_455 S
C420   C459    1.451   .     S
C420   C435    1.423   .     A
C420   C490    1.401   .     S
C422   C525    1.357   .     S
C422   C567    1.457   .     S
C423   C428    1.447   .     S
C423   O447    1.297   .     A
C423   O449    1.295   .     A
C424   O450    1.295   .     A
C424   C427    1.447   .     S
C424   O448    1.297   .     A
C425   C427    1.396   .     A
C425   Cl451   1.776   .     S
C425   C435    1.419   .     A
C426   C428    1.396   .     A
C426   C436    1.419   .     A
C426   Cl452   1.776   .     S
C427   C429    1.392   .     A
C428   C430    1.392   .     A
C429   Cl453   1.776   .     S
C429   C431    1.408   .     A
C430   Cl454   1.776   .     S
C430   C432    1.408   .     A
C431   C437    1.414   .     A
C431   C433    1.425   .     A
C432   C434    1.425   .     A
C432   C438    1.414   .     A
C433   C435    1.430   .     A
C433   C486    1.415   .     S
C434   C436    1.430   .     A
C434   C485    1.415   1_455 S
C437   Cl455   1.783   .     S
C437   C471    1.401   .     S
C438   Cl456   1.783   .     S
C438   C472    1.401   1_455 S
Cu439  O443    1.970   .     S
Cu439  O450    1.956   .     S
Cu439  Cu440   2.705   .     S
Cu439  O446    1.966   .     S
Cu439  N442    2.032   .     S
Cu439  O447    1.963   .     S
Cu440  O448    1.963   .     S
Cu440  O444    1.970   .     S
Cu440  N441    2.032   .     S
Cu440  O445    1.966   .     S
Cu440  O449    1.956   .     S
N442   N753    1.296   .     S
N442   C779    1.385   .     S
N458   C561    1.158   .     S
C459   N564    1.158   .     S
C461   N462    1.158   .     T
C461   C525    1.457   .     S
C463   N464    1.158   .     T
C465   N466    1.157   .     T
C465   N753    1.385   .     S
C467   N468    1.157   .     T
C469   O497    1.296   .     A
C469   C473    1.430   .     S
C469   O495    1.291   .     A
C470   O496    1.291   .     A
C470   O498    1.296   .     A
C470   C474    1.430   .     S
C471   C488    1.423   .     A
C471   C509    1.451   .     S
C472   C511    1.451   .     S
C472   C487    1.423   .     A
C472   C438    1.401   1_655 S
C474   C577    1.357   .     S
C474   C619    1.457   .     S
C475   C480    1.447   .     S
C475   O499    1.297   .     A
C475   O501    1.295   .     A
C476   O502    1.295   .     A
C476   C479    1.447   .     S
C476   O500    1.297   .     A
C477   C479    1.396   .     A
C477   Cl503   1.776   .     S
C477   C487    1.419   .     A
C478   C480    1.396   .     A
C478   C488    1.419   .     A
C478   Cl504   1.776   .     S
C479   C481    1.392   .     A
C480   C482    1.392   .     A
C481   Cl505   1.776   .     S
C481   C483    1.408   .     A
C482   Cl506   1.776   .     S
C482   C484    1.408   .     A
C483   C489    1.414   .     A
C483   C485    1.425   .     A
C484   C486    1.425   .     A
C484   C490    1.414   .     A
C485   C487    1.430   .     A
C485   C434    1.415   1_655 S
C486   C488    1.430   .     A
C489   Cl507   1.783   .     S
C489   C419    1.401   1_655 S
C490   Cl508   1.783   .     S
Cu491  O495    1.970   .     S
Cu491  O502    1.956   .     S
Cu491  Cu492   2.705   .     S
Cu491  O498    1.966   .     S
Cu491  N494    2.032   .     S
Cu491  O499    1.963   .     S
Cu492  O500    1.963   .     S
Cu492  O496    1.970   .     S
Cu492  N493    2.032   .     S
Cu492  O497    1.966   .     S
Cu492  O501    1.956   .     S
N494   N805    1.296   .     S
N494   C831    1.385   .     S
N510   C613    1.158   .     S
C511   N616    1.158   .     S
C513   N514    1.158   .     T
C513   C577    1.457   .     S
C515   N516    1.158   .     T
C517   N518    1.157   .     T
C517   N805    1.385   .     S
C519   N520    1.157   .     T
C521   O549    1.296   .     A
C521   C525    1.430   .     S
C521   O547    1.291   .     A
C522   O548    1.291   .     A
C522   O550    1.296   .     A
C522   C526    1.430   .     S
C523   C540    1.423   .     A
C523   C561    1.451   .     S
C523   C593    1.401   1_455 S
C524   C563    1.451   .     S
C524   C539    1.423   .     A
C524   C594    1.401   .     S
C526   C317    1.357   1_565 S
C526   C359    1.457   1_565 S
C527   C532    1.447   .     S
C527   O551    1.297   .     A
C527   O553    1.295   .     A
C528   O554    1.295   .     A
C528   C531    1.447   .     S
C528   O552    1.297   .     A
C529   C531    1.396   .     A
C529   Cl555   1.776   .     S
C529   C539    1.419   .     A
C530   C532    1.396   .     A
C530   C540    1.419   .     A
C530   Cl556   1.776   .     S
C531   C533    1.392   .     A
C532   C534    1.392   .     A
C533   Cl557   1.776   .     S
C533   C535    1.408   .     A
C534   Cl558   1.776   .     S
C534   C536    1.408   .     A
C535   C541    1.414   .     A
C535   C537    1.425   .     A
C536   C538    1.425   .     A
C536   C542    1.414   .     A
C537   C539    1.430   .     A
C537   C590    1.415   .     S
C538   C540    1.430   .     A
C538   C589    1.415   1_455 S
C541   Cl559   1.783   .     S
C541   C575    1.401   .     S
C542   Cl560   1.783   .     S
C542   C576    1.401   1_455 S
Cu543  O547    1.970   .     S
Cu543  O554    1.956   .     S
Cu543  Cu544   2.705   .     S
Cu543  O550    1.966   .     S
Cu543  N546    2.032   .     S
Cu543  O551    1.963   .     S
Cu544  O552    1.963   .     S
Cu544  O548    1.970   .     S
Cu544  N545    2.032   .     S
Cu544  O549    1.966   .     S
Cu544  O553    1.956   .     S
N546   N857    1.296   .     S
N546   C883    1.385   .     S
N562   C353    1.158   1_565 S
C563   N356    1.158   1_565 S
C565   N566    1.158   .     T
C565   C317    1.457   1_565 S
C567   N568    1.158   .     T
C569   N570    1.157   .     T
C569   N857    1.385   .     S
C571   N572    1.157   .     T
C573   O601    1.296   .     A
C573   C577    1.430   .     S
C573   O599    1.291   .     A
C574   O600    1.291   .     A
C574   O602    1.296   .     A
C574   C578    1.430   .     S
C575   C592    1.423   .     A
C575   C613    1.451   .     S
C576   C615    1.451   .     S
C576   C591    1.423   .     A
C576   C542    1.401   1_655 S
C578   C369    1.357   1_565 S
C578   C411    1.457   1_565 S
C579   C584    1.447   .     S
C579   O603    1.297   .     A
C579   O605    1.295   .     A
C580   O606    1.295   .     A
C580   C583    1.447   .     S
C580   O604    1.297   .     A
C581   C583    1.396   .     A
C581   Cl607   1.776   .     S
C581   C591    1.419   .     A
C582   C584    1.396   .     A
C582   C592    1.419   .     A
C582   Cl608   1.776   .     S
C583   C585    1.392   .     A
C584   C586    1.392   .     A
C585   Cl609   1.776   .     S
C585   C587    1.408   .     A
C586   Cl610   1.776   .     S
C586   C588    1.408   .     A
C587   C593    1.414   .     A
C587   C589    1.425   .     A
C588   C590    1.425   .     A
C588   C594    1.414   .     A
C589   C591    1.430   .     A
C589   C538    1.415   1_655 S
C590   C592    1.430   .     A
C593   Cl611   1.783   .     S
C593   C523    1.401   1_655 S
C594   Cl612   1.783   .     S
Cu595  O599    1.970   .     S
Cu595  O606    1.956   .     S
Cu595  Cu596   2.705   .     S
Cu595  O602    1.966   .     S
Cu595  N598    2.032   .     S
Cu595  O603    1.963   .     S
Cu596  O604    1.963   .     S
Cu596  O600    1.970   .     S
Cu596  N597    2.032   .     S
Cu596  O601    1.966   .     S
Cu596  O605    1.956   .     S
N598   N909    1.296   .     S
N598   C935    1.385   .     S
N614   C405    1.158   1_565 S
C615   N408    1.158   1_565 S
C617   N618    1.158   .     T
C617   C369    1.457   1_565 S
C619   N620    1.158   .     T
C621   N622    1.157   .     T
C621   N909    1.385   .     S
C623   N624    1.157   .     T
C625   O653    1.296   .     A
C625   C629    1.430   .     S
C625   O651    1.291   .     A
C626   O652    1.291   .     A
C626   O654    1.296   .     A
C626   C630    1.430   .     S
C627   C644    1.423   .     A
C627   C665    1.451   .     S
C627   C697    1.401   1_455 S
C628   C667    1.451   .     S
C628   C643    1.423   .     A
C628   C698    1.401   .     S
C629   C838    1.357   1_545 S
C629   C877    1.457   1_545 S
C630   C733    1.357   .     S
C630   C775    1.457   .     S
C631   C636    1.447   .     S
C631   O655    1.297   .     A
C631   O657    1.295   .     A
C632   O658    1.295   .     A
C632   C635    1.447   .     S
C632   O656    1.297   .     A
C633   C635    1.396   .     A
C633   Cl659   1.776   .     S
C633   C643    1.419   .     A
C634   C636    1.396   .     A
C634   C644    1.419   .     A
C634   Cl660   1.776   .     S
C635   C637    1.392   .     A
C636   C638    1.392   .     A
C637   Cl661   1.776   .     S
C637   C639    1.408   .     A
C638   Cl662   1.776   .     S
C638   C640    1.408   .     A
C639   C645    1.414   .     A
C639   C641    1.425   .     A
C640   C642    1.425   .     A
C640   C646    1.414   .     A
C641   C643    1.430   .     A
C641   C694    1.415   .     S
C642   C644    1.430   .     A
C642   C693    1.415   1_455 S
C645   Cl663   1.783   .     S
C645   C679    1.401   .     S
C646   Cl664   1.783   .     S
C646   C680    1.401   1_455 S
Cu647  O651    1.970   .     S
Cu647  O658    1.956   .     S
Cu647  Cu648   2.705   .     S
Cu647  O654    1.966   .     S
Cu647  N650    2.032   .     S
Cu647  O655    1.963   .     S
Cu648  O656    1.963   .     S
Cu648  O652    1.970   .     S
Cu648  N649    2.032   .     S
Cu648  O653    1.966   .     S
Cu648  O657    1.956   .     S
N650   N25     1.296   1_556 S
N650   C51     1.385   1_556 S
C665   N874    1.158   1_545 S
N666   C769    1.158   .     S
C667   N772    1.158   .     S
N668   C875    1.158   1_545 S
C669   N670    1.158   .     T
C669   C733    1.457   .     S
C671   N672    1.158   .     T
C671   C838    1.457   1_545 S
C673   N674    1.157   .     T
C673   N25     1.385   1_556 S
C675   N676    1.157   .     T
C677   O705    1.296   .     A
C677   C681    1.430   .     S
C677   O703    1.291   .     A
C678   O704    1.291   .     A
C678   O706    1.296   .     A
C678   C682    1.430   .     S
C679   C696    1.423   .     A
C679   C717    1.451   .     S
C680   C719    1.451   .     S
C680   C695    1.423   .     A
C680   C646    1.401   1_655 S
C681   C890    1.357   1_545 S
C681   C929    1.457   1_545 S
C682   C785    1.357   .     S
C682   C827    1.457   .     S
C683   C688    1.447   .     S
C683   O707    1.297   .     A
C683   O709    1.295   .     A
C684   O710    1.295   .     A
C684   C687    1.447   .     S
C684   O708    1.297   .     A
C685   C687    1.396   .     A
C685   Cl711   1.776   .     S
C685   C695    1.419   .     A
C686   C688    1.396   .     A
C686   C696    1.419   .     A
C686   Cl712   1.776   .     S
C687   C689    1.392   .     A
C688   C690    1.392   .     A
C689   Cl713   1.776   .     S
C689   C691    1.408   .     A
C690   Cl714   1.776   .     S
C690   C692    1.408   .     A
C691   C697    1.414   .     A
C691   C693    1.425   .     A
C692   C694    1.425   .     A
C692   C698    1.414   .     A
C693   C695    1.430   .     A
C693   C642    1.415   1_655 S
C694   C696    1.430   .     A
C697   Cl715   1.783   .     S
C697   C627    1.401   1_655 S
C698   Cl716   1.783   .     S
Cu699  O703    1.970   .     S
Cu699  O710    1.956   .     S
Cu699  Cu700   2.705   .     S
Cu699  O706    1.966   .     S
Cu699  N702    2.032   .     S
Cu699  O707    1.963   .     S
Cu700  O708    1.963   .     S
Cu700  O704    1.970   .     S
Cu700  N701    2.032   .     S
Cu700  O705    1.966   .     S
Cu700  O709    1.956   .     S
N702   N77     1.296   1_556 S
N702   C103    1.385   1_556 S
C717   N926    1.158   1_545 S
N718   C821    1.158   .     S
C719   N824    1.158   .     S
N720   C927    1.158   1_545 S
C721   N722    1.158   .     T
C721   C785    1.457   .     S
C723   N724    1.158   .     T
C723   C890    1.457   1_545 S
C725   N726    1.157   .     T
C725   N77     1.385   1_556 S
C727   N728    1.157   .     T
C729   O757    1.296   .     A
C729   C733    1.430   .     S
C729   O755    1.291   .     A
C730   O756    1.291   .     A
C730   O758    1.296   .     A
C730   C734    1.430   .     S
C731   C748    1.423   .     A
C731   C769    1.451   .     S
C731   C801    1.401   1_455 S
C732   C771    1.451   .     S
C732   C747    1.423   .     A
C732   C802    1.401   .     S
C734   C837    1.357   .     S
C734   C879    1.457   .     S
C735   C740    1.447   .     S
C735   O759    1.297   .     A
C735   O761    1.295   .     A
C736   O762    1.295   .     A
C736   C739    1.447   .     S
C736   O760    1.297   .     A
C737   C739    1.396   .     A
C737   Cl763   1.776   .     S
C737   C747    1.419   .     A
C738   C740    1.396   .     A
C738   C748    1.419   .     A
C738   Cl764   1.776   .     S
C739   C741    1.392   .     A
C740   C742    1.392   .     A
C741   Cl765   1.776   .     S
C741   C743    1.408   .     A
C742   Cl766   1.776   .     S
C742   C744    1.408   .     A
C743   C749    1.414   .     A
C743   C745    1.425   .     A
C744   C746    1.425   .     A
C744   C750    1.414   .     A
C745   C747    1.430   .     A
C745   C798    1.415   .     S
C746   C748    1.430   .     A
C746   C797    1.415   1_455 S
C749   Cl767   1.783   .     S
C749   C783    1.401   .     S
C750   Cl768   1.783   .     S
C750   C784    1.401   1_455 S
Cu751  O755    1.970   .     S
Cu751  O762    1.956   .     S
Cu751  Cu752   2.705   .     S
Cu751  O758    1.966   .     S
Cu751  N754    2.032   .     S
Cu751  O759    1.963   .     S
Cu752  O760    1.963   .     S
Cu752  O756    1.970   .     S
Cu752  N753    2.032   .     S
Cu752  O757    1.966   .     S
Cu752  O761    1.956   .     S
N754   N129    1.296   1_556 S
N754   C155    1.385   1_556 S
N770   C873    1.158   .     S
C771   N876    1.158   .     S
C773   N774    1.158   .     T
C773   C837    1.457   .     S
C775   N776    1.158   .     T
C777   N778    1.157   .     T
C777   N129    1.385   1_556 S
C779   N780    1.157   .     T
C781   O809    1.296   .     A
C781   C785    1.430   .     S
C781   O807    1.291   .     A
C782   O808    1.291   .     A
C782   O810    1.296   .     A
C782   C786    1.430   .     S
C783   C800    1.423   .     A
C783   C821    1.451   .     S
C784   C823    1.451   .     S
C784   C799    1.423   .     A
C784   C750    1.401   1_655 S
C786   C889    1.357   .     S
C786   C931    1.457   .     S
C787   C792    1.447   .     S
C787   O811    1.297   .     A
C787   O813    1.295   .     A
C788   O814    1.295   .     A
C788   C791    1.447   .     S
C788   O812    1.297   .     A
C789   C791    1.396   .     A
C789   Cl815   1.776   .     S
C789   C799    1.419   .     A
C790   C792    1.396   .     A
C790   C800    1.419   .     A
C790   Cl816   1.776   .     S
C791   C793    1.392   .     A
C792   C794    1.392   .     A
C793   Cl817   1.776   .     S
C793   C795    1.408   .     A
C794   Cl818   1.776   .     S
C794   C796    1.408   .     A
C795   C801    1.414   .     A
C795   C797    1.425   .     A
C796   C798    1.425   .     A
C796   C802    1.414   .     A
C797   C799    1.430   .     A
C797   C746    1.415   1_655 S
C798   C800    1.430   .     A
C801   Cl819   1.783   .     S
C801   C731    1.401   1_655 S
C802   Cl820   1.783   .     S
Cu803  O807    1.970   .     S
Cu803  O814    1.956   .     S
Cu803  Cu804   2.705   .     S
Cu803  O810    1.966   .     S
Cu803  N806    2.032   .     S
Cu803  O811    1.963   .     S
Cu804  O812    1.963   .     S
Cu804  O808    1.970   .     S
Cu804  N805    2.032   .     S
Cu804  O809    1.966   .     S
Cu804  O813    1.956   .     S
N806   N181    1.296   1_556 S
N806   C207    1.385   1_556 S
N822   C925    1.158   .     S
C823   N928    1.158   .     S
C825   N826    1.158   .     T
C825   C889    1.457   .     S
C827   N828    1.158   .     T
C829   N830    1.157   .     T
C829   N181    1.385   1_556 S
C831   N832    1.157   .     T
C833   O861    1.296   .     A
C833   C837    1.430   .     S
C833   O859    1.291   .     A
C834   O860    1.291   .     A
C834   O862    1.296   .     A
C834   C838    1.430   .     S
C835   C852    1.423   .     A
C835   C873    1.451   .     S
C835   C905    1.401   1_455 S
C836   C875    1.451   .     S
C836   C851    1.423   .     A
C836   C906    1.401   .     S
C838   C629    1.357   1_565 S
C838   C671    1.457   1_565 S
C839   C844    1.447   .     S
C839   O863    1.297   .     A
C839   O865    1.295   .     A
C840   O866    1.295   .     A
C840   C843    1.447   .     S
C840   O864    1.297   .     A
C841   C843    1.396   .     A
C841   Cl867   1.776   .     S
C841   C851    1.419   .     A
C842   C844    1.396   .     A
C842   C852    1.419   .     A
C842   Cl868   1.776   .     S
C843   C845    1.392   .     A
C844   C846    1.392   .     A
C845   Cl869   1.776   .     S
C845   C847    1.408   .     A
C846   Cl870   1.776   .     S
C846   C848    1.408   .     A
C847   C853    1.414   .     A
C847   C849    1.425   .     A
C848   C850    1.425   .     A
C848   C854    1.414   .     A
C849   C851    1.430   .     A
C849   C902    1.415   .     S
C850   C852    1.430   .     A
C850   C901    1.415   1_455 S
C853   Cl871   1.783   .     S
C853   C887    1.401   .     S
C854   Cl872   1.783   .     S
C854   C888    1.401   1_455 S
Cu855  O859    1.970   .     S
Cu855  O866    1.956   .     S
Cu855  Cu856   2.705   .     S
Cu855  O862    1.966   .     S
Cu855  N858    2.032   .     S
Cu855  O863    1.963   .     S
Cu856  O864    1.963   .     S
Cu856  O860    1.970   .     S
Cu856  N857    2.032   .     S
Cu856  O861    1.966   .     S
Cu856  O865    1.956   .     S
N858   N233    1.296   1_556 S
N858   C259    1.385   1_556 S
N874   C665    1.158   1_565 S
C875   N668    1.158   1_565 S
C877   N878    1.158   .     T
C877   C629    1.457   1_565 S
C879   N880    1.158   .     T
C881   N882    1.157   .     T
C881   N233    1.385   1_556 S
C883   N884    1.157   .     T
C885   O913    1.296   .     A
C885   C889    1.430   .     S
C885   O911    1.291   .     A
C886   O912    1.291   .     A
C886   O914    1.296   .     A
C886   C890    1.430   .     S
C887   C904    1.423   .     A
C887   C925    1.451   .     S
C888   C927    1.451   .     S
C888   C903    1.423   .     A
C888   C854    1.401   1_655 S
C890   C681    1.357   1_565 S
C890   C723    1.457   1_565 S
C891   C896    1.447   .     S
C891   O915    1.297   .     A
C891   O917    1.295   .     A
C892   O918    1.295   .     A
C892   C895    1.447   .     S
C892   O916    1.297   .     A
C893   C895    1.396   .     A
C893   Cl919   1.776   .     S
C893   C903    1.419   .     A
C894   C896    1.396   .     A
C894   C904    1.419   .     A
C894   Cl920   1.776   .     S
C895   C897    1.392   .     A
C896   C898    1.392   .     A
C897   Cl921   1.776   .     S
C897   C899    1.408   .     A
C898   Cl922   1.776   .     S
C898   C900    1.408   .     A
C899   C905    1.414   .     A
C899   C901    1.425   .     A
C900   C902    1.425   .     A
C900   C906    1.414   .     A
C901   C903    1.430   .     A
C901   C850    1.415   1_655 S
C902   C904    1.430   .     A
C905   Cl923   1.783   .     S
C905   C835    1.401   1_655 S
C906   Cl924   1.783   .     S
Cu907  O911    1.970   .     S
Cu907  O918    1.956   .     S
Cu907  Cu908   2.705   .     S
Cu907  O914    1.966   .     S
Cu907  N910    2.032   .     S
Cu907  O915    1.963   .     S
Cu908  O916    1.963   .     S
Cu908  O912    1.970   .     S
Cu908  N909    2.032   .     S
Cu908  O913    1.966   .     S
Cu908  O917    1.956   .     S
N910   N285    1.296   1_556 S
N910   C311    1.385   1_556 S
N926   C717    1.158   1_565 S
C927   N720    1.158   1_565 S
C929   N930    1.158   .     T
C929   C681    1.457   1_565 S
C931   N932    1.158   .     T
C933   N934    1.157   .     T
C933   N285    1.385   1_556 S
C935   N936    1.157   .     T
