data_str_m2_o1_o18_pcu_sym.125
_audit_creation_date              2020-01-03
_audit_creation_method            'Materials Studio'
_symmetry_space_group_name_H-M    'P1'
_symmetry_Int_Tables_number       1
_symmetry_cell_setting            triclinic
loop_
_symmetry_equiv_pos_as_xyz
  x,y,z
_cell_length_a                    29.0377
_cell_length_b                    32.5703
_cell_length_c                    31.4987
_cell_angle_alpha                 90.1311
_cell_angle_beta                  71.4293
_cell_angle_gamma                 90.7999
loop_
_atom_site_label
_atom_site_type_symbol
_atom_site_fract_x
_atom_site_fract_y
_atom_site_fract_z
_atom_site_U_iso_or_equiv
_atom_site_adp_type
_atom_site_occupancy
O1     O     0.03958   0.10655   0.25000   0.00000  Uiso   1.00
O2     O     0.29375   0.22678   0.25000   0.00000  Uiso   1.00
O3     O     0.29372   0.10654   0.25000   0.00000  Uiso   1.00
O4     O     0.03961   0.22679   0.24999   0.00000  Uiso   1.00
C5     C     0.33287   0.08754   0.25006   0.00000  Uiso   1.00
C6     C     0.00045   0.24579   0.24997   0.00000  Uiso   1.00
O7     O     0.01852   0.16668   0.31491   0.00000  Uiso   1.00
O8     O     0.31481   0.16666   0.18508   0.00000  Uiso   1.00
O9     O     0.27267   0.16667   0.31492   0.00000  Uiso   1.00
O10    O     0.06067   0.16667   0.18508   0.00000  Uiso   1.00
C11    C     0.30498   0.16747   0.33572   0.00000  Uiso   1.00
C12    C     0.02838   0.16749   0.16429   0.00000  Uiso   1.00
Cu13   Cu    0.04689   0.16667   0.25000   0.00000  Uiso   1.00
Cu14   Cu    0.28645   0.16666   0.25000   0.00000  Uiso   1.00
C15    C     0.28731   0.17145   0.38442   0.00000  Uiso   1.00
C16    C     0.04619   0.17148   0.11558   0.00000  Uiso   1.00
C17    C     0.29824   0.16281   0.45622   0.00000  Uiso   1.00
C18    C     0.03505   0.16271   0.04381   0.00000  Uiso   1.00
C19    C     0.31415   0.15642   0.41029   0.00000  Uiso   1.00
C20    C     0.01894   0.15631   0.08977   0.00000  Uiso   1.00
C21    C     0.24228   0.18946   0.40536   0.00000  Uiso   1.00
C22    C     0.09175   0.18961   0.09458   0.00000  Uiso   1.00
C23    C     0.22458   0.19384   0.45235   0.00000  Uiso   1.00
C24    C     0.10964   0.19390   0.04757   0.00000  Uiso   1.00
C25    C     0.25596   0.18473   0.47709   0.00000  Uiso   1.00
C26    C     0.07798   0.18474   0.02286   0.00000  Uiso   1.00
C27    C     0.17523   0.20171   0.47610   0.00000  Uiso   1.00
C28    C     0.15926   0.20172   0.02378   0.00000  Uiso   1.00
C29    C     0.19425   0.20370   0.04569   0.00000  Uiso   1.00
C30    C     0.14029   0.20379   0.45420   0.00000  Uiso   1.00
C31    C     0.24240   0.19522   0.02268   0.00000  Uiso   1.00
C32    C     0.09187   0.19528   0.47724   0.00000  Uiso   1.00
H33    H     0.11244   0.19987   0.11563   0.00000  Uiso   1.00
H34    H     0.22183   0.19956   0.38428   0.00000  Uiso   1.00
H35    H     0.31863   0.13949   0.10509   0.00000  Uiso   1.00
H36    H     0.01399   0.13971   0.39503   0.00000  Uiso   1.00
H37    H     0.31808   0.14874   0.47520   0.00000  Uiso   1.00
H38    H     0.01484   0.14856   0.02487   0.00000  Uiso   1.00
H39    H     0.18519   0.20907   0.08114   0.00000  Uiso   1.00
H40    H     0.14952   0.20933   0.41875   0.00000  Uiso   1.00
C41    C     0.28829   0.01988   0.26025   0.00000  Uiso   1.00
C42    C     0.04503   0.31344   0.23989   0.00000  Uiso   1.00
C43    C     0.29002   0.31067   0.26080   0.00000  Uiso   1.00
C44    C     0.04329   0.02265   0.23936   0.00000  Uiso   1.00
H45    H     0.25607   0.29344   0.26936   0.00000  Uiso   1.00
H46    H     0.07724   0.03988   0.23080   0.00000  Uiso   1.00
C47    C     0.00116   0.29050   0.25034   0.00000  Uiso   1.00
C48    C     0.33215   0.04282   0.24978   0.00000  Uiso   1.00
C49    C     0.18023   0.14467   0.28101   0.00000  Uiso   1.00
C50    C     0.15310   0.18868   0.21900   0.00000  Uiso   1.00
H51    H     0.18950   0.12679   0.30595   0.00000  Uiso   1.00
H52    H     0.14384   0.20656   0.19404   0.00000  Uiso   1.00
C53    C     0.13103   0.14464   0.28097   0.00000  Uiso   1.00
C54    C     0.20231   0.18870   0.21903   0.00000  Uiso   1.00
H55    H     0.10400   0.12673   0.30591   0.00000  Uiso   1.00
H56    H     0.22933   0.20661   0.19408   0.00000  Uiso   1.00
N57    N     0.11736   0.16668   0.24999   0.00000  Uiso   1.00
N58    N     0.21597   0.16666   0.25001   0.00000  Uiso   1.00
N59    N     0.27670   0.19739   0.04599   0.00000  Uiso   1.00
H60    H     0.26657   0.17896   0.07411   0.00000  Uiso   1.00
C61    C     0.28756   0.23888   0.05691   0.00000  Uiso   1.00
H62    H     0.31949   0.23885   0.06903   0.00000  Uiso   1.00
H63    H     0.25620   0.25163   0.08376   0.00000  Uiso   1.00
H64    H     0.29589   0.25907   0.02699   0.00000  Uiso   1.00
N65    N     0.05759   0.19768   0.45400   0.00000  Uiso   1.00
H66    H     0.06731   0.17978   0.42556   0.00000  Uiso   1.00
C67    C     0.04755   0.23931   0.44384   0.00000  Uiso   1.00
H68    H     0.01575   0.23934   0.43152   0.00000  Uiso   1.00
H69    H     0.07926   0.25274   0.41738   0.00000  Uiso   1.00
H70    H     0.03939   0.25886   0.47418   0.00000  Uiso   1.00
N71    N     0.24222   0.03905   0.27134   0.00000  Uiso   1.00
H72    H     0.21721   0.02701   0.29983   0.00000  Uiso   1.00
C73    C     0.22261   0.04106   0.23452   0.00000  Uiso   1.00
H74    H     0.21459   0.00964   0.22461   0.00000  Uiso   1.00
H75    H     0.24875   0.05685   0.20524   0.00000  Uiso   1.00
H76    H     0.18833   0.05866   0.24496   0.00000  Uiso   1.00
N77    N     0.09111   0.29428   0.22876   0.00000  Uiso   1.00
H78    H     0.11615   0.30645   0.20037   0.00000  Uiso   1.00
C79    C     0.11064   0.29207   0.26562   0.00000  Uiso   1.00
H80    H     0.11800   0.32342   0.27615   0.00000  Uiso   1.00
H81    H     0.14526   0.27499   0.25494   0.00000  Uiso   1.00
H82    H     0.08479   0.27566   0.29456   0.00000  Uiso   1.00
O83    O     0.37291   0.10655   0.25000   0.00000  Uiso   1.00
O84    O     0.62709   0.22678   0.25000   0.00000  Uiso   1.00
O85    O     0.62706   0.10654   0.25000   0.00000  Uiso   1.00
O86    O     0.37294   0.22679   0.24999   0.00000  Uiso   1.00
C87    C     0.66621   0.08754   0.25006   0.00000  Uiso   1.00
C88    C     0.33379   0.24579   0.24997   0.00000  Uiso   1.00
O89    O     0.35186   0.16668   0.31491   0.00000  Uiso   1.00
O90    O     0.64814   0.16666   0.18508   0.00000  Uiso   1.00
O91    O     0.60600   0.16667   0.31492   0.00000  Uiso   1.00
O92    O     0.39400   0.16667   0.18508   0.00000  Uiso   1.00
C93    C     0.63832   0.16747   0.33572   0.00000  Uiso   1.00
C94    C     0.36171   0.16749   0.16429   0.00000  Uiso   1.00
Cu95   Cu    0.38022   0.16667   0.25000   0.00000  Uiso   1.00
Cu96   Cu    0.61978   0.16666   0.25000   0.00000  Uiso   1.00
C97    C     0.62064   0.17145   0.38442   0.00000  Uiso   1.00
C98    C     0.37952   0.17148   0.11558   0.00000  Uiso   1.00
C99    C     0.63157   0.16281   0.45622   0.00000  Uiso   1.00
C100   C     0.36839   0.16271   0.04381   0.00000  Uiso   1.00
C101   C     0.64748   0.15642   0.41029   0.00000  Uiso   1.00
C102   C     0.35228   0.15631   0.08977   0.00000  Uiso   1.00
C103   C     0.57561   0.18946   0.40536   0.00000  Uiso   1.00
C104   C     0.42508   0.18961   0.09458   0.00000  Uiso   1.00
C105   C     0.55791   0.19384   0.45235   0.00000  Uiso   1.00
C106   C     0.44298   0.19390   0.04757   0.00000  Uiso   1.00
C107   C     0.58930   0.18473   0.47709   0.00000  Uiso   1.00
C108   C     0.41132   0.18474   0.02286   0.00000  Uiso   1.00
C109   C     0.50856   0.20171   0.47610   0.00000  Uiso   1.00
C110   C     0.49260   0.20172   0.02378   0.00000  Uiso   1.00
C111   C     0.52759   0.20370   0.04569   0.00000  Uiso   1.00
C112   C     0.47363   0.20379   0.45420   0.00000  Uiso   1.00
C113   C     0.57573   0.19522   0.02268   0.00000  Uiso   1.00
C114   C     0.42521   0.19528   0.47724   0.00000  Uiso   1.00
H115   H     0.44577   0.19987   0.11563   0.00000  Uiso   1.00
H116   H     0.55517   0.19956   0.38428   0.00000  Uiso   1.00
H117   H     0.65197   0.13949   0.10509   0.00000  Uiso   1.00
H118   H     0.34732   0.13971   0.39503   0.00000  Uiso   1.00
H119   H     0.65141   0.14874   0.47520   0.00000  Uiso   1.00
H120   H     0.34817   0.14856   0.02487   0.00000  Uiso   1.00
H121   H     0.51852   0.20907   0.08114   0.00000  Uiso   1.00
H122   H     0.48285   0.20933   0.41875   0.00000  Uiso   1.00
C123   C     0.62162   0.01988   0.26025   0.00000  Uiso   1.00
C124   C     0.37836   0.31344   0.23989   0.00000  Uiso   1.00
C125   C     0.62335   0.31067   0.26080   0.00000  Uiso   1.00
C126   C     0.37663   0.02265   0.23936   0.00000  Uiso   1.00
H127   H     0.58940   0.29344   0.26936   0.00000  Uiso   1.00
H128   H     0.41058   0.03988   0.23080   0.00000  Uiso   1.00
C129   C     0.33449   0.29050   0.25034   0.00000  Uiso   1.00
C130   C     0.66549   0.04282   0.24978   0.00000  Uiso   1.00
C131   C     0.51357   0.14467   0.28101   0.00000  Uiso   1.00
C132   C     0.48643   0.18868   0.21900   0.00000  Uiso   1.00
H133   H     0.52283   0.12679   0.30595   0.00000  Uiso   1.00
H134   H     0.47717   0.20656   0.19404   0.00000  Uiso   1.00
C135   C     0.46436   0.14464   0.28097   0.00000  Uiso   1.00
C136   C     0.53564   0.18870   0.21903   0.00000  Uiso   1.00
H137   H     0.43733   0.12673   0.30591   0.00000  Uiso   1.00
H138   H     0.56266   0.20661   0.19408   0.00000  Uiso   1.00
N139   N     0.45069   0.16668   0.24999   0.00000  Uiso   1.00
N140   N     0.54931   0.16666   0.25001   0.00000  Uiso   1.00
N141   N     0.61003   0.19739   0.04599   0.00000  Uiso   1.00
H142   H     0.59991   0.17896   0.07411   0.00000  Uiso   1.00
C143   C     0.62090   0.23888   0.05691   0.00000  Uiso   1.00
H144   H     0.65283   0.23885   0.06903   0.00000  Uiso   1.00
H145   H     0.58954   0.25163   0.08376   0.00000  Uiso   1.00
H146   H     0.62923   0.25907   0.02699   0.00000  Uiso   1.00
N147   N     0.39093   0.19768   0.45400   0.00000  Uiso   1.00
H148   H     0.40064   0.17978   0.42556   0.00000  Uiso   1.00
C149   C     0.38088   0.23931   0.44384   0.00000  Uiso   1.00
H150   H     0.34909   0.23934   0.43152   0.00000  Uiso   1.00
H151   H     0.41259   0.25274   0.41738   0.00000  Uiso   1.00
H152   H     0.37273   0.25886   0.47418   0.00000  Uiso   1.00
N153   N     0.57555   0.03905   0.27134   0.00000  Uiso   1.00
H154   H     0.55055   0.02701   0.29983   0.00000  Uiso   1.00
C155   C     0.55595   0.04106   0.23452   0.00000  Uiso   1.00
H156   H     0.54793   0.00964   0.22461   0.00000  Uiso   1.00
H157   H     0.58208   0.05685   0.20524   0.00000  Uiso   1.00
H158   H     0.52167   0.05866   0.24496   0.00000  Uiso   1.00
N159   N     0.42445   0.29428   0.22876   0.00000  Uiso   1.00
H160   H     0.44948   0.30645   0.20037   0.00000  Uiso   1.00
C161   C     0.44398   0.29207   0.26562   0.00000  Uiso   1.00
H162   H     0.45133   0.32342   0.27615   0.00000  Uiso   1.00
H163   H     0.47860   0.27499   0.25494   0.00000  Uiso   1.00
H164   H     0.41813   0.27566   0.29456   0.00000  Uiso   1.00
O165   O     0.70625   0.10655   0.25000   0.00000  Uiso   1.00
O166   O     0.96042   0.22678   0.25000   0.00000  Uiso   1.00
O167   O     0.96039   0.10654   0.25000   0.00000  Uiso   1.00
O168   O     0.70628   0.22679   0.24999   0.00000  Uiso   1.00
C169   C     0.99954   0.08754   0.25006   0.00000  Uiso   1.00
C170   C     0.66712   0.24579   0.24997   0.00000  Uiso   1.00
O171   O     0.68519   0.16668   0.31491   0.00000  Uiso   1.00
O172   O     0.98148   0.16666   0.18508   0.00000  Uiso   1.00
O173   O     0.93933   0.16667   0.31492   0.00000  Uiso   1.00
O174   O     0.72733   0.16667   0.18508   0.00000  Uiso   1.00
C175   C     0.97165   0.16747   0.33572   0.00000  Uiso   1.00
C176   C     0.69504   0.16749   0.16429   0.00000  Uiso   1.00
Cu177  Cu    0.71355   0.16667   0.25000   0.00000  Uiso   1.00
Cu178  Cu    0.95311   0.16666   0.25000   0.00000  Uiso   1.00
C179   C     0.95397   0.17145   0.38442   0.00000  Uiso   1.00
C180   C     0.71285   0.17148   0.11558   0.00000  Uiso   1.00
C181   C     0.96491   0.16281   0.45622   0.00000  Uiso   1.00
C182   C     0.70172   0.16271   0.04381   0.00000  Uiso   1.00
C183   C     0.98082   0.15642   0.41029   0.00000  Uiso   1.00
C184   C     0.68561   0.15631   0.08977   0.00000  Uiso   1.00
C185   C     0.90895   0.18946   0.40536   0.00000  Uiso   1.00
C186   C     0.75842   0.18961   0.09458   0.00000  Uiso   1.00
C187   C     0.89124   0.19384   0.45235   0.00000  Uiso   1.00
C188   C     0.77631   0.19390   0.04757   0.00000  Uiso   1.00
C189   C     0.92263   0.18473   0.47709   0.00000  Uiso   1.00
C190   C     0.74465   0.18474   0.02286   0.00000  Uiso   1.00
C191   C     0.84190   0.20171   0.47610   0.00000  Uiso   1.00
C192   C     0.82593   0.20172   0.02378   0.00000  Uiso   1.00
C193   C     0.86092   0.20370   0.04569   0.00000  Uiso   1.00
C194   C     0.80696   0.20379   0.45420   0.00000  Uiso   1.00
C195   C     0.90906   0.19522   0.02268   0.00000  Uiso   1.00
C196   C     0.75854   0.19528   0.47724   0.00000  Uiso   1.00
H197   H     0.77911   0.19987   0.11563   0.00000  Uiso   1.00
H198   H     0.88850   0.19956   0.38428   0.00000  Uiso   1.00
H199   H     0.98530   0.13949   0.10509   0.00000  Uiso   1.00
H200   H     0.68065   0.13971   0.39503   0.00000  Uiso   1.00
H201   H     0.98475   0.14874   0.47520   0.00000  Uiso   1.00
H202   H     0.68150   0.14856   0.02487   0.00000  Uiso   1.00
H203   H     0.85185   0.20907   0.08114   0.00000  Uiso   1.00
H204   H     0.81618   0.20933   0.41875   0.00000  Uiso   1.00
C205   C     0.95495   0.01988   0.26025   0.00000  Uiso   1.00
C206   C     0.71170   0.31344   0.23989   0.00000  Uiso   1.00
C207   C     0.95668   0.31067   0.26080   0.00000  Uiso   1.00
C208   C     0.70996   0.02265   0.23936   0.00000  Uiso   1.00
H209   H     0.92274   0.29344   0.26936   0.00000  Uiso   1.00
H210   H     0.74391   0.03988   0.23080   0.00000  Uiso   1.00
C211   C     0.66783   0.29050   0.25034   0.00000  Uiso   1.00
C212   C     0.99882   0.04282   0.24978   0.00000  Uiso   1.00
C213   C     0.84690   0.14467   0.28101   0.00000  Uiso   1.00
C214   C     0.81976   0.18868   0.21900   0.00000  Uiso   1.00
H215   H     0.85616   0.12679   0.30595   0.00000  Uiso   1.00
H216   H     0.81050   0.20656   0.19404   0.00000  Uiso   1.00
C217   C     0.79769   0.14464   0.28097   0.00000  Uiso   1.00
C218   C     0.86897   0.18870   0.21903   0.00000  Uiso   1.00
H219   H     0.77067   0.12673   0.30591   0.00000  Uiso   1.00
H220   H     0.89600   0.20661   0.19408   0.00000  Uiso   1.00
N221   N     0.78403   0.16668   0.24999   0.00000  Uiso   1.00
N222   N     0.88264   0.16666   0.25001   0.00000  Uiso   1.00
N223   N     0.94337   0.19739   0.04599   0.00000  Uiso   1.00
H224   H     0.93324   0.17896   0.07411   0.00000  Uiso   1.00
C225   C     0.95423   0.23888   0.05691   0.00000  Uiso   1.00
H226   H     0.98616   0.23885   0.06903   0.00000  Uiso   1.00
H227   H     0.92287   0.25163   0.08376   0.00000  Uiso   1.00
H228   H     0.96256   0.25907   0.02699   0.00000  Uiso   1.00
N229   N     0.72426   0.19768   0.45400   0.00000  Uiso   1.00
H230   H     0.73397   0.17978   0.42556   0.00000  Uiso   1.00
C231   C     0.71421   0.23931   0.44384   0.00000  Uiso   1.00
H232   H     0.68242   0.23934   0.43152   0.00000  Uiso   1.00
H233   H     0.74593   0.25274   0.41738   0.00000  Uiso   1.00
H234   H     0.70606   0.25886   0.47418   0.00000  Uiso   1.00
N235   N     0.90888   0.03905   0.27134   0.00000  Uiso   1.00
H236   H     0.88388   0.02701   0.29983   0.00000  Uiso   1.00
C237   C     0.88928   0.04106   0.23452   0.00000  Uiso   1.00
H238   H     0.88126   0.00964   0.22461   0.00000  Uiso   1.00
H239   H     0.91542   0.05685   0.20524   0.00000  Uiso   1.00
H240   H     0.85500   0.05866   0.24496   0.00000  Uiso   1.00
N241   N     0.75778   0.29428   0.22876   0.00000  Uiso   1.00
H242   H     0.78281   0.30645   0.20037   0.00000  Uiso   1.00
C243   C     0.77731   0.29207   0.26562   0.00000  Uiso   1.00
H244   H     0.78467   0.32342   0.27615   0.00000  Uiso   1.00
H245   H     0.81193   0.27499   0.25494   0.00000  Uiso   1.00
H246   H     0.75146   0.27566   0.29456   0.00000  Uiso   1.00
O247   O     0.03958   0.43989   0.25000   0.00000  Uiso   1.00
O248   O     0.29375   0.56011   0.25000   0.00000  Uiso   1.00
O249   O     0.29372   0.43988   0.25000   0.00000  Uiso   1.00
O250   O     0.03961   0.56012   0.24999   0.00000  Uiso   1.00
C251   C     0.33287   0.42087   0.25006   0.00000  Uiso   1.00
C252   C     0.00045   0.57913   0.24997   0.00000  Uiso   1.00
O253   O     0.01852   0.50001   0.31491   0.00000  Uiso   1.00
O254   O     0.31481   0.49999   0.18508   0.00000  Uiso   1.00
O255   O     0.27267   0.50000   0.31492   0.00000  Uiso   1.00
O256   O     0.06067   0.50000   0.18508   0.00000  Uiso   1.00
C257   C     0.30498   0.50080   0.33572   0.00000  Uiso   1.00
C258   C     0.02838   0.50082   0.16429   0.00000  Uiso   1.00
Cu259  Cu    0.04689   0.50001   0.25000   0.00000  Uiso   1.00
Cu260  Cu    0.28645   0.49999   0.25000   0.00000  Uiso   1.00
C261   C     0.28731   0.50478   0.38442   0.00000  Uiso   1.00
C262   C     0.04619   0.50481   0.11558   0.00000  Uiso   1.00
C263   C     0.29824   0.49614   0.45622   0.00000  Uiso   1.00
C264   C     0.03505   0.49605   0.04381   0.00000  Uiso   1.00
C265   C     0.31415   0.48976   0.41029   0.00000  Uiso   1.00
C266   C     0.01894   0.48964   0.08977   0.00000  Uiso   1.00
C267   C     0.24228   0.52280   0.40536   0.00000  Uiso   1.00
C268   C     0.09175   0.52294   0.09458   0.00000  Uiso   1.00
C269   C     0.22458   0.52717   0.45235   0.00000  Uiso   1.00
C270   C     0.10964   0.52723   0.04757   0.00000  Uiso   1.00
C271   C     0.25596   0.51806   0.47709   0.00000  Uiso   1.00
C272   C     0.07798   0.51807   0.02286   0.00000  Uiso   1.00
C273   C     0.17523   0.53505   0.47610   0.00000  Uiso   1.00
C274   C     0.15926   0.53505   0.02378   0.00000  Uiso   1.00
C275   C     0.19425   0.53703   0.04569   0.00000  Uiso   1.00
C276   C     0.14029   0.53713   0.45420   0.00000  Uiso   1.00
C277   C     0.24240   0.52855   0.02268   0.00000  Uiso   1.00
C278   C     0.09187   0.52861   0.47724   0.00000  Uiso   1.00
H279   H     0.11244   0.53320   0.11563   0.00000  Uiso   1.00
H280   H     0.22183   0.53290   0.38428   0.00000  Uiso   1.00
H281   H     0.31863   0.47282   0.10509   0.00000  Uiso   1.00
H282   H     0.01399   0.47304   0.39503   0.00000  Uiso   1.00
H283   H     0.31808   0.48208   0.47520   0.00000  Uiso   1.00
H284   H     0.01484   0.48189   0.02487   0.00000  Uiso   1.00
H285   H     0.18519   0.54240   0.08114   0.00000  Uiso   1.00
H286   H     0.14952   0.54266   0.41875   0.00000  Uiso   1.00
C287   C     0.28829   0.35321   0.26025   0.00000  Uiso   1.00
C288   C     0.04503   0.64677   0.23989   0.00000  Uiso   1.00
C289   C     0.29002   0.64400   0.26080   0.00000  Uiso   1.00
C290   C     0.04329   0.35598   0.23936   0.00000  Uiso   1.00
H291   H     0.25607   0.62677   0.26936   0.00000  Uiso   1.00
H292   H     0.07724   0.37321   0.23080   0.00000  Uiso   1.00
C293   C     0.00116   0.62383   0.25034   0.00000  Uiso   1.00
C294   C     0.33215   0.37615   0.24978   0.00000  Uiso   1.00
C295   C     0.18023   0.47800   0.28101   0.00000  Uiso   1.00
C296   C     0.15310   0.52201   0.21900   0.00000  Uiso   1.00
H297   H     0.18950   0.46012   0.30595   0.00000  Uiso   1.00
H298   H     0.14384   0.53989   0.19404   0.00000  Uiso   1.00
C299   C     0.13103   0.47797   0.28097   0.00000  Uiso   1.00
C300   C     0.20231   0.52204   0.21903   0.00000  Uiso   1.00
H301   H     0.10400   0.46006   0.30591   0.00000  Uiso   1.00
H302   H     0.22933   0.53995   0.19408   0.00000  Uiso   1.00
N303   N     0.11736   0.50001   0.24999   0.00000  Uiso   1.00
N304   N     0.21597   0.49999   0.25001   0.00000  Uiso   1.00
N305   N     0.27670   0.53072   0.04599   0.00000  Uiso   1.00
H306   H     0.26657   0.51229   0.07411   0.00000  Uiso   1.00
C307   C     0.28756   0.57222   0.05691   0.00000  Uiso   1.00
H308   H     0.31949   0.57218   0.06903   0.00000  Uiso   1.00
H309   H     0.25620   0.58496   0.08376   0.00000  Uiso   1.00
H310   H     0.29589   0.59240   0.02699   0.00000  Uiso   1.00
N311   N     0.05759   0.53101   0.45400   0.00000  Uiso   1.00
H312   H     0.06731   0.51311   0.42556   0.00000  Uiso   1.00
C313   C     0.04755   0.57265   0.44384   0.00000  Uiso   1.00
H314   H     0.01575   0.57267   0.43152   0.00000  Uiso   1.00
H315   H     0.07926   0.58607   0.41738   0.00000  Uiso   1.00
H316   H     0.03939   0.59220   0.47418   0.00000  Uiso   1.00
N317   N     0.24222   0.37238   0.27134   0.00000  Uiso   1.00
H318   H     0.21721   0.36034   0.29983   0.00000  Uiso   1.00
C319   C     0.22261   0.37439   0.23452   0.00000  Uiso   1.00
H320   H     0.21459   0.34297   0.22461   0.00000  Uiso   1.00
H321   H     0.24875   0.39018   0.20524   0.00000  Uiso   1.00
H322   H     0.18833   0.39199   0.24496   0.00000  Uiso   1.00
N323   N     0.09111   0.62762   0.22876   0.00000  Uiso   1.00
H324   H     0.11615   0.63978   0.20037   0.00000  Uiso   1.00
C325   C     0.11064   0.62540   0.26562   0.00000  Uiso   1.00
H326   H     0.11800   0.65675   0.27615   0.00000  Uiso   1.00
H327   H     0.14526   0.60833   0.25494   0.00000  Uiso   1.00
H328   H     0.08479   0.60900   0.29456   0.00000  Uiso   1.00
O329   O     0.37291   0.43989   0.25000   0.00000  Uiso   1.00
O330   O     0.62709   0.56011   0.25000   0.00000  Uiso   1.00
O331   O     0.62706   0.43988   0.25000   0.00000  Uiso   1.00
O332   O     0.37294   0.56012   0.24999   0.00000  Uiso   1.00
C333   C     0.66621   0.42087   0.25006   0.00000  Uiso   1.00
C334   C     0.33379   0.57913   0.24997   0.00000  Uiso   1.00
O335   O     0.35186   0.50001   0.31491   0.00000  Uiso   1.00
O336   O     0.64814   0.49999   0.18508   0.00000  Uiso   1.00
O337   O     0.60600   0.50000   0.31492   0.00000  Uiso   1.00
O338   O     0.39400   0.50000   0.18508   0.00000  Uiso   1.00
C339   C     0.63832   0.50080   0.33572   0.00000  Uiso   1.00
C340   C     0.36171   0.50082   0.16429   0.00000  Uiso   1.00
Cu341  Cu    0.38022   0.50001   0.25000   0.00000  Uiso   1.00
Cu342  Cu    0.61978   0.49999   0.25000   0.00000  Uiso   1.00
C343   C     0.62064   0.50478   0.38442   0.00000  Uiso   1.00
C344   C     0.37952   0.50481   0.11558   0.00000  Uiso   1.00
C345   C     0.63157   0.49614   0.45622   0.00000  Uiso   1.00
C346   C     0.36839   0.49605   0.04381   0.00000  Uiso   1.00
C347   C     0.64748   0.48976   0.41029   0.00000  Uiso   1.00
C348   C     0.35228   0.48964   0.08977   0.00000  Uiso   1.00
C349   C     0.57561   0.52280   0.40536   0.00000  Uiso   1.00
C350   C     0.42508   0.52294   0.09458   0.00000  Uiso   1.00
C351   C     0.55791   0.52717   0.45235   0.00000  Uiso   1.00
C352   C     0.44298   0.52723   0.04757   0.00000  Uiso   1.00
C353   C     0.58930   0.51806   0.47709   0.00000  Uiso   1.00
C354   C     0.41132   0.51807   0.02286   0.00000  Uiso   1.00
C355   C     0.50856   0.53505   0.47610   0.00000  Uiso   1.00
C356   C     0.49260   0.53505   0.02378   0.00000  Uiso   1.00
C357   C     0.52759   0.53703   0.04569   0.00000  Uiso   1.00
C358   C     0.47363   0.53713   0.45420   0.00000  Uiso   1.00
C359   C     0.57573   0.52855   0.02268   0.00000  Uiso   1.00
C360   C     0.42521   0.52861   0.47724   0.00000  Uiso   1.00
H361   H     0.44577   0.53320   0.11563   0.00000  Uiso   1.00
H362   H     0.55517   0.53290   0.38428   0.00000  Uiso   1.00
H363   H     0.65197   0.47282   0.10509   0.00000  Uiso   1.00
H364   H     0.34732   0.47304   0.39503   0.00000  Uiso   1.00
H365   H     0.65141   0.48208   0.47520   0.00000  Uiso   1.00
H366   H     0.34817   0.48189   0.02487   0.00000  Uiso   1.00
H367   H     0.51852   0.54240   0.08114   0.00000  Uiso   1.00
H368   H     0.48285   0.54266   0.41875   0.00000  Uiso   1.00
C369   C     0.62162   0.35321   0.26025   0.00000  Uiso   1.00
C370   C     0.37836   0.64677   0.23989   0.00000  Uiso   1.00
C371   C     0.62335   0.64400   0.26080   0.00000  Uiso   1.00
C372   C     0.37663   0.35598   0.23936   0.00000  Uiso   1.00
H373   H     0.58940   0.62677   0.26936   0.00000  Uiso   1.00
H374   H     0.41058   0.37321   0.23080   0.00000  Uiso   1.00
C375   C     0.33449   0.62383   0.25034   0.00000  Uiso   1.00
C376   C     0.66549   0.37615   0.24978   0.00000  Uiso   1.00
C377   C     0.51357   0.47800   0.28101   0.00000  Uiso   1.00
C378   C     0.48643   0.52201   0.21900   0.00000  Uiso   1.00
H379   H     0.52283   0.46012   0.30595   0.00000  Uiso   1.00
H380   H     0.47717   0.53989   0.19404   0.00000  Uiso   1.00
C381   C     0.46436   0.47797   0.28097   0.00000  Uiso   1.00
C382   C     0.53564   0.52204   0.21903   0.00000  Uiso   1.00
H383   H     0.43733   0.46006   0.30591   0.00000  Uiso   1.00
H384   H     0.56266   0.53995   0.19408   0.00000  Uiso   1.00
N385   N     0.45069   0.50001   0.24999   0.00000  Uiso   1.00
N386   N     0.54931   0.49999   0.25001   0.00000  Uiso   1.00
N387   N     0.61003   0.53072   0.04599   0.00000  Uiso   1.00
H388   H     0.59991   0.51229   0.07411   0.00000  Uiso   1.00
C389   C     0.62090   0.57222   0.05691   0.00000  Uiso   1.00
H390   H     0.65283   0.57218   0.06903   0.00000  Uiso   1.00
H391   H     0.58954   0.58496   0.08376   0.00000  Uiso   1.00
H392   H     0.62923   0.59240   0.02699   0.00000  Uiso   1.00
N393   N     0.39093   0.53101   0.45400   0.00000  Uiso   1.00
H394   H     0.40064   0.51311   0.42556   0.00000  Uiso   1.00
C395   C     0.38088   0.57265   0.44384   0.00000  Uiso   1.00
H396   H     0.34909   0.57267   0.43152   0.00000  Uiso   1.00
H397   H     0.41259   0.58607   0.41738   0.00000  Uiso   1.00
H398   H     0.37273   0.59220   0.47418   0.00000  Uiso   1.00
N399   N     0.57555   0.37238   0.27134   0.00000  Uiso   1.00
H400   H     0.55055   0.36034   0.29983   0.00000  Uiso   1.00
C401   C     0.55595   0.37439   0.23452   0.00000  Uiso   1.00
H402   H     0.54793   0.34297   0.22461   0.00000  Uiso   1.00
H403   H     0.58208   0.39018   0.20524   0.00000  Uiso   1.00
H404   H     0.52167   0.39199   0.24496   0.00000  Uiso   1.00
N405   N     0.42445   0.62762   0.22876   0.00000  Uiso   1.00
H406   H     0.44948   0.63978   0.20037   0.00000  Uiso   1.00
C407   C     0.44398   0.62540   0.26562   0.00000  Uiso   1.00
H408   H     0.45133   0.65675   0.27615   0.00000  Uiso   1.00
H409   H     0.47860   0.60833   0.25494   0.00000  Uiso   1.00
H410   H     0.41813   0.60900   0.29456   0.00000  Uiso   1.00
O411   O     0.70625   0.43989   0.25000   0.00000  Uiso   1.00
O412   O     0.96042   0.56011   0.25000   0.00000  Uiso   1.00
O413   O     0.96039   0.43988   0.25000   0.00000  Uiso   1.00
O414   O     0.70628   0.56012   0.24999   0.00000  Uiso   1.00
C415   C     0.99954   0.42087   0.25006   0.00000  Uiso   1.00
C416   C     0.66712   0.57913   0.24997   0.00000  Uiso   1.00
O417   O     0.68519   0.50001   0.31491   0.00000  Uiso   1.00
O418   O     0.98148   0.49999   0.18508   0.00000  Uiso   1.00
O419   O     0.93933   0.50000   0.31492   0.00000  Uiso   1.00
O420   O     0.72733   0.50000   0.18508   0.00000  Uiso   1.00
C421   C     0.97165   0.50080   0.33572   0.00000  Uiso   1.00
C422   C     0.69504   0.50082   0.16429   0.00000  Uiso   1.00
Cu423  Cu    0.71355   0.50001   0.25000   0.00000  Uiso   1.00
Cu424  Cu    0.95311   0.49999   0.25000   0.00000  Uiso   1.00
C425   C     0.95397   0.50478   0.38442   0.00000  Uiso   1.00
C426   C     0.71285   0.50481   0.11558   0.00000  Uiso   1.00
C427   C     0.96491   0.49614   0.45622   0.00000  Uiso   1.00
C428   C     0.70172   0.49605   0.04381   0.00000  Uiso   1.00
C429   C     0.98082   0.48976   0.41029   0.00000  Uiso   1.00
C430   C     0.68561   0.48964   0.08977   0.00000  Uiso   1.00
C431   C     0.90895   0.52280   0.40536   0.00000  Uiso   1.00
C432   C     0.75842   0.52294   0.09458   0.00000  Uiso   1.00
C433   C     0.89124   0.52717   0.45235   0.00000  Uiso   1.00
C434   C     0.77631   0.52723   0.04757   0.00000  Uiso   1.00
C435   C     0.92263   0.51806   0.47709   0.00000  Uiso   1.00
C436   C     0.74465   0.51807   0.02286   0.00000  Uiso   1.00
C437   C     0.84190   0.53505   0.47610   0.00000  Uiso   1.00
C438   C     0.82593   0.53505   0.02378   0.00000  Uiso   1.00
C439   C     0.86092   0.53703   0.04569   0.00000  Uiso   1.00
C440   C     0.80696   0.53713   0.45420   0.00000  Uiso   1.00
C441   C     0.90906   0.52855   0.02268   0.00000  Uiso   1.00
C442   C     0.75854   0.52861   0.47724   0.00000  Uiso   1.00
H443   H     0.77911   0.53320   0.11563   0.00000  Uiso   1.00
H444   H     0.88850   0.53290   0.38428   0.00000  Uiso   1.00
H445   H     0.98530   0.47282   0.10509   0.00000  Uiso   1.00
H446   H     0.68065   0.47304   0.39503   0.00000  Uiso   1.00
H447   H     0.98475   0.48208   0.47520   0.00000  Uiso   1.00
H448   H     0.68150   0.48189   0.02487   0.00000  Uiso   1.00
H449   H     0.85185   0.54240   0.08114   0.00000  Uiso   1.00
H450   H     0.81618   0.54266   0.41875   0.00000  Uiso   1.00
C451   C     0.95495   0.35321   0.26025   0.00000  Uiso   1.00
C452   C     0.71170   0.64677   0.23989   0.00000  Uiso   1.00
C453   C     0.95668   0.64400   0.26080   0.00000  Uiso   1.00
C454   C     0.70996   0.35598   0.23936   0.00000  Uiso   1.00
H455   H     0.92274   0.62677   0.26936   0.00000  Uiso   1.00
H456   H     0.74391   0.37321   0.23080   0.00000  Uiso   1.00
C457   C     0.66783   0.62383   0.25034   0.00000  Uiso   1.00
C458   C     0.99882   0.37615   0.24978   0.00000  Uiso   1.00
C459   C     0.84690   0.47800   0.28101   0.00000  Uiso   1.00
C460   C     0.81976   0.52201   0.21900   0.00000  Uiso   1.00
H461   H     0.85616   0.46012   0.30595   0.00000  Uiso   1.00
H462   H     0.81050   0.53989   0.19404   0.00000  Uiso   1.00
C463   C     0.79769   0.47797   0.28097   0.00000  Uiso   1.00
C464   C     0.86897   0.52204   0.21903   0.00000  Uiso   1.00
H465   H     0.77067   0.46006   0.30591   0.00000  Uiso   1.00
H466   H     0.89600   0.53995   0.19408   0.00000  Uiso   1.00
N467   N     0.78403   0.50001   0.24999   0.00000  Uiso   1.00
N468   N     0.88264   0.49999   0.25001   0.00000  Uiso   1.00
N469   N     0.94337   0.53072   0.04599   0.00000  Uiso   1.00
H470   H     0.93324   0.51229   0.07411   0.00000  Uiso   1.00
C471   C     0.95423   0.57222   0.05691   0.00000  Uiso   1.00
H472   H     0.98616   0.57218   0.06903   0.00000  Uiso   1.00
H473   H     0.92287   0.58496   0.08376   0.00000  Uiso   1.00
H474   H     0.96256   0.59240   0.02699   0.00000  Uiso   1.00
N475   N     0.72426   0.53101   0.45400   0.00000  Uiso   1.00
H476   H     0.73397   0.51311   0.42556   0.00000  Uiso   1.00
C477   C     0.71421   0.57265   0.44384   0.00000  Uiso   1.00
H478   H     0.68242   0.57267   0.43152   0.00000  Uiso   1.00
H479   H     0.74593   0.58607   0.41738   0.00000  Uiso   1.00
H480   H     0.70606   0.59220   0.47418   0.00000  Uiso   1.00
N481   N     0.90888   0.37238   0.27134   0.00000  Uiso   1.00
H482   H     0.88388   0.36034   0.29983   0.00000  Uiso   1.00
C483   C     0.88928   0.37439   0.23452   0.00000  Uiso   1.00
H484   H     0.88126   0.34297   0.22461   0.00000  Uiso   1.00
H485   H     0.91542   0.39018   0.20524   0.00000  Uiso   1.00
H486   H     0.85500   0.39199   0.24496   0.00000  Uiso   1.00
N487   N     0.75778   0.62762   0.22876   0.00000  Uiso   1.00
H488   H     0.78281   0.63978   0.20037   0.00000  Uiso   1.00
C489   C     0.77731   0.62540   0.26562   0.00000  Uiso   1.00
H490   H     0.78467   0.65675   0.27615   0.00000  Uiso   1.00
H491   H     0.81193   0.60833   0.25494   0.00000  Uiso   1.00
H492   H     0.75146   0.60900   0.29456   0.00000  Uiso   1.00
O493   O     0.03958   0.77322   0.25000   0.00000  Uiso   1.00
O494   O     0.29375   0.89345   0.25000   0.00000  Uiso   1.00
O495   O     0.29372   0.77321   0.25000   0.00000  Uiso   1.00
O496   O     0.03961   0.89346   0.24999   0.00000  Uiso   1.00
C497   C     0.33287   0.75420   0.25006   0.00000  Uiso   1.00
C498   C     0.00045   0.91246   0.24997   0.00000  Uiso   1.00
O499   O     0.01852   0.83334   0.31491   0.00000  Uiso   1.00
O500   O     0.31481   0.83332   0.18508   0.00000  Uiso   1.00
O501   O     0.27267   0.83333   0.31492   0.00000  Uiso   1.00
O502   O     0.06067   0.83333   0.18508   0.00000  Uiso   1.00
C503   C     0.30498   0.83414   0.33572   0.00000  Uiso   1.00
C504   C     0.02838   0.83415   0.16429   0.00000  Uiso   1.00
Cu505  Cu    0.04689   0.83334   0.25000   0.00000  Uiso   1.00
Cu506  Cu    0.28645   0.83333   0.25000   0.00000  Uiso   1.00
C507   C     0.28731   0.83811   0.38442   0.00000  Uiso   1.00
C508   C     0.04619   0.83814   0.11558   0.00000  Uiso   1.00
C509   C     0.29824   0.82947   0.45622   0.00000  Uiso   1.00
C510   C     0.03505   0.82938   0.04381   0.00000  Uiso   1.00
C511   C     0.31415   0.82309   0.41029   0.00000  Uiso   1.00
C512   C     0.01894   0.82298   0.08977   0.00000  Uiso   1.00
C513   C     0.24228   0.85613   0.40536   0.00000  Uiso   1.00
C514   C     0.09175   0.85627   0.09458   0.00000  Uiso   1.00
C515   C     0.22458   0.86051   0.45235   0.00000  Uiso   1.00
C516   C     0.10964   0.86056   0.04757   0.00000  Uiso   1.00
C517   C     0.25596   0.85140   0.47709   0.00000  Uiso   1.00
C518   C     0.07798   0.85141   0.02286   0.00000  Uiso   1.00
C519   C     0.17523   0.86838   0.47610   0.00000  Uiso   1.00
C520   C     0.15926   0.86838   0.02378   0.00000  Uiso   1.00
C521   C     0.19425   0.87036   0.04569   0.00000  Uiso   1.00
C522   C     0.14029   0.87046   0.45420   0.00000  Uiso   1.00
C523   C     0.24240   0.86188   0.02268   0.00000  Uiso   1.00
C524   C     0.09187   0.86195   0.47724   0.00000  Uiso   1.00
H525   H     0.11244   0.86653   0.11563   0.00000  Uiso   1.00
H526   H     0.22183   0.86623   0.38428   0.00000  Uiso   1.00
H527   H     0.31863   0.80616   0.10509   0.00000  Uiso   1.00
H528   H     0.01399   0.80637   0.39503   0.00000  Uiso   1.00
H529   H     0.31808   0.81541   0.47520   0.00000  Uiso   1.00
H530   H     0.01484   0.81522   0.02487   0.00000  Uiso   1.00
H531   H     0.18519   0.87573   0.08114   0.00000  Uiso   1.00
H532   H     0.14952   0.87600   0.41875   0.00000  Uiso   1.00
C533   C     0.28829   0.68654   0.26025   0.00000  Uiso   1.00
C534   C     0.04503   0.98011   0.23989   0.00000  Uiso   1.00
C535   C     0.29002   0.97734   0.26080   0.00000  Uiso   1.00
C536   C     0.04329   0.68931   0.23936   0.00000  Uiso   1.00
H537   H     0.25607   0.96011   0.26936   0.00000  Uiso   1.00
H538   H     0.07724   0.70654   0.23080   0.00000  Uiso   1.00
C539   C     0.00116   0.95717   0.25034   0.00000  Uiso   1.00
C540   C     0.33215   0.70948   0.24978   0.00000  Uiso   1.00
C541   C     0.18023   0.81134   0.28101   0.00000  Uiso   1.00
C542   C     0.15310   0.85534   0.21900   0.00000  Uiso   1.00
H543   H     0.18950   0.79346   0.30595   0.00000  Uiso   1.00
H544   H     0.14384   0.87322   0.19404   0.00000  Uiso   1.00
C545   C     0.13103   0.81131   0.28097   0.00000  Uiso   1.00
C546   C     0.20231   0.85537   0.21903   0.00000  Uiso   1.00
H547   H     0.10400   0.79339   0.30591   0.00000  Uiso   1.00
H548   H     0.22933   0.87328   0.19408   0.00000  Uiso   1.00
N549   N     0.11736   0.83334   0.24999   0.00000  Uiso   1.00
N550   N     0.21597   0.83332   0.25001   0.00000  Uiso   1.00
N551   N     0.27670   0.86406   0.04599   0.00000  Uiso   1.00
H552   H     0.26657   0.84562   0.07411   0.00000  Uiso   1.00
C553   C     0.28756   0.90555   0.05691   0.00000  Uiso   1.00
H554   H     0.31949   0.90552   0.06903   0.00000  Uiso   1.00
H555   H     0.25620   0.91829   0.08376   0.00000  Uiso   1.00
H556   H     0.29589   0.92573   0.02699   0.00000  Uiso   1.00
N557   N     0.05759   0.86434   0.45400   0.00000  Uiso   1.00
H558   H     0.06731   0.84644   0.42556   0.00000  Uiso   1.00
C559   C     0.04755   0.90598   0.44384   0.00000  Uiso   1.00
H560   H     0.01575   0.90601   0.43152   0.00000  Uiso   1.00
H561   H     0.07926   0.91940   0.41738   0.00000  Uiso   1.00
H562   H     0.03939   0.92553   0.47418   0.00000  Uiso   1.00
N563   N     0.24222   0.70571   0.27134   0.00000  Uiso   1.00
H564   H     0.21721   0.69368   0.29983   0.00000  Uiso   1.00
C565   C     0.22261   0.70772   0.23452   0.00000  Uiso   1.00
H566   H     0.21459   0.67630   0.22461   0.00000  Uiso   1.00
H567   H     0.24875   0.72351   0.20524   0.00000  Uiso   1.00
H568   H     0.18833   0.72533   0.24496   0.00000  Uiso   1.00
N569   N     0.09111   0.96095   0.22876   0.00000  Uiso   1.00
H570   H     0.11615   0.97312   0.20037   0.00000  Uiso   1.00
C571   C     0.11064   0.95873   0.26562   0.00000  Uiso   1.00
H572   H     0.11800   0.99008   0.27615   0.00000  Uiso   1.00
H573   H     0.14526   0.94166   0.25494   0.00000  Uiso   1.00
H574   H     0.08479   0.94233   0.29456   0.00000  Uiso   1.00
O575   O     0.37291   0.77322   0.25000   0.00000  Uiso   1.00
O576   O     0.62709   0.89345   0.25000   0.00000  Uiso   1.00
O577   O     0.62706   0.77321   0.25000   0.00000  Uiso   1.00
O578   O     0.37294   0.89346   0.24999   0.00000  Uiso   1.00
C579   C     0.66621   0.75420   0.25006   0.00000  Uiso   1.00
C580   C     0.33379   0.91246   0.24997   0.00000  Uiso   1.00
O581   O     0.35186   0.83334   0.31491   0.00000  Uiso   1.00
O582   O     0.64814   0.83332   0.18508   0.00000  Uiso   1.00
O583   O     0.60600   0.83333   0.31492   0.00000  Uiso   1.00
O584   O     0.39400   0.83333   0.18508   0.00000  Uiso   1.00
C585   C     0.63832   0.83414   0.33572   0.00000  Uiso   1.00
C586   C     0.36171   0.83415   0.16429   0.00000  Uiso   1.00
Cu587  Cu    0.38022   0.83334   0.25000   0.00000  Uiso   1.00
Cu588  Cu    0.61978   0.83333   0.25000   0.00000  Uiso   1.00
C589   C     0.62064   0.83811   0.38442   0.00000  Uiso   1.00
C590   C     0.37952   0.83814   0.11558   0.00000  Uiso   1.00
C591   C     0.63157   0.82947   0.45622   0.00000  Uiso   1.00
C592   C     0.36839   0.82938   0.04381   0.00000  Uiso   1.00
C593   C     0.64748   0.82309   0.41029   0.00000  Uiso   1.00
C594   C     0.35228   0.82298   0.08977   0.00000  Uiso   1.00
C595   C     0.57561   0.85613   0.40536   0.00000  Uiso   1.00
C596   C     0.42508   0.85627   0.09458   0.00000  Uiso   1.00
C597   C     0.55791   0.86051   0.45235   0.00000  Uiso   1.00
C598   C     0.44298   0.86056   0.04757   0.00000  Uiso   1.00
C599   C     0.58930   0.85140   0.47709   0.00000  Uiso   1.00
C600   C     0.41132   0.85141   0.02286   0.00000  Uiso   1.00
C601   C     0.50856   0.86838   0.47610   0.00000  Uiso   1.00
C602   C     0.49260   0.86838   0.02378   0.00000  Uiso   1.00
C603   C     0.52759   0.87036   0.04569   0.00000  Uiso   1.00
C604   C     0.47363   0.87046   0.45420   0.00000  Uiso   1.00
C605   C     0.57573   0.86188   0.02268   0.00000  Uiso   1.00
C606   C     0.42521   0.86195   0.47724   0.00000  Uiso   1.00
H607   H     0.44577   0.86653   0.11563   0.00000  Uiso   1.00
H608   H     0.55517   0.86623   0.38428   0.00000  Uiso   1.00
H609   H     0.65197   0.80616   0.10509   0.00000  Uiso   1.00
H610   H     0.34732   0.80637   0.39503   0.00000  Uiso   1.00
H611   H     0.65141   0.81541   0.47520   0.00000  Uiso   1.00
H612   H     0.34817   0.81522   0.02487   0.00000  Uiso   1.00
H613   H     0.51852   0.87573   0.08114   0.00000  Uiso   1.00
H614   H     0.48285   0.87600   0.41875   0.00000  Uiso   1.00
C615   C     0.62162   0.68654   0.26025   0.00000  Uiso   1.00
C616   C     0.37836   0.98011   0.23989   0.00000  Uiso   1.00
C617   C     0.62335   0.97734   0.26080   0.00000  Uiso   1.00
C618   C     0.37663   0.68931   0.23936   0.00000  Uiso   1.00
H619   H     0.58940   0.96011   0.26936   0.00000  Uiso   1.00
H620   H     0.41058   0.70654   0.23080   0.00000  Uiso   1.00
C621   C     0.33449   0.95717   0.25034   0.00000  Uiso   1.00
C622   C     0.66549   0.70948   0.24978   0.00000  Uiso   1.00
C623   C     0.51357   0.81134   0.28101   0.00000  Uiso   1.00
C624   C     0.48643   0.85534   0.21900   0.00000  Uiso   1.00
H625   H     0.52283   0.79346   0.30595   0.00000  Uiso   1.00
H626   H     0.47717   0.87322   0.19404   0.00000  Uiso   1.00
C627   C     0.46436   0.81131   0.28097   0.00000  Uiso   1.00
C628   C     0.53564   0.85537   0.21903   0.00000  Uiso   1.00
H629   H     0.43733   0.79339   0.30591   0.00000  Uiso   1.00
H630   H     0.56266   0.87328   0.19408   0.00000  Uiso   1.00
N631   N     0.45069   0.83334   0.24999   0.00000  Uiso   1.00
N632   N     0.54931   0.83332   0.25001   0.00000  Uiso   1.00
N633   N     0.61003   0.86406   0.04599   0.00000  Uiso   1.00
H634   H     0.59991   0.84562   0.07411   0.00000  Uiso   1.00
C635   C     0.62090   0.90555   0.05691   0.00000  Uiso   1.00
H636   H     0.65283   0.90552   0.06903   0.00000  Uiso   1.00
H637   H     0.58954   0.91829   0.08376   0.00000  Uiso   1.00
H638   H     0.62923   0.92573   0.02699   0.00000  Uiso   1.00
N639   N     0.39093   0.86434   0.45400   0.00000  Uiso   1.00
H640   H     0.40064   0.84644   0.42556   0.00000  Uiso   1.00
C641   C     0.38088   0.90598   0.44384   0.00000  Uiso   1.00
H642   H     0.34909   0.90601   0.43152   0.00000  Uiso   1.00
H643   H     0.41259   0.91940   0.41738   0.00000  Uiso   1.00
H644   H     0.37273   0.92553   0.47418   0.00000  Uiso   1.00
N645   N     0.57555   0.70571   0.27134   0.00000  Uiso   1.00
H646   H     0.55055   0.69368   0.29983   0.00000  Uiso   1.00
C647   C     0.55595   0.70772   0.23452   0.00000  Uiso   1.00
H648   H     0.54793   0.67630   0.22461   0.00000  Uiso   1.00
H649   H     0.58208   0.72351   0.20524   0.00000  Uiso   1.00
H650   H     0.52167   0.72533   0.24496   0.00000  Uiso   1.00
N651   N     0.42445   0.96095   0.22876   0.00000  Uiso   1.00
H652   H     0.44948   0.97312   0.20037   0.00000  Uiso   1.00
C653   C     0.44398   0.95873   0.26562   0.00000  Uiso   1.00
H654   H     0.45133   0.99008   0.27615   0.00000  Uiso   1.00
H655   H     0.47860   0.94166   0.25494   0.00000  Uiso   1.00
H656   H     0.41813   0.94233   0.29456   0.00000  Uiso   1.00
O657   O     0.70625   0.77322   0.25000   0.00000  Uiso   1.00
O658   O     0.96042   0.89345   0.25000   0.00000  Uiso   1.00
O659   O     0.96039   0.77321   0.25000   0.00000  Uiso   1.00
O660   O     0.70628   0.89346   0.24999   0.00000  Uiso   1.00
C661   C     0.99954   0.75420   0.25006   0.00000  Uiso   1.00
C662   C     0.66712   0.91246   0.24997   0.00000  Uiso   1.00
O663   O     0.68519   0.83334   0.31491   0.00000  Uiso   1.00
O664   O     0.98148   0.83332   0.18508   0.00000  Uiso   1.00
O665   O     0.93933   0.83333   0.31492   0.00000  Uiso   1.00
O666   O     0.72733   0.83333   0.18508   0.00000  Uiso   1.00
C667   C     0.97165   0.83414   0.33572   0.00000  Uiso   1.00
C668   C     0.69504   0.83415   0.16429   0.00000  Uiso   1.00
Cu669  Cu    0.71355   0.83334   0.25000   0.00000  Uiso   1.00
Cu670  Cu    0.95311   0.83333   0.25000   0.00000  Uiso   1.00
C671   C     0.95397   0.83811   0.38442   0.00000  Uiso   1.00
C672   C     0.71285   0.83814   0.11558   0.00000  Uiso   1.00
C673   C     0.96491   0.82947   0.45622   0.00000  Uiso   1.00
C674   C     0.70172   0.82938   0.04381   0.00000  Uiso   1.00
C675   C     0.98082   0.82309   0.41029   0.00000  Uiso   1.00
C676   C     0.68561   0.82298   0.08977   0.00000  Uiso   1.00
C677   C     0.90895   0.85613   0.40536   0.00000  Uiso   1.00
C678   C     0.75842   0.85627   0.09458   0.00000  Uiso   1.00
C679   C     0.89124   0.86051   0.45235   0.00000  Uiso   1.00
C680   C     0.77631   0.86056   0.04757   0.00000  Uiso   1.00
C681   C     0.92263   0.85140   0.47709   0.00000  Uiso   1.00
C682   C     0.74465   0.85141   0.02286   0.00000  Uiso   1.00
C683   C     0.84190   0.86838   0.47610   0.00000  Uiso   1.00
C684   C     0.82593   0.86838   0.02378   0.00000  Uiso   1.00
C685   C     0.86092   0.87036   0.04569   0.00000  Uiso   1.00
C686   C     0.80696   0.87046   0.45420   0.00000  Uiso   1.00
C687   C     0.90906   0.86188   0.02268   0.00000  Uiso   1.00
C688   C     0.75854   0.86195   0.47724   0.00000  Uiso   1.00
H689   H     0.77911   0.86653   0.11563   0.00000  Uiso   1.00
H690   H     0.88850   0.86623   0.38428   0.00000  Uiso   1.00
H691   H     0.98530   0.80616   0.10509   0.00000  Uiso   1.00
H692   H     0.68065   0.80637   0.39503   0.00000  Uiso   1.00
H693   H     0.98475   0.81541   0.47520   0.00000  Uiso   1.00
H694   H     0.68150   0.81522   0.02487   0.00000  Uiso   1.00
H695   H     0.85185   0.87573   0.08114   0.00000  Uiso   1.00
H696   H     0.81618   0.87600   0.41875   0.00000  Uiso   1.00
C697   C     0.95495   0.68654   0.26025   0.00000  Uiso   1.00
C698   C     0.71170   0.98011   0.23989   0.00000  Uiso   1.00
C699   C     0.95668   0.97734   0.26080   0.00000  Uiso   1.00
C700   C     0.70996   0.68931   0.23936   0.00000  Uiso   1.00
H701   H     0.92274   0.96011   0.26936   0.00000  Uiso   1.00
H702   H     0.74391   0.70654   0.23080   0.00000  Uiso   1.00
C703   C     0.66783   0.95717   0.25034   0.00000  Uiso   1.00
C704   C     0.99882   0.70948   0.24978   0.00000  Uiso   1.00
C705   C     0.84690   0.81134   0.28101   0.00000  Uiso   1.00
C706   C     0.81976   0.85534   0.21900   0.00000  Uiso   1.00
H707   H     0.85616   0.79346   0.30595   0.00000  Uiso   1.00
H708   H     0.81050   0.87322   0.19404   0.00000  Uiso   1.00
C709   C     0.79769   0.81131   0.28097   0.00000  Uiso   1.00
C710   C     0.86897   0.85537   0.21903   0.00000  Uiso   1.00
H711   H     0.77067   0.79339   0.30591   0.00000  Uiso   1.00
H712   H     0.89600   0.87328   0.19408   0.00000  Uiso   1.00
N713   N     0.78403   0.83334   0.24999   0.00000  Uiso   1.00
N714   N     0.88264   0.83332   0.25001   0.00000  Uiso   1.00
N715   N     0.94337   0.86406   0.04599   0.00000  Uiso   1.00
H716   H     0.93324   0.84562   0.07411   0.00000  Uiso   1.00
C717   C     0.95423   0.90555   0.05691   0.00000  Uiso   1.00
H718   H     0.98616   0.90552   0.06903   0.00000  Uiso   1.00
H719   H     0.92287   0.91829   0.08376   0.00000  Uiso   1.00
H720   H     0.96256   0.92573   0.02699   0.00000  Uiso   1.00
N721   N     0.72426   0.86434   0.45400   0.00000  Uiso   1.00
H722   H     0.73397   0.84644   0.42556   0.00000  Uiso   1.00
C723   C     0.71421   0.90598   0.44384   0.00000  Uiso   1.00
H724   H     0.68242   0.90601   0.43152   0.00000  Uiso   1.00
H725   H     0.74593   0.91940   0.41738   0.00000  Uiso   1.00
H726   H     0.70606   0.92553   0.47418   0.00000  Uiso   1.00
N727   N     0.90888   0.70571   0.27134   0.00000  Uiso   1.00
H728   H     0.88388   0.69368   0.29983   0.00000  Uiso   1.00
C729   C     0.88928   0.70772   0.23452   0.00000  Uiso   1.00
H730   H     0.88126   0.67630   0.22461   0.00000  Uiso   1.00
H731   H     0.91542   0.72351   0.20524   0.00000  Uiso   1.00
H732   H     0.85500   0.72533   0.24496   0.00000  Uiso   1.00
N733   N     0.75778   0.96095   0.22876   0.00000  Uiso   1.00
H734   H     0.78281   0.97312   0.20037   0.00000  Uiso   1.00
C735   C     0.77731   0.95873   0.26562   0.00000  Uiso   1.00
H736   H     0.78467   0.99008   0.27615   0.00000  Uiso   1.00
H737   H     0.81193   0.94166   0.25494   0.00000  Uiso   1.00
H738   H     0.75146   0.94233   0.29456   0.00000  Uiso   1.00
O739   O     0.03958   0.10655   0.75000   0.00000  Uiso   1.00
O740   O     0.29375   0.22678   0.75000   0.00000  Uiso   1.00
O741   O     0.29372   0.10654   0.75000   0.00000  Uiso   1.00
O742   O     0.03961   0.22679   0.74999   0.00000  Uiso   1.00
C743   C     0.33287   0.08754   0.75006   0.00000  Uiso   1.00
C744   C     0.00045   0.24579   0.74997   0.00000  Uiso   1.00
O745   O     0.01852   0.16668   0.81491   0.00000  Uiso   1.00
O746   O     0.31481   0.16666   0.68508   0.00000  Uiso   1.00
O747   O     0.27267   0.16667   0.81492   0.00000  Uiso   1.00
O748   O     0.06067   0.16667   0.68508   0.00000  Uiso   1.00
C749   C     0.30498   0.16747   0.83572   0.00000  Uiso   1.00
C750   C     0.02838   0.16749   0.66429   0.00000  Uiso   1.00
Cu751  Cu    0.04689   0.16667   0.75000   0.00000  Uiso   1.00
Cu752  Cu    0.28645   0.16666   0.75000   0.00000  Uiso   1.00
C753   C     0.28731   0.17145   0.88442   0.00000  Uiso   1.00
C754   C     0.04619   0.17148   0.61558   0.00000  Uiso   1.00
C755   C     0.29824   0.16281   0.95622   0.00000  Uiso   1.00
C756   C     0.03505   0.16271   0.54381   0.00000  Uiso   1.00
C757   C     0.31415   0.15642   0.91029   0.00000  Uiso   1.00
C758   C     0.01894   0.15631   0.58977   0.00000  Uiso   1.00
C759   C     0.24228   0.18946   0.90536   0.00000  Uiso   1.00
C760   C     0.09175   0.18961   0.59458   0.00000  Uiso   1.00
C761   C     0.22458   0.19384   0.95235   0.00000  Uiso   1.00
C762   C     0.10964   0.19390   0.54757   0.00000  Uiso   1.00
C763   C     0.25596   0.18473   0.97709   0.00000  Uiso   1.00
C764   C     0.07798   0.18474   0.52286   0.00000  Uiso   1.00
C765   C     0.17523   0.20171   0.97610   0.00000  Uiso   1.00
C766   C     0.15926   0.20172   0.52378   0.00000  Uiso   1.00
C767   C     0.19425   0.20370   0.54569   0.00000  Uiso   1.00
C768   C     0.14029   0.20379   0.95420   0.00000  Uiso   1.00
C769   C     0.24240   0.19522   0.52268   0.00000  Uiso   1.00
C770   C     0.09187   0.19528   0.97724   0.00000  Uiso   1.00
H771   H     0.11244   0.19987   0.61563   0.00000  Uiso   1.00
H772   H     0.22183   0.19956   0.88428   0.00000  Uiso   1.00
H773   H     0.31863   0.13949   0.60509   0.00000  Uiso   1.00
H774   H     0.01399   0.13971   0.89503   0.00000  Uiso   1.00
H775   H     0.31808   0.14874   0.97520   0.00000  Uiso   1.00
H776   H     0.01484   0.14856   0.52487   0.00000  Uiso   1.00
H777   H     0.18519   0.20907   0.58114   0.00000  Uiso   1.00
H778   H     0.14952   0.20933   0.91875   0.00000  Uiso   1.00
C779   C     0.28829   0.01988   0.76025   0.00000  Uiso   1.00
C780   C     0.04503   0.31344   0.73989   0.00000  Uiso   1.00
C781   C     0.29002   0.31067   0.76080   0.00000  Uiso   1.00
C782   C     0.04329   0.02265   0.73936   0.00000  Uiso   1.00
H783   H     0.25607   0.29344   0.76936   0.00000  Uiso   1.00
H784   H     0.07724   0.03988   0.73080   0.00000  Uiso   1.00
C785   C     0.00116   0.29050   0.75034   0.00000  Uiso   1.00
C786   C     0.33215   0.04282   0.74978   0.00000  Uiso   1.00
C787   C     0.18023   0.14467   0.78101   0.00000  Uiso   1.00
C788   C     0.15310   0.18868   0.71900   0.00000  Uiso   1.00
H789   H     0.18950   0.12679   0.80595   0.00000  Uiso   1.00
H790   H     0.14384   0.20656   0.69404   0.00000  Uiso   1.00
C791   C     0.13103   0.14464   0.78097   0.00000  Uiso   1.00
C792   C     0.20231   0.18870   0.71903   0.00000  Uiso   1.00
H793   H     0.10400   0.12673   0.80591   0.00000  Uiso   1.00
H794   H     0.22933   0.20661   0.69408   0.00000  Uiso   1.00
N795   N     0.11736   0.16668   0.74999   0.00000  Uiso   1.00
N796   N     0.21597   0.16666   0.75001   0.00000  Uiso   1.00
N797   N     0.27670   0.19739   0.54599   0.00000  Uiso   1.00
H798   H     0.26657   0.17896   0.57411   0.00000  Uiso   1.00
C799   C     0.28756   0.23888   0.55691   0.00000  Uiso   1.00
H800   H     0.31949   0.23885   0.56903   0.00000  Uiso   1.00
H801   H     0.25620   0.25163   0.58376   0.00000  Uiso   1.00
H802   H     0.29589   0.25907   0.52699   0.00000  Uiso   1.00
N803   N     0.05759   0.19768   0.95400   0.00000  Uiso   1.00
H804   H     0.06731   0.17978   0.92556   0.00000  Uiso   1.00
C805   C     0.04755   0.23931   0.94384   0.00000  Uiso   1.00
H806   H     0.01575   0.23934   0.93152   0.00000  Uiso   1.00
H807   H     0.07926   0.25274   0.91738   0.00000  Uiso   1.00
H808   H     0.03939   0.25886   0.97418   0.00000  Uiso   1.00
N809   N     0.24222   0.03905   0.77134   0.00000  Uiso   1.00
H810   H     0.21721   0.02701   0.79983   0.00000  Uiso   1.00
C811   C     0.22261   0.04106   0.73452   0.00000  Uiso   1.00
H812   H     0.21459   0.00964   0.72461   0.00000  Uiso   1.00
H813   H     0.24875   0.05685   0.70524   0.00000  Uiso   1.00
H814   H     0.18833   0.05866   0.74496   0.00000  Uiso   1.00
N815   N     0.09111   0.29428   0.72876   0.00000  Uiso   1.00
H816   H     0.11615   0.30645   0.70037   0.00000  Uiso   1.00
C817   C     0.11064   0.29207   0.76562   0.00000  Uiso   1.00
H818   H     0.11800   0.32342   0.77615   0.00000  Uiso   1.00
H819   H     0.14526   0.27499   0.75494   0.00000  Uiso   1.00
H820   H     0.08479   0.27566   0.79456   0.00000  Uiso   1.00
O821   O     0.37291   0.10655   0.75000   0.00000  Uiso   1.00
O822   O     0.62709   0.22678   0.75000   0.00000  Uiso   1.00
O823   O     0.62706   0.10654   0.75000   0.00000  Uiso   1.00
O824   O     0.37294   0.22679   0.74999   0.00000  Uiso   1.00
C825   C     0.66621   0.08754   0.75006   0.00000  Uiso   1.00
C826   C     0.33379   0.24579   0.74997   0.00000  Uiso   1.00
O827   O     0.35186   0.16668   0.81491   0.00000  Uiso   1.00
O828   O     0.64814   0.16666   0.68508   0.00000  Uiso   1.00
O829   O     0.60600   0.16667   0.81492   0.00000  Uiso   1.00
O830   O     0.39400   0.16667   0.68508   0.00000  Uiso   1.00
C831   C     0.63832   0.16747   0.83572   0.00000  Uiso   1.00
C832   C     0.36171   0.16749   0.66429   0.00000  Uiso   1.00
Cu833  Cu    0.38022   0.16667   0.75000   0.00000  Uiso   1.00
Cu834  Cu    0.61978   0.16666   0.75000   0.00000  Uiso   1.00
C835   C     0.62064   0.17145   0.88442   0.00000  Uiso   1.00
C836   C     0.37952   0.17148   0.61558   0.00000  Uiso   1.00
C837   C     0.63157   0.16281   0.95622   0.00000  Uiso   1.00
C838   C     0.36839   0.16271   0.54381   0.00000  Uiso   1.00
C839   C     0.64748   0.15642   0.91029   0.00000  Uiso   1.00
C840   C     0.35228   0.15631   0.58977   0.00000  Uiso   1.00
C841   C     0.57561   0.18946   0.90536   0.00000  Uiso   1.00
C842   C     0.42508   0.18961   0.59458   0.00000  Uiso   1.00
C843   C     0.55791   0.19384   0.95235   0.00000  Uiso   1.00
C844   C     0.44298   0.19390   0.54757   0.00000  Uiso   1.00
C845   C     0.58930   0.18473   0.97709   0.00000  Uiso   1.00
C846   C     0.41132   0.18474   0.52286   0.00000  Uiso   1.00
C847   C     0.50856   0.20171   0.97610   0.00000  Uiso   1.00
C848   C     0.49260   0.20172   0.52378   0.00000  Uiso   1.00
C849   C     0.52759   0.20370   0.54569   0.00000  Uiso   1.00
C850   C     0.47363   0.20379   0.95420   0.00000  Uiso   1.00
C851   C     0.57573   0.19522   0.52268   0.00000  Uiso   1.00
C852   C     0.42521   0.19528   0.97724   0.00000  Uiso   1.00
H853   H     0.44577   0.19987   0.61563   0.00000  Uiso   1.00
H854   H     0.55517   0.19956   0.88428   0.00000  Uiso   1.00
H855   H     0.65197   0.13949   0.60509   0.00000  Uiso   1.00
H856   H     0.34732   0.13971   0.89503   0.00000  Uiso   1.00
H857   H     0.65141   0.14874   0.97520   0.00000  Uiso   1.00
H858   H     0.34817   0.14856   0.52487   0.00000  Uiso   1.00
H859   H     0.51852   0.20907   0.58114   0.00000  Uiso   1.00
H860   H     0.48285   0.20933   0.91875   0.00000  Uiso   1.00
C861   C     0.62162   0.01988   0.76025   0.00000  Uiso   1.00
C862   C     0.37836   0.31344   0.73989   0.00000  Uiso   1.00
C863   C     0.62335   0.31067   0.76080   0.00000  Uiso   1.00
C864   C     0.37663   0.02265   0.73936   0.00000  Uiso   1.00
H865   H     0.58940   0.29344   0.76936   0.00000  Uiso   1.00
H866   H     0.41058   0.03988   0.73080   0.00000  Uiso   1.00
C867   C     0.33449   0.29050   0.75034   0.00000  Uiso   1.00
C868   C     0.66549   0.04282   0.74978   0.00000  Uiso   1.00
C869   C     0.51357   0.14467   0.78101   0.00000  Uiso   1.00
C870   C     0.48643   0.18868   0.71900   0.00000  Uiso   1.00
H871   H     0.52283   0.12679   0.80595   0.00000  Uiso   1.00
H872   H     0.47717   0.20656   0.69404   0.00000  Uiso   1.00
C873   C     0.46436   0.14464   0.78097   0.00000  Uiso   1.00
C874   C     0.53564   0.18870   0.71903   0.00000  Uiso   1.00
H875   H     0.43733   0.12673   0.80591   0.00000  Uiso   1.00
H876   H     0.56266   0.20661   0.69408   0.00000  Uiso   1.00
N877   N     0.45069   0.16668   0.74999   0.00000  Uiso   1.00
N878   N     0.54931   0.16666   0.75001   0.00000  Uiso   1.00
N879   N     0.61003   0.19739   0.54599   0.00000  Uiso   1.00
H880   H     0.59991   0.17896   0.57411   0.00000  Uiso   1.00
C881   C     0.62090   0.23888   0.55691   0.00000  Uiso   1.00
H882   H     0.65283   0.23885   0.56903   0.00000  Uiso   1.00
H883   H     0.58954   0.25163   0.58376   0.00000  Uiso   1.00
H884   H     0.62923   0.25907   0.52699   0.00000  Uiso   1.00
N885   N     0.39093   0.19768   0.95400   0.00000  Uiso   1.00
H886   H     0.40064   0.17978   0.92556   0.00000  Uiso   1.00
C887   C     0.38088   0.23931   0.94384   0.00000  Uiso   1.00
H888   H     0.34909   0.23934   0.93152   0.00000  Uiso   1.00
H889   H     0.41259   0.25274   0.91738   0.00000  Uiso   1.00
H890   H     0.37273   0.25886   0.97418   0.00000  Uiso   1.00
N891   N     0.57555   0.03905   0.77134   0.00000  Uiso   1.00
H892   H     0.55055   0.02701   0.79983   0.00000  Uiso   1.00
C893   C     0.55595   0.04106   0.73452   0.00000  Uiso   1.00
H894   H     0.54793   0.00964   0.72461   0.00000  Uiso   1.00
H895   H     0.58208   0.05685   0.70524   0.00000  Uiso   1.00
H896   H     0.52167   0.05866   0.74496   0.00000  Uiso   1.00
N897   N     0.42445   0.29428   0.72876   0.00000  Uiso   1.00
H898   H     0.44948   0.30645   0.70037   0.00000  Uiso   1.00
C899   C     0.44398   0.29207   0.76562   0.00000  Uiso   1.00
H900   H     0.45133   0.32342   0.77615   0.00000  Uiso   1.00
H901   H     0.47860   0.27499   0.75494   0.00000  Uiso   1.00
H902   H     0.41813   0.27566   0.79456   0.00000  Uiso   1.00
O903   O     0.70625   0.10655   0.75000   0.00000  Uiso   1.00
O904   O     0.96042   0.22678   0.75000   0.00000  Uiso   1.00
O905   O     0.96039   0.10654   0.75000   0.00000  Uiso   1.00
O906   O     0.70628   0.22679   0.74999   0.00000  Uiso   1.00
C907   C     0.99954   0.08754   0.75006   0.00000  Uiso   1.00
C908   C     0.66712   0.24579   0.74997   0.00000  Uiso   1.00
O909   O     0.68519   0.16668   0.81491   0.00000  Uiso   1.00
O910   O     0.98148   0.16666   0.68508   0.00000  Uiso   1.00
O911   O     0.93933   0.16667   0.81492   0.00000  Uiso   1.00
O912   O     0.72733   0.16667   0.68508   0.00000  Uiso   1.00
C913   C     0.97165   0.16747   0.83572   0.00000  Uiso   1.00
C914   C     0.69504   0.16749   0.66429   0.00000  Uiso   1.00
Cu915  Cu    0.71355   0.16667   0.75000   0.00000  Uiso   1.00
Cu916  Cu    0.95311   0.16666   0.75000   0.00000  Uiso   1.00
C917   C     0.95397   0.17145   0.88442   0.00000  Uiso   1.00
C918   C     0.71285   0.17148   0.61558   0.00000  Uiso   1.00
C919   C     0.96491   0.16281   0.95622   0.00000  Uiso   1.00
C920   C     0.70172   0.16271   0.54381   0.00000  Uiso   1.00
C921   C     0.98082   0.15642   0.91029   0.00000  Uiso   1.00
C922   C     0.68561   0.15631   0.58977   0.00000  Uiso   1.00
C923   C     0.90895   0.18946   0.90536   0.00000  Uiso   1.00
C924   C     0.75842   0.18961   0.59458   0.00000  Uiso   1.00
C925   C     0.89124   0.19384   0.95235   0.00000  Uiso   1.00
C926   C     0.77631   0.19390   0.54757   0.00000  Uiso   1.00
C927   C     0.92263   0.18473   0.97709   0.00000  Uiso   1.00
C928   C     0.74465   0.18474   0.52286   0.00000  Uiso   1.00
C929   C     0.84190   0.20171   0.97610   0.00000  Uiso   1.00
C930   C     0.82593   0.20172   0.52378   0.00000  Uiso   1.00
C931   C     0.86092   0.20370   0.54569   0.00000  Uiso   1.00
C932   C     0.80696   0.20379   0.95420   0.00000  Uiso   1.00
C933   C     0.90906   0.19522   0.52268   0.00000  Uiso   1.00
C934   C     0.75854   0.19528   0.97724   0.00000  Uiso   1.00
H935   H     0.77911   0.19987   0.61563   0.00000  Uiso   1.00
H936   H     0.88850   0.19956   0.88428   0.00000  Uiso   1.00
H937   H     0.98530   0.13949   0.60509   0.00000  Uiso   1.00
H938   H     0.68065   0.13971   0.89503   0.00000  Uiso   1.00
H939   H     0.98475   0.14874   0.97520   0.00000  Uiso   1.00
H940   H     0.68150   0.14856   0.52487   0.00000  Uiso   1.00
H941   H     0.85185   0.20907   0.58114   0.00000  Uiso   1.00
H942   H     0.81618   0.20933   0.91875   0.00000  Uiso   1.00
C943   C     0.95495   0.01988   0.76025   0.00000  Uiso   1.00
C944   C     0.71170   0.31344   0.73989   0.00000  Uiso   1.00
C945   C     0.95668   0.31067   0.76080   0.00000  Uiso   1.00
C946   C     0.70996   0.02265   0.73936   0.00000  Uiso   1.00
H947   H     0.92274   0.29344   0.76936   0.00000  Uiso   1.00
H948   H     0.74391   0.03988   0.73080   0.00000  Uiso   1.00
C949   C     0.66783   0.29050   0.75034   0.00000  Uiso   1.00
C950   C     0.99882   0.04282   0.74978   0.00000  Uiso   1.00
C951   C     0.84690   0.14467   0.78101   0.00000  Uiso   1.00
C952   C     0.81976   0.18868   0.71900   0.00000  Uiso   1.00
H953   H     0.85616   0.12679   0.80595   0.00000  Uiso   1.00
H954   H     0.81050   0.20656   0.69404   0.00000  Uiso   1.00
C955   C     0.79769   0.14464   0.78097   0.00000  Uiso   1.00
C956   C     0.86897   0.18870   0.71903   0.00000  Uiso   1.00
H957   H     0.77067   0.12673   0.80591   0.00000  Uiso   1.00
H958   H     0.89600   0.20661   0.69408   0.00000  Uiso   1.00
N959   N     0.78403   0.16668   0.74999   0.00000  Uiso   1.00
N960   N     0.88264   0.16666   0.75001   0.00000  Uiso   1.00
N961   N     0.94337   0.19739   0.54599   0.00000  Uiso   1.00
H962   H     0.93324   0.17896   0.57411   0.00000  Uiso   1.00
C963   C     0.95423   0.23888   0.55691   0.00000  Uiso   1.00
H964   H     0.98616   0.23885   0.56903   0.00000  Uiso   1.00
H965   H     0.92287   0.25163   0.58376   0.00000  Uiso   1.00
H966   H     0.96256   0.25907   0.52699   0.00000  Uiso   1.00
N967   N     0.72426   0.19768   0.95400   0.00000  Uiso   1.00
H968   H     0.73397   0.17978   0.92556   0.00000  Uiso   1.00
C969   C     0.71421   0.23931   0.94384   0.00000  Uiso   1.00
H970   H     0.68242   0.23934   0.93152   0.00000  Uiso   1.00
H971   H     0.74593   0.25274   0.91738   0.00000  Uiso   1.00
H972   H     0.70606   0.25886   0.97418   0.00000  Uiso   1.00
N973   N     0.90888   0.03905   0.77134   0.00000  Uiso   1.00
H974   H     0.88388   0.02701   0.79983   0.00000  Uiso   1.00
C975   C     0.88928   0.04106   0.73452   0.00000  Uiso   1.00
H976   H     0.88126   0.00964   0.72461   0.00000  Uiso   1.00
H977   H     0.91542   0.05685   0.70524   0.00000  Uiso   1.00
H978   H     0.85500   0.05866   0.74496   0.00000  Uiso   1.00
N979   N     0.75778   0.29428   0.72876   0.00000  Uiso   1.00
H980   H     0.78281   0.30645   0.70037   0.00000  Uiso   1.00
C981   C     0.77731   0.29207   0.76562   0.00000  Uiso   1.00
H982   H     0.78467   0.32342   0.77615   0.00000  Uiso   1.00
H983   H     0.81193   0.27499   0.75494   0.00000  Uiso   1.00
H984   H     0.75146   0.27566   0.79456   0.00000  Uiso   1.00
O985   O     0.03958   0.43989   0.75000   0.00000  Uiso   1.00
O986   O     0.29375   0.56011   0.75000   0.00000  Uiso   1.00
O987   O     0.29372   0.43988   0.75000   0.00000  Uiso   1.00
O988   O     0.03961   0.56012   0.74999   0.00000  Uiso   1.00
C989   C     0.33287   0.42087   0.75006   0.00000  Uiso   1.00
C990   C     0.00045   0.57913   0.74997   0.00000  Uiso   1.00
O991   O     0.01852   0.50001   0.81491   0.00000  Uiso   1.00
O992   O     0.31481   0.49999   0.68508   0.00000  Uiso   1.00
O993   O     0.27267   0.50000   0.81492   0.00000  Uiso   1.00
O994   O     0.06067   0.50000   0.68508   0.00000  Uiso   1.00
C995   C     0.30498   0.50080   0.83572   0.00000  Uiso   1.00
C996   C     0.02838   0.50082   0.66429   0.00000  Uiso   1.00
Cu997  Cu    0.04689   0.50001   0.75000   0.00000  Uiso   1.00
Cu998  Cu    0.28645   0.49999   0.75000   0.00000  Uiso   1.00
C999   C     0.28731   0.50478   0.88442   0.00000  Uiso   1.00
C1000  C     0.04619   0.50481   0.61558   0.00000  Uiso   1.00
C1001  C     0.29824   0.49614   0.95622   0.00000  Uiso   1.00
C1002  C     0.03505   0.49605   0.54381   0.00000  Uiso   1.00
C1003  C     0.31415   0.48976   0.91029   0.00000  Uiso   1.00
C1004  C     0.01894   0.48964   0.58977   0.00000  Uiso   1.00
C1005  C     0.24228   0.52280   0.90536   0.00000  Uiso   1.00
C1006  C     0.09175   0.52294   0.59458   0.00000  Uiso   1.00
C1007  C     0.22458   0.52717   0.95235   0.00000  Uiso   1.00
C1008  C     0.10964   0.52723   0.54757   0.00000  Uiso   1.00
C1009  C     0.25596   0.51806   0.97709   0.00000  Uiso   1.00
C1010  C     0.07798   0.51807   0.52286   0.00000  Uiso   1.00
C1011  C     0.17523   0.53505   0.97610   0.00000  Uiso   1.00
C1012  C     0.15926   0.53505   0.52378   0.00000  Uiso   1.00
C1013  C     0.19425   0.53703   0.54569   0.00000  Uiso   1.00
C1014  C     0.14029   0.53713   0.95420   0.00000  Uiso   1.00
C1015  C     0.24240   0.52855   0.52268   0.00000  Uiso   1.00
C1016  C     0.09187   0.52861   0.97724   0.00000  Uiso   1.00
H1017  H     0.11244   0.53320   0.61563   0.00000  Uiso   1.00
H1018  H     0.22183   0.53290   0.88428   0.00000  Uiso   1.00
H1019  H     0.31863   0.47282   0.60509   0.00000  Uiso   1.00
H1020  H     0.01399   0.47304   0.89503   0.00000  Uiso   1.00
H1021  H     0.31808   0.48208   0.97520   0.00000  Uiso   1.00
H1022  H     0.01484   0.48189   0.52487   0.00000  Uiso   1.00
H1023  H     0.18519   0.54240   0.58114   0.00000  Uiso   1.00
H1024  H     0.14952   0.54266   0.91875   0.00000  Uiso   1.00
C1025  C     0.28829   0.35321   0.76025   0.00000  Uiso   1.00
C1026  C     0.04503   0.64677   0.73989   0.00000  Uiso   1.00
C1027  C     0.29002   0.64400   0.76080   0.00000  Uiso   1.00
C1028  C     0.04329   0.35598   0.73936   0.00000  Uiso   1.00
H1029  H     0.25607   0.62677   0.76936   0.00000  Uiso   1.00
H1030  H     0.07724   0.37321   0.73080   0.00000  Uiso   1.00
C1031  C     0.00116   0.62383   0.75034   0.00000  Uiso   1.00
C1032  C     0.33215   0.37615   0.74978   0.00000  Uiso   1.00
C1033  C     0.18023   0.47800   0.78101   0.00000  Uiso   1.00
C1034  C     0.15310   0.52201   0.71900   0.00000  Uiso   1.00
H1035  H     0.18950   0.46012   0.80595   0.00000  Uiso   1.00
H1036  H     0.14384   0.53989   0.69404   0.00000  Uiso   1.00
C1037  C     0.13103   0.47797   0.78097   0.00000  Uiso   1.00
C1038  C     0.20231   0.52204   0.71903   0.00000  Uiso   1.00
H1039  H     0.10400   0.46006   0.80591   0.00000  Uiso   1.00
H1040  H     0.22933   0.53995   0.69408   0.00000  Uiso   1.00
N1041  N     0.11736   0.50001   0.74999   0.00000  Uiso   1.00
N1042  N     0.21597   0.49999   0.75001   0.00000  Uiso   1.00
N1043  N     0.27670   0.53072   0.54599   0.00000  Uiso   1.00
H1044  H     0.26657   0.51229   0.57411   0.00000  Uiso   1.00
C1045  C     0.28756   0.57222   0.55691   0.00000  Uiso   1.00
H1046  H     0.31949   0.57218   0.56903   0.00000  Uiso   1.00
H1047  H     0.25620   0.58496   0.58376   0.00000  Uiso   1.00
H1048  H     0.29589   0.59240   0.52699   0.00000  Uiso   1.00
N1049  N     0.05759   0.53101   0.95400   0.00000  Uiso   1.00
H1050  H     0.06731   0.51311   0.92556   0.00000  Uiso   1.00
C1051  C     0.04755   0.57265   0.94384   0.00000  Uiso   1.00
H1052  H     0.01575   0.57267   0.93152   0.00000  Uiso   1.00
H1053  H     0.07926   0.58607   0.91738   0.00000  Uiso   1.00
H1054  H     0.03939   0.59220   0.97418   0.00000  Uiso   1.00
N1055  N     0.24222   0.37238   0.77134   0.00000  Uiso   1.00
H1056  H     0.21721   0.36034   0.79983   0.00000  Uiso   1.00
C1057  C     0.22261   0.37439   0.73452   0.00000  Uiso   1.00
H1058  H     0.21459   0.34297   0.72461   0.00000  Uiso   1.00
H1059  H     0.24875   0.39018   0.70524   0.00000  Uiso   1.00
H1060  H     0.18833   0.39199   0.74496   0.00000  Uiso   1.00
N1061  N     0.09111   0.62762   0.72876   0.00000  Uiso   1.00
H1062  H     0.11615   0.63978   0.70037   0.00000  Uiso   1.00
C1063  C     0.11064   0.62540   0.76562   0.00000  Uiso   1.00
H1064  H     0.11800   0.65675   0.77615   0.00000  Uiso   1.00
H1065  H     0.14526   0.60833   0.75494   0.00000  Uiso   1.00
H1066  H     0.08479   0.60900   0.79456   0.00000  Uiso   1.00
O1067  O     0.37291   0.43989   0.75000   0.00000  Uiso   1.00
O1068  O     0.62709   0.56011   0.75000   0.00000  Uiso   1.00
O1069  O     0.62706   0.43988   0.75000   0.00000  Uiso   1.00
O1070  O     0.37294   0.56012   0.74999   0.00000  Uiso   1.00
C1071  C     0.66621   0.42087   0.75006   0.00000  Uiso   1.00
C1072  C     0.33379   0.57913   0.74997   0.00000  Uiso   1.00
O1073  O     0.35186   0.50001   0.81491   0.00000  Uiso   1.00
O1074  O     0.64814   0.49999   0.68508   0.00000  Uiso   1.00
O1075  O     0.60600   0.50000   0.81492   0.00000  Uiso   1.00
O1076  O     0.39400   0.50000   0.68508   0.00000  Uiso   1.00
C1077  C     0.63832   0.50080   0.83572   0.00000  Uiso   1.00
C1078  C     0.36171   0.50082   0.66429   0.00000  Uiso   1.00
Cu1079 Cu    0.38022   0.50001   0.75000   0.00000  Uiso   1.00
Cu1080 Cu    0.61978   0.49999   0.75000   0.00000  Uiso   1.00
C1081  C     0.62064   0.50478   0.88442   0.00000  Uiso   1.00
C1082  C     0.37952   0.50481   0.61558   0.00000  Uiso   1.00
C1083  C     0.63157   0.49614   0.95622   0.00000  Uiso   1.00
C1084  C     0.36839   0.49605   0.54381   0.00000  Uiso   1.00
C1085  C     0.64748   0.48976   0.91029   0.00000  Uiso   1.00
C1086  C     0.35228   0.48964   0.58977   0.00000  Uiso   1.00
C1087  C     0.57561   0.52280   0.90536   0.00000  Uiso   1.00
C1088  C     0.42508   0.52294   0.59458   0.00000  Uiso   1.00
C1089  C     0.55791   0.52717   0.95235   0.00000  Uiso   1.00
C1090  C     0.44298   0.52723   0.54757   0.00000  Uiso   1.00
C1091  C     0.58930   0.51806   0.97709   0.00000  Uiso   1.00
C1092  C     0.41132   0.51807   0.52286   0.00000  Uiso   1.00
C1093  C     0.50856   0.53505   0.97610   0.00000  Uiso   1.00
C1094  C     0.49260   0.53505   0.52378   0.00000  Uiso   1.00
C1095  C     0.52759   0.53703   0.54569   0.00000  Uiso   1.00
C1096  C     0.47363   0.53713   0.95420   0.00000  Uiso   1.00
C1097  C     0.57573   0.52855   0.52268   0.00000  Uiso   1.00
C1098  C     0.42521   0.52861   0.97724   0.00000  Uiso   1.00
H1099  H     0.44577   0.53320   0.61563   0.00000  Uiso   1.00
H1100  H     0.55517   0.53290   0.88428   0.00000  Uiso   1.00
H1101  H     0.65197   0.47282   0.60509   0.00000  Uiso   1.00
H1102  H     0.34732   0.47304   0.89503   0.00000  Uiso   1.00
H1103  H     0.65141   0.48208   0.97520   0.00000  Uiso   1.00
H1104  H     0.34817   0.48189   0.52487   0.00000  Uiso   1.00
H1105  H     0.51852   0.54240   0.58114   0.00000  Uiso   1.00
H1106  H     0.48285   0.54266   0.91875   0.00000  Uiso   1.00
C1107  C     0.62162   0.35321   0.76025   0.00000  Uiso   1.00
C1108  C     0.37836   0.64677   0.73989   0.00000  Uiso   1.00
C1109  C     0.62335   0.64400   0.76080   0.00000  Uiso   1.00
C1110  C     0.37663   0.35598   0.73936   0.00000  Uiso   1.00
H1111  H     0.58940   0.62677   0.76936   0.00000  Uiso   1.00
H1112  H     0.41058   0.37321   0.73080   0.00000  Uiso   1.00
C1113  C     0.33449   0.62383   0.75034   0.00000  Uiso   1.00
C1114  C     0.66549   0.37615   0.74978   0.00000  Uiso   1.00
C1115  C     0.51357   0.47800   0.78101   0.00000  Uiso   1.00
C1116  C     0.48643   0.52201   0.71900   0.00000  Uiso   1.00
H1117  H     0.52283   0.46012   0.80595   0.00000  Uiso   1.00
H1118  H     0.47717   0.53989   0.69404   0.00000  Uiso   1.00
C1119  C     0.46436   0.47797   0.78097   0.00000  Uiso   1.00
C1120  C     0.53564   0.52204   0.71903   0.00000  Uiso   1.00
H1121  H     0.43733   0.46006   0.80591   0.00000  Uiso   1.00
H1122  H     0.56266   0.53995   0.69408   0.00000  Uiso   1.00
N1123  N     0.45069   0.50001   0.74999   0.00000  Uiso   1.00
N1124  N     0.54931   0.49999   0.75001   0.00000  Uiso   1.00
N1125  N     0.61003   0.53072   0.54599   0.00000  Uiso   1.00
H1126  H     0.59991   0.51229   0.57411   0.00000  Uiso   1.00
C1127  C     0.62090   0.57222   0.55691   0.00000  Uiso   1.00
H1128  H     0.65283   0.57218   0.56903   0.00000  Uiso   1.00
H1129  H     0.58954   0.58496   0.58376   0.00000  Uiso   1.00
H1130  H     0.62923   0.59240   0.52699   0.00000  Uiso   1.00
N1131  N     0.39093   0.53101   0.95400   0.00000  Uiso   1.00
H1132  H     0.40064   0.51311   0.92556   0.00000  Uiso   1.00
C1133  C     0.38088   0.57265   0.94384   0.00000  Uiso   1.00
H1134  H     0.34909   0.57267   0.93152   0.00000  Uiso   1.00
H1135  H     0.41259   0.58607   0.91738   0.00000  Uiso   1.00
H1136  H     0.37273   0.59220   0.97418   0.00000  Uiso   1.00
N1137  N     0.57555   0.37238   0.77134   0.00000  Uiso   1.00
H1138  H     0.55055   0.36034   0.79983   0.00000  Uiso   1.00
C1139  C     0.55595   0.37439   0.73452   0.00000  Uiso   1.00
H1140  H     0.54793   0.34297   0.72461   0.00000  Uiso   1.00
H1141  H     0.58208   0.39018   0.70524   0.00000  Uiso   1.00
H1142  H     0.52167   0.39199   0.74496   0.00000  Uiso   1.00
N1143  N     0.42445   0.62762   0.72876   0.00000  Uiso   1.00
H1144  H     0.44948   0.63978   0.70037   0.00000  Uiso   1.00
C1145  C     0.44398   0.62540   0.76562   0.00000  Uiso   1.00
H1146  H     0.45133   0.65675   0.77615   0.00000  Uiso   1.00
H1147  H     0.47860   0.60833   0.75494   0.00000  Uiso   1.00
H1148  H     0.41813   0.60900   0.79456   0.00000  Uiso   1.00
O1149  O     0.70625   0.43989   0.75000   0.00000  Uiso   1.00
O1150  O     0.96042   0.56011   0.75000   0.00000  Uiso   1.00
O1151  O     0.96039   0.43988   0.75000   0.00000  Uiso   1.00
O1152  O     0.70628   0.56012   0.74999   0.00000  Uiso   1.00
C1153  C     0.99954   0.42087   0.75006   0.00000  Uiso   1.00
C1154  C     0.66712   0.57913   0.74997   0.00000  Uiso   1.00
O1155  O     0.68519   0.50001   0.81491   0.00000  Uiso   1.00
O1156  O     0.98148   0.49999   0.68508   0.00000  Uiso   1.00
O1157  O     0.93933   0.50000   0.81492   0.00000  Uiso   1.00
O1158  O     0.72733   0.50000   0.68508   0.00000  Uiso   1.00
C1159  C     0.97165   0.50080   0.83572   0.00000  Uiso   1.00
C1160  C     0.69504   0.50082   0.66429   0.00000  Uiso   1.00
Cu1161 Cu    0.71355   0.50001   0.75000   0.00000  Uiso   1.00
Cu1162 Cu    0.95311   0.49999   0.75000   0.00000  Uiso   1.00
C1163  C     0.95397   0.50478   0.88442   0.00000  Uiso   1.00
C1164  C     0.71285   0.50481   0.61558   0.00000  Uiso   1.00
C1165  C     0.96491   0.49614   0.95622   0.00000  Uiso   1.00
C1166  C     0.70172   0.49605   0.54381   0.00000  Uiso   1.00
C1167  C     0.98082   0.48976   0.91029   0.00000  Uiso   1.00
C1168  C     0.68561   0.48964   0.58977   0.00000  Uiso   1.00
C1169  C     0.90895   0.52280   0.90536   0.00000  Uiso   1.00
C1170  C     0.75842   0.52294   0.59458   0.00000  Uiso   1.00
C1171  C     0.89124   0.52717   0.95235   0.00000  Uiso   1.00
C1172  C     0.77631   0.52723   0.54757   0.00000  Uiso   1.00
C1173  C     0.92263   0.51806   0.97709   0.00000  Uiso   1.00
C1174  C     0.74465   0.51807   0.52286   0.00000  Uiso   1.00
C1175  C     0.84190   0.53505   0.97610   0.00000  Uiso   1.00
C1176  C     0.82593   0.53505   0.52378   0.00000  Uiso   1.00
C1177  C     0.86092   0.53703   0.54569   0.00000  Uiso   1.00
C1178  C     0.80696   0.53713   0.95420   0.00000  Uiso   1.00
C1179  C     0.90906   0.52855   0.52268   0.00000  Uiso   1.00
C1180  C     0.75854   0.52861   0.97724   0.00000  Uiso   1.00
H1181  H     0.77911   0.53320   0.61563   0.00000  Uiso   1.00
H1182  H     0.88850   0.53290   0.88428   0.00000  Uiso   1.00
H1183  H     0.98530   0.47282   0.60509   0.00000  Uiso   1.00
H1184  H     0.68065   0.47304   0.89503   0.00000  Uiso   1.00
H1185  H     0.98475   0.48208   0.97520   0.00000  Uiso   1.00
H1186  H     0.68150   0.48189   0.52487   0.00000  Uiso   1.00
H1187  H     0.85185   0.54240   0.58114   0.00000  Uiso   1.00
H1188  H     0.81618   0.54266   0.91875   0.00000  Uiso   1.00
C1189  C     0.95495   0.35321   0.76025   0.00000  Uiso   1.00
C1190  C     0.71170   0.64677   0.73989   0.00000  Uiso   1.00
C1191  C     0.95668   0.64400   0.76080   0.00000  Uiso   1.00
C1192  C     0.70996   0.35598   0.73936   0.00000  Uiso   1.00
H1193  H     0.92274   0.62677   0.76936   0.00000  Uiso   1.00
H1194  H     0.74391   0.37321   0.73080   0.00000  Uiso   1.00
C1195  C     0.66783   0.62383   0.75034   0.00000  Uiso   1.00
C1196  C     0.99882   0.37615   0.74978   0.00000  Uiso   1.00
C1197  C     0.84690   0.47800   0.78101   0.00000  Uiso   1.00
C1198  C     0.81976   0.52201   0.71900   0.00000  Uiso   1.00
H1199  H     0.85616   0.46012   0.80595   0.00000  Uiso   1.00
H1200  H     0.81050   0.53989   0.69404   0.00000  Uiso   1.00
C1201  C     0.79769   0.47797   0.78097   0.00000  Uiso   1.00
C1202  C     0.86897   0.52204   0.71903   0.00000  Uiso   1.00
H1203  H     0.77067   0.46006   0.80591   0.00000  Uiso   1.00
H1204  H     0.89600   0.53995   0.69408   0.00000  Uiso   1.00
N1205  N     0.78403   0.50001   0.74999   0.00000  Uiso   1.00
N1206  N     0.88264   0.49999   0.75001   0.00000  Uiso   1.00
N1207  N     0.94337   0.53072   0.54599   0.00000  Uiso   1.00
H1208  H     0.93324   0.51229   0.57411   0.00000  Uiso   1.00
C1209  C     0.95423   0.57222   0.55691   0.00000  Uiso   1.00
H1210  H     0.98616   0.57218   0.56903   0.00000  Uiso   1.00
H1211  H     0.92287   0.58496   0.58376   0.00000  Uiso   1.00
H1212  H     0.96256   0.59240   0.52699   0.00000  Uiso   1.00
N1213  N     0.72426   0.53101   0.95400   0.00000  Uiso   1.00
H1214  H     0.73397   0.51311   0.92556   0.00000  Uiso   1.00
C1215  C     0.71421   0.57265   0.94384   0.00000  Uiso   1.00
H1216  H     0.68242   0.57267   0.93152   0.00000  Uiso   1.00
H1217  H     0.74593   0.58607   0.91738   0.00000  Uiso   1.00
H1218  H     0.70606   0.59220   0.97418   0.00000  Uiso   1.00
N1219  N     0.90888   0.37238   0.77134   0.00000  Uiso   1.00
H1220  H     0.88388   0.36034   0.79983   0.00000  Uiso   1.00
C1221  C     0.88928   0.37439   0.73452   0.00000  Uiso   1.00
H1222  H     0.88126   0.34297   0.72461   0.00000  Uiso   1.00
H1223  H     0.91542   0.39018   0.70524   0.00000  Uiso   1.00
H1224  H     0.85500   0.39199   0.74496   0.00000  Uiso   1.00
N1225  N     0.75778   0.62762   0.72876   0.00000  Uiso   1.00
H1226  H     0.78281   0.63978   0.70037   0.00000  Uiso   1.00
C1227  C     0.77731   0.62540   0.76562   0.00000  Uiso   1.00
H1228  H     0.78467   0.65675   0.77615   0.00000  Uiso   1.00
H1229  H     0.81193   0.60833   0.75494   0.00000  Uiso   1.00
H1230  H     0.75146   0.60900   0.79456   0.00000  Uiso   1.00
O1231  O     0.03958   0.77322   0.75000   0.00000  Uiso   1.00
O1232  O     0.29375   0.89345   0.75000   0.00000  Uiso   1.00
O1233  O     0.29372   0.77321   0.75000   0.00000  Uiso   1.00
O1234  O     0.03961   0.89346   0.74999   0.00000  Uiso   1.00
C1235  C     0.33287   0.75420   0.75006   0.00000  Uiso   1.00
C1236  C     0.00045   0.91246   0.74997   0.00000  Uiso   1.00
O1237  O     0.01852   0.83334   0.81491   0.00000  Uiso   1.00
O1238  O     0.31481   0.83332   0.68508   0.00000  Uiso   1.00
O1239  O     0.27267   0.83333   0.81492   0.00000  Uiso   1.00
O1240  O     0.06067   0.83333   0.68508   0.00000  Uiso   1.00
C1241  C     0.30498   0.83414   0.83572   0.00000  Uiso   1.00
C1242  C     0.02838   0.83415   0.66429   0.00000  Uiso   1.00
Cu1243 Cu    0.04689   0.83334   0.75000   0.00000  Uiso   1.00
Cu1244 Cu    0.28645   0.83333   0.75000   0.00000  Uiso   1.00
C1245  C     0.28731   0.83811   0.88442   0.00000  Uiso   1.00
C1246  C     0.04619   0.83814   0.61558   0.00000  Uiso   1.00
C1247  C     0.29824   0.82947   0.95622   0.00000  Uiso   1.00
C1248  C     0.03505   0.82938   0.54381   0.00000  Uiso   1.00
C1249  C     0.31415   0.82309   0.91029   0.00000  Uiso   1.00
C1250  C     0.01894   0.82298   0.58977   0.00000  Uiso   1.00
C1251  C     0.24228   0.85613   0.90536   0.00000  Uiso   1.00
C1252  C     0.09175   0.85627   0.59458   0.00000  Uiso   1.00
C1253  C     0.22458   0.86051   0.95235   0.00000  Uiso   1.00
C1254  C     0.10964   0.86056   0.54757   0.00000  Uiso   1.00
C1255  C     0.25596   0.85140   0.97709   0.00000  Uiso   1.00
C1256  C     0.07798   0.85141   0.52286   0.00000  Uiso   1.00
C1257  C     0.17523   0.86838   0.97610   0.00000  Uiso   1.00
C1258  C     0.15926   0.86838   0.52378   0.00000  Uiso   1.00
C1259  C     0.19425   0.87036   0.54569   0.00000  Uiso   1.00
C1260  C     0.14029   0.87046   0.95420   0.00000  Uiso   1.00
C1261  C     0.24240   0.86188   0.52268   0.00000  Uiso   1.00
C1262  C     0.09187   0.86195   0.97724   0.00000  Uiso   1.00
H1263  H     0.11244   0.86653   0.61563   0.00000  Uiso   1.00
H1264  H     0.22183   0.86623   0.88428   0.00000  Uiso   1.00
H1265  H     0.31863   0.80616   0.60509   0.00000  Uiso   1.00
H1266  H     0.01399   0.80637   0.89503   0.00000  Uiso   1.00
H1267  H     0.31808   0.81541   0.97520   0.00000  Uiso   1.00
H1268  H     0.01484   0.81522   0.52487   0.00000  Uiso   1.00
H1269  H     0.18519   0.87573   0.58114   0.00000  Uiso   1.00
H1270  H     0.14952   0.87600   0.91875   0.00000  Uiso   1.00
C1271  C     0.28829   0.68654   0.76025   0.00000  Uiso   1.00
C1272  C     0.04503   0.98011   0.73989   0.00000  Uiso   1.00
C1273  C     0.29002   0.97734   0.76080   0.00000  Uiso   1.00
C1274  C     0.04329   0.68931   0.73936   0.00000  Uiso   1.00
H1275  H     0.25607   0.96011   0.76936   0.00000  Uiso   1.00
H1276  H     0.07724   0.70654   0.73080   0.00000  Uiso   1.00
C1277  C     0.00116   0.95717   0.75034   0.00000  Uiso   1.00
C1278  C     0.33215   0.70948   0.74978   0.00000  Uiso   1.00
C1279  C     0.18023   0.81134   0.78101   0.00000  Uiso   1.00
C1280  C     0.15310   0.85534   0.71900   0.00000  Uiso   1.00
H1281  H     0.18950   0.79346   0.80595   0.00000  Uiso   1.00
H1282  H     0.14384   0.87322   0.69404   0.00000  Uiso   1.00
C1283  C     0.13103   0.81131   0.78097   0.00000  Uiso   1.00
C1284  C     0.20231   0.85537   0.71903   0.00000  Uiso   1.00
H1285  H     0.10400   0.79339   0.80591   0.00000  Uiso   1.00
H1286  H     0.22933   0.87328   0.69408   0.00000  Uiso   1.00
N1287  N     0.11736   0.83334   0.74999   0.00000  Uiso   1.00
N1288  N     0.21597   0.83332   0.75001   0.00000  Uiso   1.00
N1289  N     0.27670   0.86406   0.54599   0.00000  Uiso   1.00
H1290  H     0.26657   0.84562   0.57411   0.00000  Uiso   1.00
C1291  C     0.28756   0.90555   0.55691   0.00000  Uiso   1.00
H1292  H     0.31949   0.90552   0.56903   0.00000  Uiso   1.00
H1293  H     0.25620   0.91829   0.58376   0.00000  Uiso   1.00
H1294  H     0.29589   0.92573   0.52699   0.00000  Uiso   1.00
N1295  N     0.05759   0.86434   0.95400   0.00000  Uiso   1.00
H1296  H     0.06731   0.84644   0.92556   0.00000  Uiso   1.00
C1297  C     0.04755   0.90598   0.94384   0.00000  Uiso   1.00
H1298  H     0.01575   0.90601   0.93152   0.00000  Uiso   1.00
H1299  H     0.07926   0.91940   0.91738   0.00000  Uiso   1.00
H1300  H     0.03939   0.92553   0.97418   0.00000  Uiso   1.00
N1301  N     0.24222   0.70571   0.77134   0.00000  Uiso   1.00
H1302  H     0.21721   0.69368   0.79983   0.00000  Uiso   1.00
C1303  C     0.22261   0.70772   0.73452   0.00000  Uiso   1.00
H1304  H     0.21459   0.67630   0.72461   0.00000  Uiso   1.00
H1305  H     0.24875   0.72351   0.70524   0.00000  Uiso   1.00
H1306  H     0.18833   0.72533   0.74496   0.00000  Uiso   1.00
N1307  N     0.09111   0.96095   0.72876   0.00000  Uiso   1.00
H1308  H     0.11615   0.97312   0.70037   0.00000  Uiso   1.00
C1309  C     0.11064   0.95873   0.76562   0.00000  Uiso   1.00
H1310  H     0.11800   0.99008   0.77615   0.00000  Uiso   1.00
H1311  H     0.14526   0.94166   0.75494   0.00000  Uiso   1.00
H1312  H     0.08479   0.94233   0.79456   0.00000  Uiso   1.00
O1313  O     0.37291   0.77322   0.75000   0.00000  Uiso   1.00
O1314  O     0.62709   0.89345   0.75000   0.00000  Uiso   1.00
O1315  O     0.62706   0.77321   0.75000   0.00000  Uiso   1.00
O1316  O     0.37294   0.89346   0.74999   0.00000  Uiso   1.00
C1317  C     0.66621   0.75420   0.75006   0.00000  Uiso   1.00
C1318  C     0.33379   0.91246   0.74997   0.00000  Uiso   1.00
O1319  O     0.35186   0.83334   0.81491   0.00000  Uiso   1.00
O1320  O     0.64814   0.83332   0.68508   0.00000  Uiso   1.00
O1321  O     0.60600   0.83333   0.81492   0.00000  Uiso   1.00
O1322  O     0.39400   0.83333   0.68508   0.00000  Uiso   1.00
C1323  C     0.63832   0.83414   0.83572   0.00000  Uiso   1.00
C1324  C     0.36171   0.83415   0.66429   0.00000  Uiso   1.00
Cu1325 Cu    0.38022   0.83334   0.75000   0.00000  Uiso   1.00
Cu1326 Cu    0.61978   0.83333   0.75000   0.00000  Uiso   1.00
C1327  C     0.62064   0.83811   0.88442   0.00000  Uiso   1.00
C1328  C     0.37952   0.83814   0.61558   0.00000  Uiso   1.00
C1329  C     0.63157   0.82947   0.95622   0.00000  Uiso   1.00
C1330  C     0.36839   0.82938   0.54381   0.00000  Uiso   1.00
C1331  C     0.64748   0.82309   0.91029   0.00000  Uiso   1.00
C1332  C     0.35228   0.82298   0.58977   0.00000  Uiso   1.00
C1333  C     0.57561   0.85613   0.90536   0.00000  Uiso   1.00
C1334  C     0.42508   0.85627   0.59458   0.00000  Uiso   1.00
C1335  C     0.55791   0.86051   0.95235   0.00000  Uiso   1.00
C1336  C     0.44298   0.86056   0.54757   0.00000  Uiso   1.00
C1337  C     0.58930   0.85140   0.97709   0.00000  Uiso   1.00
C1338  C     0.41132   0.85141   0.52286   0.00000  Uiso   1.00
C1339  C     0.50856   0.86838   0.97610   0.00000  Uiso   1.00
C1340  C     0.49260   0.86838   0.52378   0.00000  Uiso   1.00
C1341  C     0.52759   0.87036   0.54569   0.00000  Uiso   1.00
C1342  C     0.47363   0.87046   0.95420   0.00000  Uiso   1.00
C1343  C     0.57573   0.86188   0.52268   0.00000  Uiso   1.00
C1344  C     0.42521   0.86195   0.97724   0.00000  Uiso   1.00
H1345  H     0.44577   0.86653   0.61563   0.00000  Uiso   1.00
H1346  H     0.55517   0.86623   0.88428   0.00000  Uiso   1.00
H1347  H     0.65197   0.80616   0.60509   0.00000  Uiso   1.00
H1348  H     0.34732   0.80637   0.89503   0.00000  Uiso   1.00
H1349  H     0.65141   0.81541   0.97520   0.00000  Uiso   1.00
H1350  H     0.34817   0.81522   0.52487   0.00000  Uiso   1.00
H1351  H     0.51852   0.87573   0.58114   0.00000  Uiso   1.00
H1352  H     0.48285   0.87600   0.91875   0.00000  Uiso   1.00
C1353  C     0.62162   0.68654   0.76025   0.00000  Uiso   1.00
C1354  C     0.37836   0.98011   0.73989   0.00000  Uiso   1.00
C1355  C     0.62335   0.97734   0.76080   0.00000  Uiso   1.00
C1356  C     0.37663   0.68931   0.73936   0.00000  Uiso   1.00
H1357  H     0.58940   0.96011   0.76936   0.00000  Uiso   1.00
H1358  H     0.41058   0.70654   0.73080   0.00000  Uiso   1.00
C1359  C     0.33449   0.95717   0.75034   0.00000  Uiso   1.00
C1360  C     0.66549   0.70948   0.74978   0.00000  Uiso   1.00
C1361  C     0.51357   0.81134   0.78101   0.00000  Uiso   1.00
C1362  C     0.48643   0.85534   0.71900   0.00000  Uiso   1.00
H1363  H     0.52283   0.79346   0.80595   0.00000  Uiso   1.00
H1364  H     0.47717   0.87322   0.69404   0.00000  Uiso   1.00
C1365  C     0.46436   0.81131   0.78097   0.00000  Uiso   1.00
C1366  C     0.53564   0.85537   0.71903   0.00000  Uiso   1.00
H1367  H     0.43733   0.79339   0.80591   0.00000  Uiso   1.00
H1368  H     0.56266   0.87328   0.69408   0.00000  Uiso   1.00
N1369  N     0.45069   0.83334   0.74999   0.00000  Uiso   1.00
N1370  N     0.54931   0.83332   0.75001   0.00000  Uiso   1.00
N1371  N     0.61003   0.86406   0.54599   0.00000  Uiso   1.00
H1372  H     0.59991   0.84562   0.57411   0.00000  Uiso   1.00
C1373  C     0.62090   0.90555   0.55691   0.00000  Uiso   1.00
H1374  H     0.65283   0.90552   0.56903   0.00000  Uiso   1.00
H1375  H     0.58954   0.91829   0.58376   0.00000  Uiso   1.00
H1376  H     0.62923   0.92573   0.52699   0.00000  Uiso   1.00
N1377  N     0.39093   0.86434   0.95400   0.00000  Uiso   1.00
H1378  H     0.40064   0.84644   0.92556   0.00000  Uiso   1.00
C1379  C     0.38088   0.90598   0.94384   0.00000  Uiso   1.00
H1380  H     0.34909   0.90601   0.93152   0.00000  Uiso   1.00
H1381  H     0.41259   0.91940   0.91738   0.00000  Uiso   1.00
H1382  H     0.37273   0.92553   0.97418   0.00000  Uiso   1.00
N1383  N     0.57555   0.70571   0.77134   0.00000  Uiso   1.00
H1384  H     0.55055   0.69368   0.79983   0.00000  Uiso   1.00
C1385  C     0.55595   0.70772   0.73452   0.00000  Uiso   1.00
H1386  H     0.54793   0.67630   0.72461   0.00000  Uiso   1.00
H1387  H     0.58208   0.72351   0.70524   0.00000  Uiso   1.00
H1388  H     0.52167   0.72533   0.74496   0.00000  Uiso   1.00
N1389  N     0.42445   0.96095   0.72876   0.00000  Uiso   1.00
H1390  H     0.44948   0.97312   0.70037   0.00000  Uiso   1.00
C1391  C     0.44398   0.95873   0.76562   0.00000  Uiso   1.00
H1392  H     0.45133   0.99008   0.77615   0.00000  Uiso   1.00
H1393  H     0.47860   0.94166   0.75494   0.00000  Uiso   1.00
H1394  H     0.41813   0.94233   0.79456   0.00000  Uiso   1.00
O1395  O     0.70625   0.77322   0.75000   0.00000  Uiso   1.00
O1396  O     0.96042   0.89345   0.75000   0.00000  Uiso   1.00
O1397  O     0.96039   0.77321   0.75000   0.00000  Uiso   1.00
O1398  O     0.70628   0.89346   0.74999   0.00000  Uiso   1.00
C1399  C     0.99954   0.75420   0.75006   0.00000  Uiso   1.00
C1400  C     0.66712   0.91246   0.74997   0.00000  Uiso   1.00
O1401  O     0.68519   0.83334   0.81491   0.00000  Uiso   1.00
O1402  O     0.98148   0.83332   0.68508   0.00000  Uiso   1.00
O1403  O     0.93933   0.83333   0.81492   0.00000  Uiso   1.00
O1404  O     0.72733   0.83333   0.68508   0.00000  Uiso   1.00
C1405  C     0.97165   0.83414   0.83572   0.00000  Uiso   1.00
C1406  C     0.69504   0.83415   0.66429   0.00000  Uiso   1.00
Cu1407 Cu    0.71355   0.83334   0.75000   0.00000  Uiso   1.00
Cu1408 Cu    0.95311   0.83333   0.75000   0.00000  Uiso   1.00
C1409  C     0.95397   0.83811   0.88442   0.00000  Uiso   1.00
C1410  C     0.71285   0.83814   0.61558   0.00000  Uiso   1.00
C1411  C     0.96491   0.82947   0.95622   0.00000  Uiso   1.00
C1412  C     0.70172   0.82938   0.54381   0.00000  Uiso   1.00
C1413  C     0.98082   0.82309   0.91029   0.00000  Uiso   1.00
C1414  C     0.68561   0.82298   0.58977   0.00000  Uiso   1.00
C1415  C     0.90895   0.85613   0.90536   0.00000  Uiso   1.00
C1416  C     0.75842   0.85627   0.59458   0.00000  Uiso   1.00
C1417  C     0.89124   0.86051   0.95235   0.00000  Uiso   1.00
C1418  C     0.77631   0.86056   0.54757   0.00000  Uiso   1.00
C1419  C     0.92263   0.85140   0.97709   0.00000  Uiso   1.00
C1420  C     0.74465   0.85141   0.52286   0.00000  Uiso   1.00
C1421  C     0.84190   0.86838   0.97610   0.00000  Uiso   1.00
C1422  C     0.82593   0.86838   0.52378   0.00000  Uiso   1.00
C1423  C     0.86092   0.87036   0.54569   0.00000  Uiso   1.00
C1424  C     0.80696   0.87046   0.95420   0.00000  Uiso   1.00
C1425  C     0.90906   0.86188   0.52268   0.00000  Uiso   1.00
C1426  C     0.75854   0.86195   0.97724   0.00000  Uiso   1.00
H1427  H     0.77911   0.86653   0.61563   0.00000  Uiso   1.00
H1428  H     0.88850   0.86623   0.88428   0.00000  Uiso   1.00
H1429  H     0.98530   0.80616   0.60509   0.00000  Uiso   1.00
H1430  H     0.68065   0.80637   0.89503   0.00000  Uiso   1.00
H1431  H     0.98475   0.81541   0.97520   0.00000  Uiso   1.00
H1432  H     0.68150   0.81522   0.52487   0.00000  Uiso   1.00
H1433  H     0.85185   0.87573   0.58114   0.00000  Uiso   1.00
H1434  H     0.81618   0.87600   0.91875   0.00000  Uiso   1.00
C1435  C     0.95495   0.68654   0.76025   0.00000  Uiso   1.00
C1436  C     0.71170   0.98011   0.73989   0.00000  Uiso   1.00
C1437  C     0.95668   0.97734   0.76080   0.00000  Uiso   1.00
C1438  C     0.70996   0.68931   0.73936   0.00000  Uiso   1.00
H1439  H     0.92274   0.96011   0.76936   0.00000  Uiso   1.00
H1440  H     0.74391   0.70654   0.73080   0.00000  Uiso   1.00
C1441  C     0.66783   0.95717   0.75034   0.00000  Uiso   1.00
C1442  C     0.99882   0.70948   0.74978   0.00000  Uiso   1.00
C1443  C     0.84690   0.81134   0.78101   0.00000  Uiso   1.00
C1444  C     0.81976   0.85534   0.71900   0.00000  Uiso   1.00
H1445  H     0.85616   0.79346   0.80595   0.00000  Uiso   1.00
H1446  H     0.81050   0.87322   0.69404   0.00000  Uiso   1.00
C1447  C     0.79769   0.81131   0.78097   0.00000  Uiso   1.00
C1448  C     0.86897   0.85537   0.71903   0.00000  Uiso   1.00
H1449  H     0.77067   0.79339   0.80591   0.00000  Uiso   1.00
H1450  H     0.89600   0.87328   0.69408   0.00000  Uiso   1.00
N1451  N     0.78403   0.83334   0.74999   0.00000  Uiso   1.00
N1452  N     0.88264   0.83332   0.75001   0.00000  Uiso   1.00
N1453  N     0.94337   0.86406   0.54599   0.00000  Uiso   1.00
H1454  H     0.93324   0.84562   0.57411   0.00000  Uiso   1.00
C1455  C     0.95423   0.90555   0.55691   0.00000  Uiso   1.00
H1456  H     0.98616   0.90552   0.56903   0.00000  Uiso   1.00
H1457  H     0.92287   0.91829   0.58376   0.00000  Uiso   1.00
H1458  H     0.96256   0.92573   0.52699   0.00000  Uiso   1.00
N1459  N     0.72426   0.86434   0.95400   0.00000  Uiso   1.00
H1460  H     0.73397   0.84644   0.92556   0.00000  Uiso   1.00
C1461  C     0.71421   0.90598   0.94384   0.00000  Uiso   1.00
H1462  H     0.68242   0.90601   0.93152   0.00000  Uiso   1.00
H1463  H     0.74593   0.91940   0.91738   0.00000  Uiso   1.00
H1464  H     0.70606   0.92553   0.97418   0.00000  Uiso   1.00
N1465  N     0.90888   0.70571   0.77134   0.00000  Uiso   1.00
H1466  H     0.88388   0.69368   0.79983   0.00000  Uiso   1.00
C1467  C     0.88928   0.70772   0.73452   0.00000  Uiso   1.00
H1468  H     0.88126   0.67630   0.72461   0.00000  Uiso   1.00
H1469  H     0.91542   0.72351   0.70524   0.00000  Uiso   1.00
H1470  H     0.85500   0.72533   0.74496   0.00000  Uiso   1.00
N1471  N     0.75778   0.96095   0.72876   0.00000  Uiso   1.00
H1472  H     0.78281   0.97312   0.70037   0.00000  Uiso   1.00
C1473  C     0.77731   0.95873   0.76562   0.00000  Uiso   1.00
H1474  H     0.78467   0.99008   0.77615   0.00000  Uiso   1.00
H1475  H     0.81193   0.94166   0.75494   0.00000  Uiso   1.00
H1476  H     0.75146   0.94233   0.79456   0.00000  Uiso   1.00
loop_
_geom_bond_atom_site_label_1
_geom_bond_atom_site_label_2
_geom_bond_distance
_geom_bond_site_symmetry_2
_ccdc_geom_bond_type
O1     Cu13    1.967   .     S
O1     C169    1.309   1_455 S
O2     Cu14    1.967   .     S
O2     C88     1.309   .     S
O3     Cu14    1.972   .     S
O3     C5      1.302   .     A
O4     Cu13    1.972   .     S
O4     C6      1.302   .     A
C5     C48     1.456   .     S
C5     O83     1.309   .     S
C6     C47     1.456   .     S
C6     O166    1.309   1_455 S
O7     Cu13    1.946   .     S
O7     C175    1.310   1_455 S
O8     Cu14    1.946   .     S
O8     C94     1.310   .     S
O9     Cu14    1.955   .     S
O9     C11     1.304   .     A
O10    C12     1.304   .     A
O10    Cu13    1.955   .     S
C11    C15     1.461   .     S
C11    O89     1.310   .     S
C12    C16     1.460   .     S
C12    O172    1.310   1_455 S
Cu13   N57     2.046   .     S
Cu13   Cu178   2.723   1_455 S
Cu14   N58     2.046   .     S
Cu14   Cu95    2.723   .     S
C15    C19     1.388   .     A
C15    C21     1.400   .     A
C16    C20     1.388   .     A
C16    C22     1.400   .     A
C17    H37     1.062   .     S
C17    C25     1.399   .     A
C17    C19     1.388   .     A
C18    C26     1.399   .     A
C18    H38     1.062   .     S
C18    C20     1.388   .     A
C19    H118    1.083   .     S
C20    H199    1.083   1_455 S
C21    H34     1.077   .     S
C21    C23     1.411   .     A
C22    C24     1.411   .     A
C22    H33     1.077   .     S
C23    C27     1.416   .     A
C23    C25     1.410   .     A
C24    C26     1.410   .     A
C24    C28     1.416   .     A
C25    C769    1.405   .     S
C26    C770    1.405   1_554 S
C27    C30     1.399   .     A
C27    C766    1.424   .     S
C28    C29     1.399   .     A
C28    C765    1.424   1_554 S
C29    H39     1.077   .     S
C29    C31     1.386   .     A
C30    H40     1.077   .     S
C30    C32     1.386   .     A
C31    N59     1.414   .     S
C31    C763    1.405   1_554 S
C32    N65     1.414   .     S
C32    C764    1.405   .     S
H35    C102    1.083   .     S
H36    C183    1.083   1_455 S
C41    N71     1.423   .     S
C41    C48     1.413   .     A
C41    C535    1.388   1_545 S
C42    C47     1.413   .     A
C42    N77     1.424   .     S
C42    C290    1.388   .     S
C43    H45     1.084   .     S
C43    C287    1.388   .     S
C43    C129    1.400   .     S
C44    H46     1.084   .     S
C44    C534    1.388   1_545 S
C44    C212    1.400   1_455 S
C47    C207    1.400   1_455 S
C48    C126    1.400   .     S
C49    H51     1.082   .     S
C49    N58     1.371   .     A
C49    C53     1.429   .     A
C50    C54     1.429   .     A
C50    H52     1.082   .     S
C50    N57     1.371   .     A
C53    H55     1.082   .     S
C53    N57     1.372   .     A
C54    H56     1.082   .     S
C54    N58     1.372   .     A
N59    H60     1.031   .     S
N59    C61     1.449   .     S
C61    H63     1.111   .     S
C61    H64     1.110   .     S
C61    H62     1.109   .     S
N65    C67     1.449   .     S
N65    H66     1.031   .     S
C67    H68     1.109   .     S
C67    H69     1.111   .     S
C67    H70     1.110   .     S
N71    C73     1.447   .     S
N71    H72     1.032   .     S
C73    H75     1.112   .     S
C73    H74     1.112   .     S
C73    H76     1.111   .     S
N77    H78     1.032   .     S
N77    C79     1.448   .     S
C79    H81     1.110   .     S
C79    H82     1.111   .     S
C79    H80     1.112   .     S
O83    Cu95    1.967   .     S
O84    Cu96    1.967   .     S
O84    C170    1.309   .     S
O85    Cu96    1.972   .     S
O85    C87     1.302   .     A
O86    Cu95    1.972   .     S
O86    C88     1.302   .     A
C87    C130    1.456   .     S
C87    O165    1.309   .     S
C88    C129    1.456   .     S
O89    Cu95    1.946   .     S
O90    Cu96    1.946   .     S
O90    C176    1.310   .     S
O91    Cu96    1.955   .     S
O91    C93     1.304   .     A
O92    C94     1.304   .     A
O92    Cu95    1.955   .     S
C93    C97     1.461   .     S
C93    O171    1.310   .     S
C94    C98     1.460   .     S
Cu95   N139    2.046   .     S
Cu96   N140    2.046   .     S
Cu96   Cu177   2.723   .     S
C97    C101    1.388   .     A
C97    C103    1.400   .     A
C98    C102    1.388   .     A
C98    C104    1.400   .     A
C99    H119    1.062   .     S
C99    C107    1.399   .     A
C99    C101    1.388   .     A
C100   C108    1.399   .     A
C100   H120    1.062   .     S
C100   C102    1.388   .     A
C101   H200    1.083   .     S
C103   H116    1.077   .     S
C103   C105    1.411   .     A
C104   C106    1.411   .     A
C104   H115    1.077   .     S
C105   C109    1.416   .     A
C105   C107    1.410   .     A
C106   C108    1.410   .     A
C106   C110    1.416   .     A
C107   C851    1.405   .     S
C108   C852    1.405   1_554 S
C109   C112    1.399   .     A
C109   C848    1.424   .     S
C110   C111    1.399   .     A
C110   C847    1.424   1_554 S
C111   H121    1.077   .     S
C111   C113    1.386   .     A
C112   H122    1.077   .     S
C112   C114    1.386   .     A
C113   N141    1.414   .     S
C113   C845    1.405   1_554 S
C114   N147    1.414   .     S
C114   C846    1.405   .     S
H117   C184    1.083   .     S
C123   N153    1.423   .     S
C123   C130    1.413   .     A
C123   C617    1.388   1_545 S
C124   C129    1.413   .     A
C124   N159    1.424   .     S
C124   C372    1.388   .     S
C125   H127    1.084   .     S
C125   C369    1.388   .     S
C125   C211    1.400   .     S
C126   H128    1.084   .     S
C126   C616    1.388   1_545 S
C130   C208    1.400   .     S
C131   H133    1.082   .     S
C131   N140    1.371   .     A
C131   C135    1.429   .     A
C132   C136    1.429   .     A
C132   H134    1.082   .     S
C132   N139    1.371   .     A
C135   H137    1.082   .     S
C135   N139    1.372   .     A
C136   H138    1.082   .     S
C136   N140    1.372   .     A
N141   H142    1.031   .     S
N141   C143    1.449   .     S
C143   H145    1.111   .     S
C143   H146    1.110   .     S
C143   H144    1.109   .     S
N147   C149    1.449   .     S
N147   H148    1.031   .     S
C149   H150    1.109   .     S
C149   H151    1.111   .     S
C149   H152    1.110   .     S
N153   C155    1.447   .     S
N153   H154    1.032   .     S
C155   H157    1.112   .     S
C155   H156    1.112   .     S
C155   H158    1.111   .     S
N159   H160    1.032   .     S
N159   C161    1.448   .     S
C161   H163    1.110   .     S
C161   H164    1.111   .     S
C161   H162    1.112   .     S
O165   Cu177   1.967   .     S
O166   Cu178   1.967   .     S
O166   C6      1.309   1_655 S
O167   Cu178   1.972   .     S
O167   C169    1.302   .     A
O168   Cu177   1.972   .     S
O168   C170    1.302   .     A
C169   C212    1.456   .     S
C169   O1      1.309   1_655 S
C170   C211    1.456   .     S
O171   Cu177   1.946   .     S
O172   Cu178   1.946   .     S
O172   C12     1.310   1_655 S
O173   Cu178   1.955   .     S
O173   C175    1.304   .     A
O174   C176    1.304   .     A
O174   Cu177   1.955   .     S
C175   C179    1.461   .     S
C175   O7      1.310   1_655 S
C176   C180    1.460   .     S
Cu177  N221    2.046   .     S
Cu178  N222    2.046   .     S
Cu178  Cu13    2.723   1_655 S
C179   C183    1.388   .     A
C179   C185    1.400   .     A
C180   C184    1.388   .     A
C180   C186    1.400   .     A
C181   H201    1.062   .     S
C181   C189    1.399   .     A
C181   C183    1.388   .     A
C182   C190    1.399   .     A
C182   H202    1.062   .     S
C182   C184    1.388   .     A
C183   H36     1.083   1_655 S
C185   H198    1.077   .     S
C185   C187    1.411   .     A
C186   C188    1.411   .     A
C186   H197    1.077   .     S
C187   C191    1.416   .     A
C187   C189    1.410   .     A
C188   C190    1.410   .     A
C188   C192    1.416   .     A
C189   C933    1.405   .     S
C190   C934    1.405   1_554 S
C191   C194    1.399   .     A
C191   C930    1.424   .     S
C192   C193    1.399   .     A
C192   C929    1.424   1_554 S
C193   H203    1.077   .     S
C193   C195    1.386   .     A
C194   H204    1.077   .     S
C194   C196    1.386   .     A
C195   N223    1.414   .     S
C195   C927    1.405   1_554 S
C196   N229    1.414   .     S
C196   C928    1.405   .     S
H199   C20     1.083   1_655 S
C205   N235    1.423   .     S
C205   C212    1.413   .     A
C205   C699    1.388   1_545 S
C206   C211    1.413   .     A
C206   N241    1.424   .     S
C206   C454    1.388   .     S
C207   H209    1.084   .     S
C207   C451    1.388   .     S
C207   C47     1.400   1_655 S
C208   H210    1.084   .     S
C208   C698    1.388   1_545 S
C212   C44     1.400   1_655 S
C213   H215    1.082   .     S
C213   N222    1.371   .     A
C213   C217    1.429   .     A
C214   C218    1.429   .     A
C214   H216    1.082   .     S
C214   N221    1.371   .     A
C217   H219    1.082   .     S
C217   N221    1.372   .     A
C218   H220    1.082   .     S
C218   N222    1.372   .     A
N223   H224    1.031   .     S
N223   C225    1.449   .     S
C225   H227    1.111   .     S
C225   H228    1.110   .     S
C225   H226    1.109   .     S
N229   C231    1.449   .     S
N229   H230    1.031   .     S
C231   H232    1.109   .     S
C231   H233    1.111   .     S
C231   H234    1.110   .     S
N235   C237    1.447   .     S
N235   H236    1.032   .     S
C237   H239    1.112   .     S
C237   H238    1.112   .     S
C237   H240    1.111   .     S
N241   H242    1.032   .     S
N241   C243    1.448   .     S
C243   H245    1.110   .     S
C243   H246    1.111   .     S
C243   H244    1.112   .     S
O247   Cu259   1.967   .     S
O247   C415    1.309   1_455 S
O248   Cu260   1.967   .     S
O248   C334    1.309   .     S
O249   Cu260   1.972   .     S
O249   C251    1.302   .     A
O250   Cu259   1.972   .     S
O250   C252    1.302   .     A
C251   C294    1.456   .     S
C251   O329    1.309   .     S
C252   C293    1.456   .     S
C252   O412    1.309   1_455 S
O253   Cu259   1.946   .     S
O253   C421    1.310   1_455 S
O254   Cu260   1.946   .     S
O254   C340    1.310   .     S
O255   Cu260   1.955   .     S
O255   C257    1.304   .     A
O256   C258    1.304   .     A
O256   Cu259   1.955   .     S
C257   C261    1.461   .     S
C257   O335    1.310   .     S
C258   C262    1.460   .     S
C258   O418    1.310   1_455 S
Cu259  N303    2.046   .     S
Cu259  Cu424   2.723   1_455 S
Cu260  N304    2.046   .     S
Cu260  Cu341   2.723   .     S
C261   C265    1.388   .     A
C261   C267    1.400   .     A
C262   C266    1.388   .     A
C262   C268    1.400   .     A
C263   H283    1.062   .     S
C263   C271    1.399   .     A
C263   C265    1.388   .     A
C264   C272    1.399   .     A
C264   H284    1.062   .     S
C264   C266    1.388   .     A
C265   H364    1.083   .     S
C266   H445    1.083   1_455 S
C267   H280    1.077   .     S
C267   C269    1.411   .     A
C268   C270    1.411   .     A
C268   H279    1.077   .     S
C269   C273    1.416   .     A
C269   C271    1.410   .     A
C270   C272    1.410   .     A
C270   C274    1.416   .     A
C271   C1015   1.405   .     S
C272   C1016   1.405   1_554 S
C273   C276    1.399   .     A
C273   C1012   1.424   .     S
C274   C275    1.399   .     A
C274   C1011   1.424   1_554 S
C275   H285    1.077   .     S
C275   C277    1.386   .     A
C276   H286    1.077   .     S
C276   C278    1.386   .     A
C277   N305    1.414   .     S
C277   C1009   1.405   1_554 S
C278   N311    1.414   .     S
C278   C1010   1.405   .     S
H281   C348    1.083   .     S
H282   C429    1.083   1_455 S
C287   N317    1.423   .     S
C287   C294    1.413   .     A
C288   C293    1.413   .     A
C288   N323    1.424   .     S
C288   C536    1.388   .     S
C289   H291    1.084   .     S
C289   C533    1.388   .     S
C289   C375    1.400   .     S
C290   H292    1.084   .     S
C290   C458    1.400   1_455 S
C293   C453    1.400   1_455 S
C294   C372    1.400   .     S
C295   H297    1.082   .     S
C295   N304    1.371   .     A
C295   C299    1.429   .     A
C296   C300    1.429   .     A
C296   H298    1.082   .     S
C296   N303    1.371   .     A
C299   H301    1.082   .     S
C299   N303    1.372   .     A
C300   H302    1.082   .     S
C300   N304    1.372   .     A
N305   H306    1.031   .     S
N305   C307    1.449   .     S
C307   H309    1.111   .     S
C307   H310    1.110   .     S
C307   H308    1.109   .     S
N311   C313    1.449   .     S
N311   H312    1.031   .     S
C313   H314    1.109   .     S
C313   H315    1.111   .     S
C313   H316    1.110   .     S
N317   C319    1.447   .     S
N317   H318    1.032   .     S
C319   H321    1.112   .     S
C319   H320    1.112   .     S
C319   H322    1.111   .     S
N323   H324    1.032   .     S
N323   C325    1.448   .     S
C325   H327    1.110   .     S
C325   H328    1.111   .     S
C325   H326    1.112   .     S
O329   Cu341   1.967   .     S
O330   Cu342   1.967   .     S
O330   C416    1.309   .     S
O331   Cu342   1.972   .     S
O331   C333    1.302   .     A
O332   Cu341   1.972   .     S
O332   C334    1.302   .     A
C333   C376    1.456   .     S
C333   O411    1.309   .     S
C334   C375    1.456   .     S
O335   Cu341   1.946   .     S
O336   Cu342   1.946   .     S
O336   C422    1.310   .     S
O337   Cu342   1.955   .     S
O337   C339    1.304   .     A
O338   C340    1.304   .     A
O338   Cu341   1.955   .     S
C339   C343    1.461   .     S
C339   O417    1.310   .     S
C340   C344    1.460   .     S
Cu341  N385    2.046   .     S
Cu342  N386    2.046   .     S
Cu342  Cu423   2.723   .     S
C343   C347    1.388   .     A
C343   C349    1.400   .     A
C344   C348    1.388   .     A
C344   C350    1.400   .     A
C345   H365    1.062   .     S
C345   C353    1.399   .     A
C345   C347    1.388   .     A
C346   C354    1.399   .     A
C346   H366    1.062   .     S
C346   C348    1.388   .     A
C347   H446    1.083   .     S
C349   H362    1.077   .     S
C349   C351    1.411   .     A
C350   C352    1.411   .     A
C350   H361    1.077   .     S
C351   C355    1.416   .     A
C351   C353    1.410   .     A
C352   C354    1.410   .     A
C352   C356    1.416   .     A
C353   C1097   1.405   .     S
C354   C1098   1.405   1_554 S
C355   C358    1.399   .     A
C355   C1094   1.424   .     S
C356   C357    1.399   .     A
C356   C1093   1.424   1_554 S
C357   H367    1.077   .     S
C357   C359    1.386   .     A
C358   H368    1.077   .     S
C358   C360    1.386   .     A
C359   N387    1.414   .     S
C359   C1091   1.405   1_554 S
C360   N393    1.414   .     S
C360   C1092   1.405   .     S
H363   C430    1.083   .     S
C369   N399    1.423   .     S
C369   C376    1.413   .     A
C370   C375    1.413   .     A
C370   N405    1.424   .     S
C370   C618    1.388   .     S
C371   H373    1.084   .     S
C371   C615    1.388   .     S
C371   C457    1.400   .     S
C372   H374    1.084   .     S
C376   C454    1.400   .     S
C377   H379    1.082   .     S
C377   N386    1.371   .     A
C377   C381    1.429   .     A
C378   C382    1.429   .     A
C378   H380    1.082   .     S
C378   N385    1.371   .     A
C381   H383    1.082   .     S
C381   N385    1.372   .     A
C382   H384    1.082   .     S
C382   N386    1.372   .     A
N387   H388    1.031   .     S
N387   C389    1.449   .     S
C389   H391    1.111   .     S
C389   H392    1.110   .     S
C389   H390    1.109   .     S
N393   C395    1.449   .     S
N393   H394    1.031   .     S
C395   H396    1.109   .     S
C395   H397    1.111   .     S
C395   H398    1.110   .     S
N399   C401    1.447   .     S
N399   H400    1.032   .     S
C401   H403    1.112   .     S
C401   H402    1.112   .     S
C401   H404    1.111   .     S
N405   H406    1.032   .     S
N405   C407    1.448   .     S
C407   H409    1.110   .     S
C407   H410    1.111   .     S
C407   H408    1.112   .     S
O411   Cu423   1.967   .     S
O412   Cu424   1.967   .     S
O412   C252    1.309   1_655 S
O413   Cu424   1.972   .     S
O413   C415    1.302   .     A
O414   Cu423   1.972   .     S
O414   C416    1.302   .     A
C415   C458    1.456   .     S
C415   O247    1.309   1_655 S
C416   C457    1.456   .     S
O417   Cu423   1.946   .     S
O418   Cu424   1.946   .     S
O418   C258    1.310   1_655 S
O419   Cu424   1.955   .     S
O419   C421    1.304   .     A
O420   C422    1.304   .     A
O420   Cu423   1.955   .     S
C421   C425    1.461   .     S
C421   O253    1.310   1_655 S
C422   C426    1.460   .     S
Cu423  N467    2.046   .     S
Cu424  N468    2.046   .     S
Cu424  Cu259   2.723   1_655 S
C425   C429    1.388   .     A
C425   C431    1.400   .     A
C426   C430    1.388   .     A
C426   C432    1.400   .     A
C427   H447    1.062   .     S
C427   C435    1.399   .     A
C427   C429    1.388   .     A
C428   C436    1.399   .     A
C428   H448    1.062   .     S
C428   C430    1.388   .     A
C429   H282    1.083   1_655 S
C431   H444    1.077   .     S
C431   C433    1.411   .     A
C432   C434    1.411   .     A
C432   H443    1.077   .     S
C433   C437    1.416   .     A
C433   C435    1.410   .     A
C434   C436    1.410   .     A
C434   C438    1.416   .     A
C435   C1179   1.405   .     S
C436   C1180   1.405   1_554 S
C437   C440    1.399   .     A
C437   C1176   1.424   .     S
C438   C439    1.399   .     A
C438   C1175   1.424   1_554 S
C439   H449    1.077   .     S
C439   C441    1.386   .     A
C440   H450    1.077   .     S
C440   C442    1.386   .     A
C441   N469    1.414   .     S
C441   C1173   1.405   1_554 S
C442   N475    1.414   .     S
C442   C1174   1.405   .     S
H445   C266    1.083   1_655 S
C451   N481    1.423   .     S
C451   C458    1.413   .     A
C452   C457    1.413   .     A
C452   N487    1.424   .     S
C452   C700    1.388   .     S
C453   H455    1.084   .     S
C453   C697    1.388   .     S
C453   C293    1.400   1_655 S
C454   H456    1.084   .     S
C458   C290    1.400   1_655 S
C459   H461    1.082   .     S
C459   N468    1.371   .     A
C459   C463    1.429   .     A
C460   C464    1.429   .     A
C460   H462    1.082   .     S
C460   N467    1.371   .     A
C463   H465    1.082   .     S
C463   N467    1.372   .     A
C464   H466    1.082   .     S
C464   N468    1.372   .     A
N469   H470    1.031   .     S
N469   C471    1.449   .     S
C471   H473    1.111   .     S
C471   H474    1.110   .     S
C471   H472    1.109   .     S
N475   C477    1.449   .     S
N475   H476    1.031   .     S
C477   H478    1.109   .     S
C477   H479    1.111   .     S
C477   H480    1.110   .     S
N481   C483    1.447   .     S
N481   H482    1.032   .     S
C483   H485    1.112   .     S
C483   H484    1.112   .     S
C483   H486    1.111   .     S
N487   H488    1.032   .     S
N487   C489    1.448   .     S
C489   H491    1.110   .     S
C489   H492    1.111   .     S
C489   H490    1.112   .     S
O493   Cu505   1.967   .     S
O493   C661    1.309   1_455 S
O494   Cu506   1.967   .     S
O494   C580    1.309   .     S
O495   Cu506   1.972   .     S
O495   C497    1.302   .     A
O496   Cu505   1.972   .     S
O496   C498    1.302   .     A
C497   C540    1.456   .     S
C497   O575    1.309   .     S
C498   C539    1.456   .     S
C498   O658    1.309   1_455 S
O499   Cu505   1.946   .     S
O499   C667    1.310   1_455 S
O500   Cu506   1.946   .     S
O500   C586    1.310   .     S
O501   Cu506   1.955   .     S
O501   C503    1.304   .     A
O502   C504    1.304   .     A
O502   Cu505   1.955   .     S
C503   C507    1.461   .     S
C503   O581    1.310   .     S
C504   C508    1.460   .     S
C504   O664    1.310   1_455 S
Cu505  N549    2.046   .     S
Cu505  Cu670   2.723   1_455 S
Cu506  N550    2.046   .     S
Cu506  Cu587   2.723   .     S
C507   C511    1.388   .     A
C507   C513    1.400   .     A
C508   C512    1.388   .     A
C508   C514    1.400   .     A
C509   H529    1.062   .     S
C509   C517    1.399   .     A
C509   C511    1.388   .     A
C510   C518    1.399   .     A
C510   H530    1.062   .     S
C510   C512    1.388   .     A
C511   H610    1.083   .     S
C512   H691    1.083   1_455 S
C513   H526    1.077   .     S
C513   C515    1.411   .     A
C514   C516    1.411   .     A
C514   H525    1.077   .     S
C515   C519    1.416   .     A
C515   C517    1.410   .     A
C516   C518    1.410   .     A
C516   C520    1.416   .     A
C517   C1261   1.405   .     S
C518   C1262   1.405   1_554 S
C519   C522    1.399   .     A
C519   C1258   1.424   .     S
C520   C521    1.399   .     A
C520   C1257   1.424   1_554 S
C521   H531    1.077   .     S
C521   C523    1.386   .     A
C522   H532    1.077   .     S
C522   C524    1.386   .     A
C523   N551    1.414   .     S
C523   C1255   1.405   1_554 S
C524   N557    1.414   .     S
C524   C1256   1.405   .     S
H527   C594    1.083   .     S
H528   C675    1.083   1_455 S
C533   N563    1.423   .     S
C533   C540    1.413   .     A
C534   C539    1.413   .     A
C534   N569    1.424   .     S
C534   C44     1.388   1_565 S
C535   H537    1.084   .     S
C535   C41     1.388   1_565 S
C535   C621    1.400   .     S
C536   H538    1.084   .     S
C536   C704    1.400   1_455 S
C539   C699    1.400   1_455 S
C540   C618    1.400   .     S
C541   H543    1.082   .     S
C541   N550    1.371   .     A
C541   C545    1.429   .     A
C542   C546    1.429   .     A
C542   H544    1.082   .     S
C542   N549    1.371   .     A
C545   H547    1.082   .     S
C545   N549    1.372   .     A
C546   H548    1.082   .     S
C546   N550    1.372   .     A
N551   H552    1.031   .     S
N551   C553    1.449   .     S
C553   H555    1.111   .     S
C553   H556    1.110   .     S
C553   H554    1.109   .     S
N557   C559    1.449   .     S
N557   H558    1.031   .     S
C559   H560    1.109   .     S
C559   H561    1.111   .     S
C559   H562    1.110   .     S
N563   C565    1.447   .     S
N563   H564    1.032   .     S
C565   H567    1.112   .     S
C565   H566    1.112   .     S
C565   H568    1.111   .     S
N569   H570    1.032   .     S
N569   C571    1.448   .     S
C571   H573    1.110   .     S
C571   H574    1.111   .     S
C571   H572    1.112   .     S
O575   Cu587   1.967   .     S
O576   Cu588   1.967   .     S
O576   C662    1.309   .     S
O577   Cu588   1.972   .     S
O577   C579    1.302   .     A
O578   Cu587   1.972   .     S
O578   C580    1.302   .     A
C579   C622    1.456   .     S
C579   O657    1.309   .     S
C580   C621    1.456   .     S
O581   Cu587   1.946   .     S
O582   Cu588   1.946   .     S
O582   C668    1.310   .     S
O583   Cu588   1.955   .     S
O583   C585    1.304   .     A
O584   C586    1.304   .     A
O584   Cu587   1.955   .     S
C585   C589    1.461   .     S
C585   O663    1.310   .     S
C586   C590    1.460   .     S
Cu587  N631    2.046   .     S
Cu588  N632    2.046   .     S
Cu588  Cu669   2.723   .     S
C589   C593    1.388   .     A
C589   C595    1.400   .     A
C590   C594    1.388   .     A
C590   C596    1.400   .     A
C591   H611    1.062   .     S
C591   C599    1.399   .     A
C591   C593    1.388   .     A
C592   C600    1.399   .     A
C592   H612    1.062   .     S
C592   C594    1.388   .     A
C593   H692    1.083   .     S
C595   H608    1.077   .     S
C595   C597    1.411   .     A
C596   C598    1.411   .     A
C596   H607    1.077   .     S
C597   C601    1.416   .     A
C597   C599    1.410   .     A
C598   C600    1.410   .     A
C598   C602    1.416   .     A
C599   C1343   1.405   .     S
C600   C1344   1.405   1_554 S
C601   C604    1.399   .     A
C601   C1340   1.424   .     S
C602   C603    1.399   .     A
C602   C1339   1.424   1_554 S
C603   H613    1.077   .     S
C603   C605    1.386   .     A
C604   H614    1.077   .     S
C604   C606    1.386   .     A
C605   N633    1.414   .     S
C605   C1337   1.405   1_554 S
C606   N639    1.414   .     S
C606   C1338   1.405   .     S
H609   C676    1.083   .     S
C615   N645    1.423   .     S
C615   C622    1.413   .     A
C616   C621    1.413   .     A
C616   N651    1.424   .     S
C616   C126    1.388   1_565 S
C617   H619    1.084   .     S
C617   C123    1.388   1_565 S
C617   C703    1.400   .     S
C618   H620    1.084   .     S
C622   C700    1.400   .     S
C623   H625    1.082   .     S
C623   N632    1.371   .     A
C623   C627    1.429   .     A
C624   C628    1.429   .     A
C624   H626    1.082   .     S
C624   N631    1.371   .     A
C627   H629    1.082   .     S
C627   N631    1.372   .     A
C628   H630    1.082   .     S
C628   N632    1.372   .     A
N633   H634    1.031   .     S
N633   C635    1.449   .     S
C635   H637    1.111   .     S
C635   H638    1.110   .     S
C635   H636    1.109   .     S
N639   C641    1.449   .     S
N639   H640    1.031   .     S
C641   H642    1.109   .     S
C641   H643    1.111   .     S
C641   H644    1.110   .     S
N645   C647    1.447   .     S
N645   H646    1.032   .     S
C647   H649    1.112   .     S
C647   H648    1.112   .     S
C647   H650    1.111   .     S
N651   H652    1.032   .     S
N651   C653    1.448   .     S
C653   H655    1.110   .     S
C653   H656    1.111   .     S
C653   H654    1.112   .     S
O657   Cu669   1.967   .     S
O658   Cu670   1.967   .     S
O658   C498    1.309   1_655 S
O659   Cu670   1.972   .     S
O659   C661    1.302   .     A
O660   Cu669   1.972   .     S
O660   C662    1.302   .     A
C661   C704    1.456   .     S
C661   O493    1.309   1_655 S
C662   C703    1.456   .     S
O663   Cu669   1.946   .     S
O664   Cu670   1.946   .     S
O664   C504    1.310   1_655 S
O665   Cu670   1.955   .     S
O665   C667    1.304   .     A
O666   C668    1.304   .     A
O666   Cu669   1.955   .     S
C667   C671    1.461   .     S
C667   O499    1.310   1_655 S
C668   C672    1.460   .     S
Cu669  N713    2.046   .     S
Cu670  N714    2.046   .     S
Cu670  Cu505   2.723   1_655 S
C671   C675    1.388   .     A
C671   C677    1.400   .     A
C672   C676    1.388   .     A
C672   C678    1.400   .     A
C673   H693    1.062   .     S
C673   C681    1.399   .     A
C673   C675    1.388   .     A
C674   C682    1.399   .     A
C674   H694    1.062   .     S
C674   C676    1.388   .     A
C675   H528    1.083   1_655 S
C677   H690    1.077   .     S
C677   C679    1.411   .     A
C678   C680    1.411   .     A
C678   H689    1.077   .     S
C679   C683    1.416   .     A
C679   C681    1.410   .     A
C680   C682    1.410   .     A
C680   C684    1.416   .     A
C681   C1425   1.405   .     S
C682   C1426   1.405   1_554 S
C683   C686    1.399   .     A
C683   C1422   1.424   .     S
C684   C685    1.399   .     A
C684   C1421   1.424   1_554 S
C685   H695    1.077   .     S
C685   C687    1.386   .     A
C686   H696    1.077   .     S
C686   C688    1.386   .     A
C687   N715    1.414   .     S
C687   C1419   1.405   1_554 S
C688   N721    1.414   .     S
C688   C1420   1.405   .     S
H691   C512    1.083   1_655 S
C697   N727    1.423   .     S
C697   C704    1.413   .     A
C698   C703    1.413   .     A
C698   N733    1.424   .     S
C698   C208    1.388   1_565 S
C699   H701    1.084   .     S
C699   C205    1.388   1_565 S
C699   C539    1.400   1_655 S
C700   H702    1.084   .     S
C704   C536    1.400   1_655 S
C705   H707    1.082   .     S
C705   N714    1.371   .     A
C705   C709    1.429   .     A
C706   C710    1.429   .     A
C706   H708    1.082   .     S
C706   N713    1.371   .     A
C709   H711    1.082   .     S
C709   N713    1.372   .     A
C710   H712    1.082   .     S
C710   N714    1.372   .     A
N715   H716    1.031   .     S
N715   C717    1.449   .     S
C717   H719    1.111   .     S
C717   H720    1.110   .     S
C717   H718    1.109   .     S
N721   C723    1.449   .     S
N721   H722    1.031   .     S
C723   H724    1.109   .     S
C723   H725    1.111   .     S
C723   H726    1.110   .     S
N727   C729    1.447   .     S
N727   H728    1.032   .     S
C729   H731    1.112   .     S
C729   H730    1.112   .     S
C729   H732    1.111   .     S
N733   H734    1.032   .     S
N733   C735    1.448   .     S
C735   H737    1.110   .     S
C735   H738    1.111   .     S
C735   H736    1.112   .     S
O739   Cu751   1.967   .     S
O739   C907    1.309   1_455 S
O740   Cu752   1.967   .     S
O740   C826    1.309   .     S
O741   Cu752   1.972   .     S
O741   C743    1.302   .     A
O742   Cu751   1.972   .     S
O742   C744    1.302   .     A
C743   C786    1.456   .     S
C743   O821    1.309   .     S
C744   C785    1.456   .     S
C744   O904    1.309   1_455 S
O745   Cu751   1.946   .     S
O745   C913    1.310   1_455 S
O746   Cu752   1.946   .     S
O746   C832    1.310   .     S
O747   Cu752   1.955   .     S
O747   C749    1.304   .     A
O748   C750    1.304   .     A
O748   Cu751   1.955   .     S
C749   C753    1.461   .     S
C749   O827    1.310   .     S
C750   C754    1.460   .     S
C750   O910    1.310   1_455 S
Cu751  N795    2.046   .     S
Cu751  Cu916   2.723   1_455 S
Cu752  N796    2.046   .     S
Cu752  Cu833   2.723   .     S
C753   C757    1.388   .     A
C753   C759    1.400   .     A
C754   C758    1.388   .     A
C754   C760    1.400   .     A
C755   H775    1.062   .     S
C755   C763    1.399   .     A
C755   C757    1.388   .     A
C756   C764    1.399   .     A
C756   H776    1.062   .     S
C756   C758    1.388   .     A
C757   H856    1.083   .     S
C758   H937    1.083   1_455 S
C759   H772    1.077   .     S
C759   C761    1.411   .     A
C760   C762    1.411   .     A
C760   H771    1.077   .     S
C761   C765    1.416   .     A
C761   C763    1.410   .     A
C762   C764    1.410   .     A
C762   C766    1.416   .     A
C763   C31     1.405   1_556 S
C765   C768    1.399   .     A
C765   C28     1.424   1_556 S
C766   C767    1.399   .     A
C767   H777    1.077   .     S
C767   C769    1.386   .     A
C768   H778    1.077   .     S
C768   C770    1.386   .     A
C769   N797    1.414   .     S
C770   N803    1.414   .     S
C770   C26     1.405   1_556 S
H773   C840    1.083   .     S
H774   C921    1.083   1_455 S
C779   N809    1.423   .     S
C779   C786    1.413   .     A
C779   C1273   1.388   1_545 S
C780   C785    1.413   .     A
C780   N815    1.424   .     S
C780   C1028   1.388   .     S
C781   H783    1.084   .     S
C781   C1025   1.388   .     S
C781   C867    1.400   .     S
C782   H784    1.084   .     S
C782   C1272   1.388   1_545 S
C782   C950    1.400   1_455 S
C785   C945    1.400   1_455 S
C786   C864    1.400   .     S
C787   H789    1.082   .     S
C787   N796    1.371   .     A
C787   C791    1.429   .     A
C788   C792    1.429   .     A
C788   H790    1.082   .     S
C788   N795    1.371   .     A
C791   H793    1.082   .     S
C791   N795    1.372   .     A
C792   H794    1.082   .     S
C792   N796    1.372   .     A
N797   H798    1.031   .     S
N797   C799    1.449   .     S
C799   H801    1.111   .     S
C799   H802    1.110   .     S
C799   H800    1.109   .     S
N803   C805    1.449   .     S
N803   H804    1.031   .     S
C805   H806    1.109   .     S
C805   H807    1.111   .     S
C805   H808    1.110   .     S
N809   C811    1.447   .     S
N809   H810    1.032   .     S
C811   H813    1.112   .     S
C811   H812    1.112   .     S
C811   H814    1.111   .     S
N815   H816    1.032   .     S
N815   C817    1.448   .     S
C817   H819    1.110   .     S
C817   H820    1.111   .     S
C817   H818    1.112   .     S
O821   Cu833   1.967   .     S
O822   Cu834   1.967   .     S
O822   C908    1.309   .     S
O823   Cu834   1.972   .     S
O823   C825    1.302   .     A
O824   Cu833   1.972   .     S
O824   C826    1.302   .     A
C825   C868    1.456   .     S
C825   O903    1.309   .     S
C826   C867    1.456   .     S
O827   Cu833   1.946   .     S
O828   Cu834   1.946   .     S
O828   C914    1.310   .     S
O829   Cu834   1.955   .     S
O829   C831    1.304   .     A
O830   C832    1.304   .     A
O830   Cu833   1.955   .     S
C831   C835    1.461   .     S
C831   O909    1.310   .     S
C832   C836    1.460   .     S
Cu833  N877    2.046   .     S
Cu834  N878    2.046   .     S
Cu834  Cu915   2.723   .     S
C835   C839    1.388   .     A
C835   C841    1.400   .     A
C836   C840    1.388   .     A
C836   C842    1.400   .     A
C837   H857    1.062   .     S
C837   C845    1.399   .     A
C837   C839    1.388   .     A
C838   C846    1.399   .     A
C838   H858    1.062   .     S
C838   C840    1.388   .     A
C839   H938    1.083   .     S
C841   H854    1.077   .     S
C841   C843    1.411   .     A
C842   C844    1.411   .     A
C842   H853    1.077   .     S
C843   C847    1.416   .     A
C843   C845    1.410   .     A
C844   C846    1.410   .     A
C844   C848    1.416   .     A
C845   C113    1.405   1_556 S
C847   C850    1.399   .     A
C847   C110    1.424   1_556 S
C848   C849    1.399   .     A
C849   H859    1.077   .     S
C849   C851    1.386   .     A
C850   H860    1.077   .     S
C850   C852    1.386   .     A
C851   N879    1.414   .     S
C852   N885    1.414   .     S
C852   C108    1.405   1_556 S
H855   C922    1.083   .     S
C861   N891    1.423   .     S
C861   C868    1.413   .     A
C861   C1355   1.388   1_545 S
C862   C867    1.413   .     A
C862   N897    1.424   .     S
C862   C1110   1.388   .     S
C863   H865    1.084   .     S
C863   C1107   1.388   .     S
C863   C949    1.400   .     S
C864   H866    1.084   .     S
C864   C1354   1.388   1_545 S
C868   C946    1.400   .     S
C869   H871    1.082   .     S
C869   N878    1.371   .     A
C869   C873    1.429   .     A
C870   C874    1.429   .     A
C870   H872    1.082   .     S
C870   N877    1.371   .     A
C873   H875    1.082   .     S
C873   N877    1.372   .     A
C874   H876    1.082   .     S
C874   N878    1.372   .     A
N879   H880    1.031   .     S
N879   C881    1.449   .     S
C881   H883    1.111   .     S
C881   H884    1.110   .     S
C881   H882    1.109   .     S
N885   C887    1.449   .     S
N885   H886    1.031   .     S
C887   H888    1.109   .     S
C887   H889    1.111   .     S
C887   H890    1.110   .     S
N891   C893    1.447   .     S
N891   H892    1.032   .     S
C893   H895    1.112   .     S
C893   H894    1.112   .     S
C893   H896    1.111   .     S
N897   H898    1.032   .     S
N897   C899    1.448   .     S
C899   H901    1.110   .     S
C899   H902    1.111   .     S
C899   H900    1.112   .     S
O903   Cu915   1.967   .     S
O904   Cu916   1.967   .     S
O904   C744    1.309   1_655 S
O905   Cu916   1.972   .     S
O905   C907    1.302   .     A
O906   Cu915   1.972   .     S
O906   C908    1.302   .     A
C907   C950    1.456   .     S
C907   O739    1.309   1_655 S
C908   C949    1.456   .     S
O909   Cu915   1.946   .     S
O910   Cu916   1.946   .     S
O910   C750    1.310   1_655 S
O911   Cu916   1.955   .     S
O911   C913    1.304   .     A
O912   C914    1.304   .     A
O912   Cu915   1.955   .     S
C913   C917    1.461   .     S
C913   O745    1.310   1_655 S
C914   C918    1.460   .     S
Cu915  N959    2.046   .     S
Cu916  N960    2.046   .     S
Cu916  Cu751   2.723   1_655 S
C917   C921    1.388   .     A
C917   C923    1.400   .     A
C918   C922    1.388   .     A
C918   C924    1.400   .     A
C919   H939    1.062   .     S
C919   C927    1.399   .     A
C919   C921    1.388   .     A
C920   C928    1.399   .     A
C920   H940    1.062   .     S
C920   C922    1.388   .     A
C921   H774    1.083   1_655 S
C923   H936    1.077   .     S
C923   C925    1.411   .     A
C924   C926    1.411   .     A
C924   H935    1.077   .     S
C925   C929    1.416   .     A
C925   C927    1.410   .     A
C926   C928    1.410   .     A
C926   C930    1.416   .     A
C927   C195    1.405   1_556 S
C929   C932    1.399   .     A
C929   C192    1.424   1_556 S
C930   C931    1.399   .     A
C931   H941    1.077   .     S
C931   C933    1.386   .     A
C932   H942    1.077   .     S
C932   C934    1.386   .     A
C933   N961    1.414   .     S
C934   N967    1.414   .     S
C934   C190    1.405   1_556 S
H937   C758    1.083   1_655 S
C943   N973    1.423   .     S
C943   C950    1.413   .     A
C943   C1437   1.388   1_545 S
C944   C949    1.413   .     A
C944   N979    1.424   .     S
C944   C1192   1.388   .     S
C945   H947    1.084   .     S
C945   C1189   1.388   .     S
C945   C785    1.400   1_655 S
C946   H948    1.084   .     S
C946   C1436   1.388   1_545 S
C950   C782    1.400   1_655 S
C951   H953    1.082   .     S
C951   N960    1.371   .     A
C951   C955    1.429   .     A
C952   C956    1.429   .     A
C952   H954    1.082   .     S
C952   N959    1.371   .     A
C955   H957    1.082   .     S
C955   N959    1.372   .     A
C956   H958    1.082   .     S
C956   N960    1.372   .     A
N961   H962    1.031   .     S
N961   C963    1.449   .     S
C963   H965    1.111   .     S
C963   H966    1.110   .     S
C963   H964    1.109   .     S
N967   C969    1.449   .     S
N967   H968    1.031   .     S
C969   H970    1.109   .     S
C969   H971    1.111   .     S
C969   H972    1.110   .     S
N973   C975    1.447   .     S
N973   H974    1.032   .     S
C975   H977    1.112   .     S
C975   H976    1.112   .     S
C975   H978    1.111   .     S
N979   H980    1.032   .     S
N979   C981    1.448   .     S
C981   H983    1.110   .     S
C981   H984    1.111   .     S
C981   H982    1.112   .     S
O985   Cu997   1.967   .     S
O985   C1153   1.309   1_455 S
O986   Cu998   1.967   .     S
O986   C1072   1.309   .     S
O987   Cu998   1.972   .     S
O987   C989    1.302   .     A
O988   Cu997   1.972   .     S
O988   C990    1.302   .     A
C989   C1032   1.456   .     S
C989   O1067   1.309   .     S
C990   C1031   1.456   .     S
C990   O1150   1.309   1_455 S
O991   Cu997   1.946   .     S
O991   C1159   1.310   1_455 S
O992   Cu998   1.946   .     S
O992   C1078   1.310   .     S
O993   Cu998   1.955   .     S
O993   C995    1.304   .     A
O994   C996    1.304   .     A
O994   Cu997   1.955   .     S
C995   C999    1.461   .     S
C995   O1073   1.310   .     S
C996   C1000   1.460   .     S
C996   O1156   1.310   1_455 S
Cu997  N1041   2.046   .     S
Cu997  Cu1162  2.723   1_455 S
Cu998  N1042   2.046   .     S
Cu998  Cu1079  2.723   .     S
C999   C1003   1.388   .     A
C999   C1005   1.400   .     A
C1000  C1004   1.388   .     A
C1000  C1006   1.400   .     A
C1001  H1021   1.062   .     S
C1001  C1009   1.399   .     A
C1001  C1003   1.388   .     A
C1002  C1010   1.399   .     A
C1002  H1022   1.062   .     S
C1002  C1004   1.388   .     A
C1003  H1102   1.083   .     S
C1004  H1183   1.083   1_455 S
C1005  H1018   1.077   .     S
C1005  C1007   1.411   .     A
C1006  C1008   1.411   .     A
C1006  H1017   1.077   .     S
C1007  C1011   1.416   .     A
C1007  C1009   1.410   .     A
C1008  C1010   1.410   .     A
C1008  C1012   1.416   .     A
C1009  C277    1.405   1_556 S
C1011  C1014   1.399   .     A
C1011  C274    1.424   1_556 S
C1012  C1013   1.399   .     A
C1013  H1023   1.077   .     S
C1013  C1015   1.386   .     A
C1014  H1024   1.077   .     S
C1014  C1016   1.386   .     A
C1015  N1043   1.414   .     S
C1016  N1049   1.414   .     S
C1016  C272    1.405   1_556 S
H1019  C1086   1.083   .     S
H1020  C1167   1.083   1_455 S
C1025  N1055   1.423   .     S
C1025  C1032   1.413   .     A
C1026  C1031   1.413   .     A
C1026  N1061   1.424   .     S
C1026  C1274   1.388   .     S
C1027  H1029   1.084   .     S
C1027  C1271   1.388   .     S
C1027  C1113   1.400   .     S
C1028  H1030   1.084   .     S
C1028  C1196   1.400   1_455 S
C1031  C1191   1.400   1_455 S
C1032  C1110   1.400   .     S
C1033  H1035   1.082   .     S
C1033  N1042   1.371   .     A
C1033  C1037   1.429   .     A
C1034  C1038   1.429   .     A
C1034  H1036   1.082   .     S
C1034  N1041   1.371   .     A
C1037  H1039   1.082   .     S
C1037  N1041   1.372   .     A
C1038  H1040   1.082   .     S
C1038  N1042   1.372   .     A
N1043  H1044   1.031   .     S
N1043  C1045   1.449   .     S
C1045  H1047   1.111   .     S
C1045  H1048   1.110   .     S
C1045  H1046   1.109   .     S
N1049  C1051   1.449   .     S
N1049  H1050   1.031   .     S
C1051  H1052   1.109   .     S
C1051  H1053   1.111   .     S
C1051  H1054   1.110   .     S
N1055  C1057   1.447   .     S
N1055  H1056   1.032   .     S
C1057  H1059   1.112   .     S
C1057  H1058   1.112   .     S
C1057  H1060   1.111   .     S
N1061  H1062   1.032   .     S
N1061  C1063   1.448   .     S
C1063  H1065   1.110   .     S
C1063  H1066   1.111   .     S
C1063  H1064   1.112   .     S
O1067  Cu1079  1.967   .     S
O1068  Cu1080  1.967   .     S
O1068  C1154   1.309   .     S
O1069  Cu1080  1.972   .     S
O1069  C1071   1.302   .     A
O1070  Cu1079  1.972   .     S
O1070  C1072   1.302   .     A
C1071  C1114   1.456   .     S
C1071  O1149   1.309   .     S
C1072  C1113   1.456   .     S
O1073  Cu1079  1.946   .     S
O1074  Cu1080  1.946   .     S
O1074  C1160   1.310   .     S
O1075  Cu1080  1.955   .     S
O1075  C1077   1.304   .     A
O1076  C1078   1.304   .     A
O1076  Cu1079  1.955   .     S
C1077  C1081   1.461   .     S
C1077  O1155   1.310   .     S
C1078  C1082   1.460   .     S
Cu1079 N1123   2.046   .     S
Cu1080 N1124   2.046   .     S
Cu1080 Cu1161  2.723   .     S
C1081  C1085   1.388   .     A
C1081  C1087   1.400   .     A
C1082  C1086   1.388   .     A
C1082  C1088   1.400   .     A
C1083  H1103   1.062   .     S
C1083  C1091   1.399   .     A
C1083  C1085   1.388   .     A
C1084  C1092   1.399   .     A
C1084  H1104   1.062   .     S
C1084  C1086   1.388   .     A
C1085  H1184   1.083   .     S
C1087  H1100   1.077   .     S
C1087  C1089   1.411   .     A
C1088  C1090   1.411   .     A
C1088  H1099   1.077   .     S
C1089  C1093   1.416   .     A
C1089  C1091   1.410   .     A
C1090  C1092   1.410   .     A
C1090  C1094   1.416   .     A
C1091  C359    1.405   1_556 S
C1093  C1096   1.399   .     A
C1093  C356    1.424   1_556 S
C1094  C1095   1.399   .     A
C1095  H1105   1.077   .     S
C1095  C1097   1.386   .     A
C1096  H1106   1.077   .     S
C1096  C1098   1.386   .     A
C1097  N1125   1.414   .     S
C1098  N1131   1.414   .     S
C1098  C354    1.405   1_556 S
H1101  C1168   1.083   .     S
C1107  N1137   1.423   .     S
C1107  C1114   1.413   .     A
C1108  C1113   1.413   .     A
C1108  N1143   1.424   .     S
C1108  C1356   1.388   .     S
C1109  H1111   1.084   .     S
C1109  C1353   1.388   .     S
C1109  C1195   1.400   .     S
C1110  H1112   1.084   .     S
C1114  C1192   1.400   .     S
C1115  H1117   1.082   .     S
C1115  N1124   1.371   .     A
C1115  C1119   1.429   .     A
C1116  C1120   1.429   .     A
C1116  H1118   1.082   .     S
C1116  N1123   1.371   .     A
C1119  H1121   1.082   .     S
C1119  N1123   1.372   .     A
C1120  H1122   1.082   .     S
C1120  N1124   1.372   .     A
N1125  H1126   1.031   .     S
N1125  C1127   1.449   .     S
C1127  H1129   1.111   .     S
C1127  H1130   1.110   .     S
C1127  H1128   1.109   .     S
N1131  C1133   1.449   .     S
N1131  H1132   1.031   .     S
C1133  H1134   1.109   .     S
C1133  H1135   1.111   .     S
C1133  H1136   1.110   .     S
N1137  C1139   1.447   .     S
N1137  H1138   1.032   .     S
C1139  H1141   1.112   .     S
C1139  H1140   1.112   .     S
C1139  H1142   1.111   .     S
N1143  H1144   1.032   .     S
N1143  C1145   1.448   .     S
C1145  H1147   1.110   .     S
C1145  H1148   1.111   .     S
C1145  H1146   1.112   .     S
O1149  Cu1161  1.967   .     S
O1150  Cu1162  1.967   .     S
O1150  C990    1.309   1_655 S
O1151  Cu1162  1.972   .     S
O1151  C1153   1.302   .     A
O1152  Cu1161  1.972   .     S
O1152  C1154   1.302   .     A
C1153  C1196   1.456   .     S
C1153  O985    1.309   1_655 S
C1154  C1195   1.456   .     S
O1155  Cu1161  1.946   .     S
O1156  Cu1162  1.946   .     S
O1156  C996    1.310   1_655 S
O1157  Cu1162  1.955   .     S
O1157  C1159   1.304   .     A
O1158  C1160   1.304   .     A
O1158  Cu1161  1.955   .     S
C1159  C1163   1.461   .     S
C1159  O991    1.310   1_655 S
C1160  C1164   1.460   .     S
Cu1161 N1205   2.046   .     S
Cu1162 N1206   2.046   .     S
Cu1162 Cu997   2.723   1_655 S
C1163  C1167   1.388   .     A
C1163  C1169   1.400   .     A
C1164  C1168   1.388   .     A
C1164  C1170   1.400   .     A
C1165  H1185   1.062   .     S
C1165  C1173   1.399   .     A
C1165  C1167   1.388   .     A
C1166  C1174   1.399   .     A
C1166  H1186   1.062   .     S
C1166  C1168   1.388   .     A
C1167  H1020   1.083   1_655 S
C1169  H1182   1.077   .     S
C1169  C1171   1.411   .     A
C1170  C1172   1.411   .     A
C1170  H1181   1.077   .     S
C1171  C1175   1.416   .     A
C1171  C1173   1.410   .     A
C1172  C1174   1.410   .     A
C1172  C1176   1.416   .     A
C1173  C441    1.405   1_556 S
C1175  C1178   1.399   .     A
C1175  C438    1.424   1_556 S
C1176  C1177   1.399   .     A
C1177  H1187   1.077   .     S
C1177  C1179   1.386   .     A
C1178  H1188   1.077   .     S
C1178  C1180   1.386   .     A
C1179  N1207   1.414   .     S
C1180  N1213   1.414   .     S
C1180  C436    1.405   1_556 S
H1183  C1004   1.083   1_655 S
C1189  N1219   1.423   .     S
C1189  C1196   1.413   .     A
C1190  C1195   1.413   .     A
C1190  N1225   1.424   .     S
C1190  C1438   1.388   .     S
C1191  H1193   1.084   .     S
C1191  C1435   1.388   .     S
C1191  C1031   1.400   1_655 S
C1192  H1194   1.084   .     S
C1196  C1028   1.400   1_655 S
C1197  H1199   1.082   .     S
C1197  N1206   1.371   .     A
C1197  C1201   1.429   .     A
C1198  C1202   1.429   .     A
C1198  H1200   1.082   .     S
C1198  N1205   1.371   .     A
C1201  H1203   1.082   .     S
C1201  N1205   1.372   .     A
C1202  H1204   1.082   .     S
C1202  N1206   1.372   .     A
N1207  H1208   1.031   .     S
N1207  C1209   1.449   .     S
C1209  H1211   1.111   .     S
C1209  H1212   1.110   .     S
C1209  H1210   1.109   .     S
N1213  C1215   1.449   .     S
N1213  H1214   1.031   .     S
C1215  H1216   1.109   .     S
C1215  H1217   1.111   .     S
C1215  H1218   1.110   .     S
N1219  C1221   1.447   .     S
N1219  H1220   1.032   .     S
C1221  H1223   1.112   .     S
C1221  H1222   1.112   .     S
C1221  H1224   1.111   .     S
N1225  H1226   1.032   .     S
N1225  C1227   1.448   .     S
C1227  H1229   1.110   .     S
C1227  H1230   1.111   .     S
C1227  H1228   1.112   .     S
O1231  Cu1243  1.967   .     S
O1231  C1399   1.309   1_455 S
O1232  Cu1244  1.967   .     S
O1232  C1318   1.309   .     S
O1233  Cu1244  1.972   .     S
O1233  C1235   1.302   .     A
O1234  Cu1243  1.972   .     S
O1234  C1236   1.302   .     A
C1235  C1278   1.456   .     S
C1235  O1313   1.309   .     S
C1236  C1277   1.456   .     S
C1236  O1396   1.309   1_455 S
O1237  Cu1243  1.946   .     S
O1237  C1405   1.310   1_455 S
O1238  Cu1244  1.946   .     S
O1238  C1324   1.310   .     S
O1239  Cu1244  1.955   .     S
O1239  C1241   1.304   .     A
O1240  C1242   1.304   .     A
O1240  Cu1243  1.955   .     S
C1241  C1245   1.461   .     S
C1241  O1319   1.310   .     S
C1242  C1246   1.460   .     S
C1242  O1402   1.310   1_455 S
Cu1243 N1287   2.046   .     S
Cu1243 Cu1408  2.723   1_455 S
Cu1244 N1288   2.046   .     S
Cu1244 Cu1325  2.723   .     S
C1245  C1249   1.388   .     A
C1245  C1251   1.400   .     A
C1246  C1250   1.388   .     A
C1246  C1252   1.400   .     A
C1247  H1267   1.062   .     S
C1247  C1255   1.399   .     A
C1247  C1249   1.388   .     A
C1248  C1256   1.399   .     A
C1248  H1268   1.062   .     S
C1248  C1250   1.388   .     A
C1249  H1348   1.083   .     S
C1250  H1429   1.083   1_455 S
C1251  H1264   1.077   .     S
C1251  C1253   1.411   .     A
C1252  C1254   1.411   .     A
C1252  H1263   1.077   .     S
C1253  C1257   1.416   .     A
C1253  C1255   1.410   .     A
C1254  C1256   1.410   .     A
C1254  C1258   1.416   .     A
C1255  C523    1.405   1_556 S
C1257  C1260   1.399   .     A
C1257  C520    1.424   1_556 S
C1258  C1259   1.399   .     A
C1259  H1269   1.077   .     S
C1259  C1261   1.386   .     A
C1260  H1270   1.077   .     S
C1260  C1262   1.386   .     A
C1261  N1289   1.414   .     S
C1262  N1295   1.414   .     S
C1262  C518    1.405   1_556 S
H1265  C1332   1.083   .     S
H1266  C1413   1.083   1_455 S
C1271  N1301   1.423   .     S
C1271  C1278   1.413   .     A
C1272  C1277   1.413   .     A
C1272  N1307   1.424   .     S
C1272  C782    1.388   1_565 S
C1273  H1275   1.084   .     S
C1273  C779    1.388   1_565 S
C1273  C1359   1.400   .     S
C1274  H1276   1.084   .     S
C1274  C1442   1.400   1_455 S
C1277  C1437   1.400   1_455 S
C1278  C1356   1.400   .     S
C1279  H1281   1.082   .     S
C1279  N1288   1.371   .     A
C1279  C1283   1.429   .     A
C1280  C1284   1.429   .     A
C1280  H1282   1.082   .     S
C1280  N1287   1.371   .     A
C1283  H1285   1.082   .     S
C1283  N1287   1.372   .     A
C1284  H1286   1.082   .     S
C1284  N1288   1.372   .     A
N1289  H1290   1.031   .     S
N1289  C1291   1.449   .     S
C1291  H1293   1.111   .     S
C1291  H1294   1.110   .     S
C1291  H1292   1.109   .     S
N1295  C1297   1.449   .     S
N1295  H1296   1.031   .     S
C1297  H1298   1.109   .     S
C1297  H1299   1.111   .     S
C1297  H1300   1.110   .     S
N1301  C1303   1.447   .     S
N1301  H1302   1.032   .     S
C1303  H1305   1.112   .     S
C1303  H1304   1.112   .     S
C1303  H1306   1.111   .     S
N1307  H1308   1.032   .     S
N1307  C1309   1.448   .     S
C1309  H1311   1.110   .     S
C1309  H1312   1.111   .     S
C1309  H1310   1.112   .     S
O1313  Cu1325  1.967   .     S
O1314  Cu1326  1.967   .     S
O1314  C1400   1.309   .     S
O1315  Cu1326  1.972   .     S
O1315  C1317   1.302   .     A
O1316  Cu1325  1.972   .     S
O1316  C1318   1.302   .     A
C1317  C1360   1.456   .     S
C1317  O1395   1.309   .     S
C1318  C1359   1.456   .     S
O1319  Cu1325  1.946   .     S
O1320  Cu1326  1.946   .     S
O1320  C1406   1.310   .     S
O1321  Cu1326  1.955   .     S
O1321  C1323   1.304   .     A
O1322  C1324   1.304   .     A
O1322  Cu1325  1.955   .     S
C1323  C1327   1.461   .     S
C1323  O1401   1.310   .     S
C1324  C1328   1.460   .     S
Cu1325 N1369   2.046   .     S
Cu1326 N1370   2.046   .     S
Cu1326 Cu1407  2.723   .     S
C1327  C1331   1.388   .     A
C1327  C1333   1.400   .     A
C1328  C1332   1.388   .     A
C1328  C1334   1.400   .     A
C1329  H1349   1.062   .     S
C1329  C1337   1.399   .     A
C1329  C1331   1.388   .     A
C1330  C1338   1.399   .     A
C1330  H1350   1.062   .     S
C1330  C1332   1.388   .     A
C1331  H1430   1.083   .     S
C1333  H1346   1.077   .     S
C1333  C1335   1.411   .     A
C1334  C1336   1.411   .     A
C1334  H1345   1.077   .     S
C1335  C1339   1.416   .     A
C1335  C1337   1.410   .     A
C1336  C1338   1.410   .     A
C1336  C1340   1.416   .     A
C1337  C605    1.405   1_556 S
C1339  C1342   1.399   .     A
C1339  C602    1.424   1_556 S
C1340  C1341   1.399   .     A
C1341  H1351   1.077   .     S
C1341  C1343   1.386   .     A
C1342  H1352   1.077   .     S
C1342  C1344   1.386   .     A
C1343  N1371   1.414   .     S
C1344  N1377   1.414   .     S
C1344  C600    1.405   1_556 S
H1347  C1414   1.083   .     S
C1353  N1383   1.423   .     S
C1353  C1360   1.413   .     A
C1354  C1359   1.413   .     A
C1354  N1389   1.424   .     S
C1354  C864    1.388   1_565 S
C1355  H1357   1.084   .     S
C1355  C861    1.388   1_565 S
C1355  C1441   1.400   .     S
C1356  H1358   1.084   .     S
C1360  C1438   1.400   .     S
C1361  H1363   1.082   .     S
C1361  N1370   1.371   .     A
C1361  C1365   1.429   .     A
C1362  C1366   1.429   .     A
C1362  H1364   1.082   .     S
C1362  N1369   1.371   .     A
C1365  H1367   1.082   .     S
C1365  N1369   1.372   .     A
C1366  H1368   1.082   .     S
C1366  N1370   1.372   .     A
N1371  H1372   1.031   .     S
N1371  C1373   1.449   .     S
C1373  H1375   1.111   .     S
C1373  H1376   1.110   .     S
C1373  H1374   1.109   .     S
N1377  C1379   1.449   .     S
N1377  H1378   1.031   .     S
C1379  H1380   1.109   .     S
C1379  H1381   1.111   .     S
C1379  H1382   1.110   .     S
N1383  C1385   1.447   .     S
N1383  H1384   1.032   .     S
C1385  H1387   1.112   .     S
C1385  H1386   1.112   .     S
C1385  H1388   1.111   .     S
N1389  H1390   1.032   .     S
N1389  C1391   1.448   .     S
C1391  H1393   1.110   .     S
C1391  H1394   1.111   .     S
C1391  H1392   1.112   .     S
O1395  Cu1407  1.967   .     S
O1396  Cu1408  1.967   .     S
O1396  C1236   1.309   1_655 S
O1397  Cu1408  1.972   .     S
O1397  C1399   1.302   .     A
O1398  Cu1407  1.972   .     S
O1398  C1400   1.302   .     A
C1399  C1442   1.456   .     S
C1399  O1231   1.309   1_655 S
C1400  C1441   1.456   .     S
O1401  Cu1407  1.946   .     S
O1402  Cu1408  1.946   .     S
O1402  C1242   1.310   1_655 S
O1403  Cu1408  1.955   .     S
O1403  C1405   1.304   .     A
O1404  C1406   1.304   .     A
O1404  Cu1407  1.955   .     S
C1405  C1409   1.461   .     S
C1405  O1237   1.310   1_655 S
C1406  C1410   1.460   .     S
Cu1407 N1451   2.046   .     S
Cu1408 N1452   2.046   .     S
Cu1408 Cu1243  2.723   1_655 S
C1409  C1413   1.388   .     A
C1409  C1415   1.400   .     A
C1410  C1414   1.388   .     A
C1410  C1416   1.400   .     A
C1411  H1431   1.062   .     S
C1411  C1419   1.399   .     A
C1411  C1413   1.388   .     A
C1412  C1420   1.399   .     A
C1412  H1432   1.062   .     S
C1412  C1414   1.388   .     A
C1413  H1266   1.083   1_655 S
C1415  H1428   1.077   .     S
C1415  C1417   1.411   .     A
C1416  C1418   1.411   .     A
C1416  H1427   1.077   .     S
C1417  C1421   1.416   .     A
C1417  C1419   1.410   .     A
C1418  C1420   1.410   .     A
C1418  C1422   1.416   .     A
C1419  C687    1.405   1_556 S
C1421  C1424   1.399   .     A
C1421  C684    1.424   1_556 S
C1422  C1423   1.399   .     A
C1423  H1433   1.077   .     S
C1423  C1425   1.386   .     A
C1424  H1434   1.077   .     S
C1424  C1426   1.386   .     A
C1425  N1453   1.414   .     S
C1426  N1459   1.414   .     S
C1426  C682    1.405   1_556 S
H1429  C1250   1.083   1_655 S
C1435  N1465   1.423   .     S
C1435  C1442   1.413   .     A
C1436  C1441   1.413   .     A
C1436  N1471   1.424   .     S
C1436  C946    1.388   1_565 S
C1437  H1439   1.084   .     S
C1437  C943    1.388   1_565 S
C1437  C1277   1.400   1_655 S
C1438  H1440   1.084   .     S
C1442  C1274   1.400   1_655 S
C1443  H1445   1.082   .     S
C1443  N1452   1.371   .     A
C1443  C1447   1.429   .     A
C1444  C1448   1.429   .     A
C1444  H1446   1.082   .     S
C1444  N1451   1.371   .     A
C1447  H1449   1.082   .     S
C1447  N1451   1.372   .     A
C1448  H1450   1.082   .     S
C1448  N1452   1.372   .     A
N1453  H1454   1.031   .     S
N1453  C1455   1.449   .     S
C1455  H1457   1.111   .     S
C1455  H1458   1.110   .     S
C1455  H1456   1.109   .     S
N1459  C1461   1.449   .     S
N1459  H1460   1.031   .     S
C1461  H1462   1.109   .     S
C1461  H1463   1.111   .     S
C1461  H1464   1.110   .     S
N1465  C1467   1.447   .     S
N1465  H1466   1.032   .     S
C1467  H1469   1.112   .     S
C1467  H1468   1.112   .     S
C1467  H1470   1.111   .     S
N1471  H1472   1.032   .     S
N1471  C1473   1.448   .     S
C1473  H1475   1.110   .     S
C1473  H1476   1.111   .     S
C1473  H1474   1.112   .     S
