data_str_m2_o1_o17_pcu_sym.226
_audit_creation_date              2020-01-03
_audit_creation_method            'Materials Studio'
_symmetry_space_group_name_H-M    'P1'
_symmetry_Int_Tables_number       1
_symmetry_cell_setting            triclinic
loop_
_symmetry_equiv_pos_as_xyz
  x,y,z
_cell_length_a                    33.0577
_cell_length_b                    29.2168
_cell_length_c                    30.0297
_cell_angle_alpha                 90.0020
_cell_angle_beta                  92.8808
_cell_angle_gamma                 89.9968
loop_
_atom_site_label
_atom_site_type_symbol
_atom_site_fract_x
_atom_site_fract_y
_atom_site_fract_z
_atom_site_U_iso_or_equiv
_atom_site_adp_type
_atom_site_occupancy
C1     C     0.08766   0.16672   0.25216   0.00000  Uiso   1.00
C2     C     0.24567   0.16672   0.24785   0.00000  Uiso   1.00
C3     C     0.09266   0.16405   0.01896   0.00000  Uiso   1.00
C4     C     0.24071   0.16415   0.48103   0.00000  Uiso   1.00
C5     C     0.02110   0.12544   0.25368   0.00000  Uiso   1.00
C6     C     0.31208   0.20907   0.24763   0.00000  Uiso   1.00
C7     C     0.31224   0.12544   0.24638   0.00000  Uiso   1.00
C8     C     0.02126   0.20907   0.25237   0.00000  Uiso   1.00
C9     C     0.29052   0.16709   0.24628   0.00000  Uiso   1.00
C10    C     0.04281   0.16709   0.25374   0.00000  Uiso   1.00
C11    C     0.15800   0.02444   0.21153   0.00000  Uiso   1.00
C12    C     0.17225   0.30900   0.28890   0.00000  Uiso   1.00
C13    C     0.17532   0.02444   0.28847   0.00000  Uiso   1.00
C14    C     0.16108   0.30900   0.21111   0.00000  Uiso   1.00
C15    C     0.16569   0.16672   0.16482   0.00000  Uiso   1.00
C16    C     0.16766   0.16672   0.33518   0.00000  Uiso   1.00
C17    C     0.20356   0.17468   0.40885   0.00000  Uiso   1.00
C18    C     0.12979   0.17461   0.09115   0.00000  Uiso   1.00
C19    C     0.16750   0.16665   0.38338   0.00000  Uiso   1.00
C20    C     0.16585   0.16665   0.11662   0.00000  Uiso   1.00
C21    C     0.13080   0.15921   0.40370   0.00000  Uiso   1.00
C22    C     0.20258   0.15930   0.09630   0.00000  Uiso   1.00
C23    C     0.12963   0.16318   0.45058   0.00000  Uiso   1.00
C24    C     0.20374   0.16325   0.04942   0.00000  Uiso   1.00
C25    C     0.16672   0.16491   0.47650   0.00000  Uiso   1.00
C26    C     0.16665   0.16491   0.02351   0.00000  Uiso   1.00
C27    C     0.20393   0.16765   0.45536   0.00000  Uiso   1.00
C28    C     0.12943   0.16759   0.04464   0.00000  Uiso   1.00
C29    C     0.09257   0.16449   0.47218   0.00000  Uiso   1.00
C30    C     0.24080   0.16461   0.02782   0.00000  Uiso   1.00
Cu31   Cu    0.16667   0.21355   0.25000   0.00000  Uiso   1.00
Cu32   Cu    0.16667   0.11978   0.25000   0.00000  Uiso   1.00
N33    N     0.16667   0.28402   0.25000   0.00000  Uiso   1.00
N34    N     0.16667   0.04931   0.25000   0.00000  Uiso   1.00
O35    O     0.10655   0.20625   0.25000   0.00000  Uiso   1.00
O36    O     0.22679   0.12709   0.25001   0.00000  Uiso   1.00
O37    O     0.22679   0.20625   0.25001   0.00000  Uiso   1.00
O38    O     0.10655   0.12709   0.25000   0.00000  Uiso   1.00
O39    O     0.16666   0.20627   0.18513   0.00000  Uiso   1.00
O40    O     0.16668   0.12707   0.31487   0.00000  Uiso   1.00
O41    O     0.16668   0.20627   0.31487   0.00000  Uiso   1.00
O42    O     0.16666   0.12707   0.18513   0.00000  Uiso   1.00
N43    N     0.23606   0.19877   0.38953   0.00000  Uiso   1.00
H44    H     0.25131   0.22244   0.40958   0.00000  Uiso   1.00
C45    C     0.26089   0.17539   0.35839   0.00000  Uiso   1.00
H46    H     0.29016   0.16497   0.37494   0.00000  Uiso   1.00
H47    H     0.26770   0.19957   0.33141   0.00000  Uiso   1.00
H48    H     0.24570   0.14476   0.34380   0.00000  Uiso   1.00
N49    N     0.09726   0.19867   0.11047   0.00000  Uiso   1.00
H50    H     0.08199   0.22232   0.09041   0.00000  Uiso   1.00
C51    C     0.07244   0.17527   0.14160   0.00000  Uiso   1.00
H52    H     0.04321   0.16476   0.12503   0.00000  Uiso   1.00
H53    H     0.06556   0.19946   0.16854   0.00000  Uiso   1.00
H54    H     0.08768   0.14469   0.15625   0.00000  Uiso   1.00
N55    N     0.09492   0.14962   0.37680   0.00000  Uiso   1.00
H56    H     0.09130   0.16696   0.34702   0.00000  Uiso   1.00
C57    C     0.08299   0.10201   0.37418   0.00000  Uiso   1.00
H58    H     0.04953   0.09997   0.36942   0.00000  Uiso   1.00
H59    H     0.09224   0.08320   0.40524   0.00000  Uiso   1.00
H60    H     0.09666   0.08544   0.34530   0.00000  Uiso   1.00
N61    N     0.23849   0.14988   0.12321   0.00000  Uiso   1.00
H62    H     0.24201   0.16723   0.15300   0.00000  Uiso   1.00
C63    C     0.25053   0.10231   0.12591   0.00000  Uiso   1.00
H64    H     0.28395   0.10039   0.13131   0.00000  Uiso   1.00
H65    H     0.24185   0.08361   0.09462   0.00000  Uiso   1.00
H66    H     0.23643   0.08557   0.15442   0.00000  Uiso   1.00
N67    N     0.05508   0.16774   0.44692   0.00000  Uiso   1.00
H68    H     0.03253   0.14662   0.45716   0.00000  Uiso   1.00
C69    C     0.04194   0.21403   0.43702   0.00000  Uiso   1.00
H70    H     0.01437   0.21318   0.41434   0.00000  Uiso   1.00
H71    H     0.06588   0.23309   0.42009   0.00000  Uiso   1.00
H72    H     0.03476   0.23217   0.46817   0.00000  Uiso   1.00
N73    N     0.27829   0.16787   0.05306   0.00000  Uiso   1.00
H74    H     0.30083   0.14671   0.04285   0.00000  Uiso   1.00
C75    C     0.29146   0.21416   0.06291   0.00000  Uiso   1.00
H76    H     0.29871   0.23223   0.03175   0.00000  Uiso   1.00
H77    H     0.31898   0.21331   0.08566   0.00000  Uiso   1.00
H78    H     0.26750   0.23328   0.07975   0.00000  Uiso   1.00
N79    N     0.05606   0.15531   0.04041   0.00000  Uiso   1.00
H80    H     0.03129   0.17336   0.02795   0.00000  Uiso   1.00
C81    C     0.04819   0.10716   0.04746   0.00000  Uiso   1.00
H82    H     0.04008   0.08998   0.01525   0.00000  Uiso   1.00
H83    H     0.02283   0.10311   0.06995   0.00000  Uiso   1.00
H84    H     0.07527   0.09019   0.06338   0.00000  Uiso   1.00
N85    N     0.27730   0.15543   0.45957   0.00000  Uiso   1.00
H86    H     0.30208   0.17346   0.47204   0.00000  Uiso   1.00
C87    C     0.28517   0.10728   0.45249   0.00000  Uiso   1.00
H88    H     0.29338   0.09010   0.48468   0.00000  Uiso   1.00
H89    H     0.31047   0.10324   0.42991   0.00000  Uiso   1.00
H90    H     0.25806   0.09029   0.43666   0.00000  Uiso   1.00
N91    N     0.04122   0.08373   0.26543   0.00000  Uiso   1.00
H92    H     0.03143   0.06783   0.29354   0.00000  Uiso   1.00
C93    C     0.04941   0.05293   0.22942   0.00000  Uiso   1.00
H94    H     0.02666   0.02513   0.22690   0.00000  Uiso   1.00
H95    H     0.07938   0.03698   0.23663   0.00000  Uiso   1.00
H96    H     0.04922   0.07148   0.19717   0.00000  Uiso   1.00
N97    N     0.29108   0.25167   0.24418   0.00000  Uiso   1.00
H98    H     0.30146   0.27681   0.26586   0.00000  Uiso   1.00
C99    C     0.28328   0.26798   0.19908   0.00000  Uiso   1.00
H100   H     0.31197   0.27263   0.18194   0.00000  Uiso   1.00
H101   H     0.26754   0.30146   0.20005   0.00000  Uiso   1.00
H102   H     0.26376   0.24338   0.17979   0.00000  Uiso   1.00
N103   N     0.29213   0.08371   0.23469   0.00000  Uiso   1.00
H104   H     0.30193   0.06774   0.20662   0.00000  Uiso   1.00
C105   C     0.28392   0.05298   0.27075   0.00000  Uiso   1.00
H106   H     0.30670   0.02521   0.27337   0.00000  Uiso   1.00
H107   H     0.25397   0.03698   0.26353   0.00000  Uiso   1.00
H108   H     0.28404   0.07161   0.30296   0.00000  Uiso   1.00
N109   N     0.04225   0.25167   0.25583   0.00000  Uiso   1.00
H110   H     0.03186   0.27681   0.23416   0.00000  Uiso   1.00
C111   C     0.05006   0.26797   0.30093   0.00000  Uiso   1.00
H112   H     0.02137   0.27265   0.31806   0.00000  Uiso   1.00
H113   H     0.06583   0.30143   0.29996   0.00000  Uiso   1.00
H114   H     0.06955   0.24334   0.32022   0.00000  Uiso   1.00
N115   N     0.14833   0.04730   0.17054   0.00000  Uiso   1.00
H116   H     0.17248   0.05110   0.15048   0.00000  Uiso   1.00
C117   C     0.11055   0.03680   0.14601   0.00000  Uiso   1.00
H118   H     0.09350   0.06883   0.13956   0.00000  Uiso   1.00
H119   H     0.09148   0.01268   0.16426   0.00000  Uiso   1.00
H120   H     0.11657   0.02149   0.11318   0.00000  Uiso   1.00
N121   N     0.17609   0.28647   0.33071   0.00000  Uiso   1.00
H122   H     0.20490   0.27878   0.34316   0.00000  Uiso   1.00
C123   C     0.14503   0.29341   0.36254   0.00000  Uiso   1.00
H124   H     0.15847   0.30897   0.39357   0.00000  Uiso   1.00
H125   H     0.13172   0.26000   0.37133   0.00000  Uiso   1.00
H126   H     0.12039   0.31598   0.34899   0.00000  Uiso   1.00
N127   N     0.18493   0.04731   0.32948   0.00000  Uiso   1.00
H128   H     0.16076   0.05110   0.34950   0.00000  Uiso   1.00
C129   C     0.22270   0.03685   0.35406   0.00000  Uiso   1.00
H130   H     0.23971   0.06890   0.36052   0.00000  Uiso   1.00
H131   H     0.24180   0.01273   0.33585   0.00000  Uiso   1.00
H132   H     0.21666   0.02155   0.38689   0.00000  Uiso   1.00
N133   N     0.15724   0.28647   0.16929   0.00000  Uiso   1.00
H134   H     0.12843   0.27875   0.15685   0.00000  Uiso   1.00
C135   C     0.18829   0.29343   0.13745   0.00000  Uiso   1.00
H136   H     0.17484   0.30901   0.10644   0.00000  Uiso   1.00
H137   H     0.20160   0.26002   0.12863   0.00000  Uiso   1.00
H138   H     0.21293   0.31599   0.15101   0.00000  Uiso   1.00
C139   C     0.42099   0.16672   0.25216   0.00000  Uiso   1.00
C140   C     0.57901   0.16672   0.24785   0.00000  Uiso   1.00
C141   C     0.42599   0.16405   0.01896   0.00000  Uiso   1.00
C142   C     0.57404   0.16415   0.48103   0.00000  Uiso   1.00
C143   C     0.35443   0.12544   0.25368   0.00000  Uiso   1.00
C144   C     0.64541   0.20907   0.24763   0.00000  Uiso   1.00
C145   C     0.64558   0.12544   0.24638   0.00000  Uiso   1.00
C146   C     0.35459   0.20907   0.25237   0.00000  Uiso   1.00
C147   C     0.62385   0.16709   0.24628   0.00000  Uiso   1.00
C148   C     0.37615   0.16709   0.25374   0.00000  Uiso   1.00
C149   C     0.49134   0.02444   0.21153   0.00000  Uiso   1.00
C150   C     0.50558   0.30900   0.28890   0.00000  Uiso   1.00
C151   C     0.50865   0.02444   0.28847   0.00000  Uiso   1.00
C152   C     0.49441   0.30900   0.21111   0.00000  Uiso   1.00
C153   C     0.49902   0.16672   0.16482   0.00000  Uiso   1.00
C154   C     0.50099   0.16672   0.33518   0.00000  Uiso   1.00
C155   C     0.53689   0.17468   0.40885   0.00000  Uiso   1.00
C156   C     0.46312   0.17461   0.09115   0.00000  Uiso   1.00
C157   C     0.50084   0.16665   0.38338   0.00000  Uiso   1.00
C158   C     0.49919   0.16665   0.11662   0.00000  Uiso   1.00
C159   C     0.46413   0.15921   0.40370   0.00000  Uiso   1.00
C160   C     0.53591   0.15930   0.09630   0.00000  Uiso   1.00
C161   C     0.46296   0.16318   0.45058   0.00000  Uiso   1.00
C162   C     0.53707   0.16325   0.04942   0.00000  Uiso   1.00
C163   C     0.50005   0.16491   0.47650   0.00000  Uiso   1.00
C164   C     0.49998   0.16491   0.02351   0.00000  Uiso   1.00
C165   C     0.53726   0.16765   0.45536   0.00000  Uiso   1.00
C166   C     0.46276   0.16759   0.04464   0.00000  Uiso   1.00
C167   C     0.42590   0.16449   0.47218   0.00000  Uiso   1.00
C168   C     0.57413   0.16461   0.02782   0.00000  Uiso   1.00
Cu169  Cu    0.50000   0.21355   0.25000   0.00000  Uiso   1.00
Cu170  Cu    0.50000   0.11978   0.25000   0.00000  Uiso   1.00
N171   N     0.50000   0.28402   0.25000   0.00000  Uiso   1.00
N172   N     0.50000   0.04931   0.25000   0.00000  Uiso   1.00
O173   O     0.43988   0.20625   0.25000   0.00000  Uiso   1.00
O174   O     0.56012   0.12709   0.25001   0.00000  Uiso   1.00
O175   O     0.56012   0.20625   0.25001   0.00000  Uiso   1.00
O176   O     0.43988   0.12709   0.25000   0.00000  Uiso   1.00
O177   O     0.49999   0.20627   0.18513   0.00000  Uiso   1.00
O178   O     0.50001   0.12707   0.31487   0.00000  Uiso   1.00
O179   O     0.50001   0.20627   0.31487   0.00000  Uiso   1.00
O180   O     0.49999   0.12707   0.18513   0.00000  Uiso   1.00
N181   N     0.56940   0.19877   0.38953   0.00000  Uiso   1.00
H182   H     0.58465   0.22244   0.40958   0.00000  Uiso   1.00
C183   C     0.59422   0.17539   0.35839   0.00000  Uiso   1.00
H184   H     0.62349   0.16497   0.37494   0.00000  Uiso   1.00
H185   H     0.60103   0.19957   0.33141   0.00000  Uiso   1.00
H186   H     0.57903   0.14476   0.34380   0.00000  Uiso   1.00
N187   N     0.43059   0.19867   0.11047   0.00000  Uiso   1.00
H188   H     0.41532   0.22232   0.09041   0.00000  Uiso   1.00
C189   C     0.40578   0.17527   0.14160   0.00000  Uiso   1.00
H190   H     0.37654   0.16476   0.12503   0.00000  Uiso   1.00
H191   H     0.39889   0.19946   0.16854   0.00000  Uiso   1.00
H192   H     0.42101   0.14469   0.15625   0.00000  Uiso   1.00
N193   N     0.42825   0.14962   0.37680   0.00000  Uiso   1.00
H194   H     0.42463   0.16696   0.34702   0.00000  Uiso   1.00
C195   C     0.41632   0.10201   0.37418   0.00000  Uiso   1.00
H196   H     0.38286   0.09997   0.36942   0.00000  Uiso   1.00
H197   H     0.42557   0.08320   0.40524   0.00000  Uiso   1.00
H198   H     0.43000   0.08544   0.34530   0.00000  Uiso   1.00
N199   N     0.57182   0.14988   0.12321   0.00000  Uiso   1.00
H200   H     0.57535   0.16723   0.15300   0.00000  Uiso   1.00
C201   C     0.58387   0.10231   0.12591   0.00000  Uiso   1.00
H202   H     0.61728   0.10039   0.13131   0.00000  Uiso   1.00
H203   H     0.57519   0.08361   0.09462   0.00000  Uiso   1.00
H204   H     0.56977   0.08557   0.15442   0.00000  Uiso   1.00
N205   N     0.38841   0.16774   0.44692   0.00000  Uiso   1.00
H206   H     0.36587   0.14662   0.45716   0.00000  Uiso   1.00
C207   C     0.37527   0.21403   0.43702   0.00000  Uiso   1.00
H208   H     0.34771   0.21318   0.41434   0.00000  Uiso   1.00
H209   H     0.39921   0.23309   0.42009   0.00000  Uiso   1.00
H210   H     0.36809   0.23217   0.46817   0.00000  Uiso   1.00
N211   N     0.61163   0.16787   0.05306   0.00000  Uiso   1.00
H212   H     0.63416   0.14671   0.04285   0.00000  Uiso   1.00
C213   C     0.62479   0.21416   0.06291   0.00000  Uiso   1.00
H214   H     0.63204   0.23223   0.03175   0.00000  Uiso   1.00
H215   H     0.65231   0.21331   0.08566   0.00000  Uiso   1.00
H216   H     0.60083   0.23328   0.07975   0.00000  Uiso   1.00
N217   N     0.38939   0.15531   0.04041   0.00000  Uiso   1.00
H218   H     0.36462   0.17336   0.02795   0.00000  Uiso   1.00
C219   C     0.38152   0.10716   0.04746   0.00000  Uiso   1.00
H220   H     0.37341   0.08998   0.01525   0.00000  Uiso   1.00
H221   H     0.35616   0.10311   0.06995   0.00000  Uiso   1.00
H222   H     0.40861   0.09019   0.06338   0.00000  Uiso   1.00
N223   N     0.61064   0.15543   0.45957   0.00000  Uiso   1.00
H224   H     0.63541   0.17346   0.47204   0.00000  Uiso   1.00
C225   C     0.61851   0.10728   0.45249   0.00000  Uiso   1.00
H226   H     0.62672   0.09010   0.48468   0.00000  Uiso   1.00
H227   H     0.64381   0.10324   0.42991   0.00000  Uiso   1.00
H228   H     0.59140   0.09029   0.43666   0.00000  Uiso   1.00
N229   N     0.37455   0.08373   0.26543   0.00000  Uiso   1.00
H230   H     0.36476   0.06783   0.29354   0.00000  Uiso   1.00
C231   C     0.38274   0.05293   0.22942   0.00000  Uiso   1.00
H232   H     0.35999   0.02513   0.22690   0.00000  Uiso   1.00
H233   H     0.41272   0.03698   0.23663   0.00000  Uiso   1.00
H234   H     0.38255   0.07148   0.19717   0.00000  Uiso   1.00
N235   N     0.62441   0.25167   0.24418   0.00000  Uiso   1.00
H236   H     0.63480   0.27681   0.26586   0.00000  Uiso   1.00
C237   C     0.61661   0.26798   0.19908   0.00000  Uiso   1.00
H238   H     0.64530   0.27263   0.18194   0.00000  Uiso   1.00
H239   H     0.60087   0.30146   0.20005   0.00000  Uiso   1.00
H240   H     0.59710   0.24338   0.17979   0.00000  Uiso   1.00
N241   N     0.62546   0.08371   0.23469   0.00000  Uiso   1.00
H242   H     0.63527   0.06774   0.20662   0.00000  Uiso   1.00
C243   C     0.61725   0.05298   0.27075   0.00000  Uiso   1.00
H244   H     0.64003   0.02521   0.27337   0.00000  Uiso   1.00
H245   H     0.58730   0.03698   0.26353   0.00000  Uiso   1.00
H246   H     0.61738   0.07161   0.30296   0.00000  Uiso   1.00
N247   N     0.37558   0.25167   0.25583   0.00000  Uiso   1.00
H248   H     0.36519   0.27681   0.23416   0.00000  Uiso   1.00
C249   C     0.38339   0.26797   0.30093   0.00000  Uiso   1.00
H250   H     0.35470   0.27265   0.31806   0.00000  Uiso   1.00
H251   H     0.39916   0.30143   0.29996   0.00000  Uiso   1.00
H252   H     0.40288   0.24334   0.32022   0.00000  Uiso   1.00
N253   N     0.48167   0.04730   0.17054   0.00000  Uiso   1.00
H254   H     0.50581   0.05110   0.15048   0.00000  Uiso   1.00
C255   C     0.44388   0.03680   0.14601   0.00000  Uiso   1.00
H256   H     0.42683   0.06883   0.13956   0.00000  Uiso   1.00
H257   H     0.42481   0.01268   0.16426   0.00000  Uiso   1.00
H258   H     0.44990   0.02149   0.11318   0.00000  Uiso   1.00
N259   N     0.50942   0.28647   0.33071   0.00000  Uiso   1.00
H260   H     0.53824   0.27878   0.34316   0.00000  Uiso   1.00
C261   C     0.47837   0.29341   0.36254   0.00000  Uiso   1.00
H262   H     0.49180   0.30897   0.39357   0.00000  Uiso   1.00
H263   H     0.46505   0.26000   0.37133   0.00000  Uiso   1.00
H264   H     0.45372   0.31598   0.34899   0.00000  Uiso   1.00
N265   N     0.51826   0.04731   0.32948   0.00000  Uiso   1.00
H266   H     0.49409   0.05110   0.34950   0.00000  Uiso   1.00
C267   C     0.55603   0.03685   0.35406   0.00000  Uiso   1.00
H268   H     0.57305   0.06890   0.36052   0.00000  Uiso   1.00
H269   H     0.57514   0.01273   0.33585   0.00000  Uiso   1.00
H270   H     0.54999   0.02155   0.38689   0.00000  Uiso   1.00
N271   N     0.49058   0.28647   0.16929   0.00000  Uiso   1.00
H272   H     0.46176   0.27875   0.15685   0.00000  Uiso   1.00
C273   C     0.52162   0.29343   0.13745   0.00000  Uiso   1.00
H274   H     0.50818   0.30901   0.10644   0.00000  Uiso   1.00
H275   H     0.53493   0.26002   0.12863   0.00000  Uiso   1.00
H276   H     0.54627   0.31599   0.15101   0.00000  Uiso   1.00
C277   C     0.75433   0.16672   0.25216   0.00000  Uiso   1.00
C278   C     0.91234   0.16672   0.24785   0.00000  Uiso   1.00
C279   C     0.75932   0.16405   0.01896   0.00000  Uiso   1.00
C280   C     0.90737   0.16415   0.48103   0.00000  Uiso   1.00
C281   C     0.68777   0.12544   0.25368   0.00000  Uiso   1.00
C282   C     0.97874   0.20907   0.24763   0.00000  Uiso   1.00
C283   C     0.97891   0.12544   0.24638   0.00000  Uiso   1.00
C284   C     0.68792   0.20907   0.25237   0.00000  Uiso   1.00
C285   C     0.95719   0.16709   0.24628   0.00000  Uiso   1.00
C286   C     0.70948   0.16709   0.25374   0.00000  Uiso   1.00
C287   C     0.82467   0.02444   0.21153   0.00000  Uiso   1.00
C288   C     0.83892   0.30900   0.28890   0.00000  Uiso   1.00
C289   C     0.84198   0.02444   0.28847   0.00000  Uiso   1.00
C290   C     0.82775   0.30900   0.21111   0.00000  Uiso   1.00
C291   C     0.83235   0.16672   0.16482   0.00000  Uiso   1.00
C292   C     0.83432   0.16672   0.33518   0.00000  Uiso   1.00
C293   C     0.87022   0.17468   0.40885   0.00000  Uiso   1.00
C294   C     0.79645   0.17461   0.09115   0.00000  Uiso   1.00
C295   C     0.83417   0.16665   0.38338   0.00000  Uiso   1.00
C296   C     0.83252   0.16665   0.11662   0.00000  Uiso   1.00
C297   C     0.79747   0.15921   0.40370   0.00000  Uiso   1.00
C298   C     0.86924   0.15930   0.09630   0.00000  Uiso   1.00
C299   C     0.79630   0.16318   0.45058   0.00000  Uiso   1.00
C300   C     0.87041   0.16325   0.04942   0.00000  Uiso   1.00
C301   C     0.83339   0.16491   0.47650   0.00000  Uiso   1.00
C302   C     0.83331   0.16491   0.02351   0.00000  Uiso   1.00
C303   C     0.87059   0.16765   0.45536   0.00000  Uiso   1.00
C304   C     0.79610   0.16759   0.04464   0.00000  Uiso   1.00
C305   C     0.75924   0.16449   0.47218   0.00000  Uiso   1.00
C306   C     0.90746   0.16461   0.02782   0.00000  Uiso   1.00
Cu307  Cu    0.83333   0.21355   0.25000   0.00000  Uiso   1.00
Cu308  Cu    0.83333   0.11978   0.25000   0.00000  Uiso   1.00
N309   N     0.83333   0.28402   0.25000   0.00000  Uiso   1.00
N310   N     0.83333   0.04931   0.25000   0.00000  Uiso   1.00
O311   O     0.77321   0.20625   0.25000   0.00000  Uiso   1.00
O312   O     0.89345   0.12709   0.25001   0.00000  Uiso   1.00
O313   O     0.89345   0.20625   0.25001   0.00000  Uiso   1.00
O314   O     0.77321   0.12709   0.25000   0.00000  Uiso   1.00
O315   O     0.83332   0.20627   0.18513   0.00000  Uiso   1.00
O316   O     0.83334   0.12707   0.31487   0.00000  Uiso   1.00
O317   O     0.83334   0.20627   0.31487   0.00000  Uiso   1.00
O318   O     0.83332   0.12707   0.18513   0.00000  Uiso   1.00
N319   N     0.90273   0.19877   0.38953   0.00000  Uiso   1.00
H320   H     0.91798   0.22244   0.40958   0.00000  Uiso   1.00
C321   C     0.92756   0.17539   0.35839   0.00000  Uiso   1.00
H322   H     0.95683   0.16497   0.37494   0.00000  Uiso   1.00
H323   H     0.93437   0.19957   0.33141   0.00000  Uiso   1.00
H324   H     0.91237   0.14476   0.34380   0.00000  Uiso   1.00
N325   N     0.76392   0.19867   0.11047   0.00000  Uiso   1.00
H326   H     0.74866   0.22232   0.09041   0.00000  Uiso   1.00
C327   C     0.73911   0.17527   0.14160   0.00000  Uiso   1.00
H328   H     0.70988   0.16476   0.12503   0.00000  Uiso   1.00
H329   H     0.73223   0.19946   0.16854   0.00000  Uiso   1.00
H330   H     0.75435   0.14469   0.15625   0.00000  Uiso   1.00
N331   N     0.76159   0.14962   0.37680   0.00000  Uiso   1.00
H332   H     0.75796   0.16696   0.34702   0.00000  Uiso   1.00
C333   C     0.74966   0.10201   0.37418   0.00000  Uiso   1.00
H334   H     0.71620   0.09997   0.36942   0.00000  Uiso   1.00
H335   H     0.75891   0.08320   0.40524   0.00000  Uiso   1.00
H336   H     0.76333   0.08544   0.34530   0.00000  Uiso   1.00
N337   N     0.90516   0.14988   0.12321   0.00000  Uiso   1.00
H338   H     0.90868   0.16723   0.15300   0.00000  Uiso   1.00
C339   C     0.91720   0.10231   0.12591   0.00000  Uiso   1.00
H340   H     0.95061   0.10039   0.13131   0.00000  Uiso   1.00
H341   H     0.90852   0.08361   0.09462   0.00000  Uiso   1.00
H342   H     0.90310   0.08557   0.15442   0.00000  Uiso   1.00
N343   N     0.72175   0.16774   0.44692   0.00000  Uiso   1.00
H344   H     0.69920   0.14662   0.45716   0.00000  Uiso   1.00
C345   C     0.70860   0.21403   0.43702   0.00000  Uiso   1.00
H346   H     0.68104   0.21318   0.41434   0.00000  Uiso   1.00
H347   H     0.73254   0.23309   0.42009   0.00000  Uiso   1.00
H348   H     0.70143   0.23217   0.46817   0.00000  Uiso   1.00
N349   N     0.94496   0.16787   0.05306   0.00000  Uiso   1.00
H350   H     0.96749   0.14671   0.04285   0.00000  Uiso   1.00
C351   C     0.95812   0.21416   0.06291   0.00000  Uiso   1.00
H352   H     0.96538   0.23223   0.03175   0.00000  Uiso   1.00
H353   H     0.98564   0.21331   0.08566   0.00000  Uiso   1.00
H354   H     0.93416   0.23328   0.07975   0.00000  Uiso   1.00
N355   N     0.72272   0.15531   0.04041   0.00000  Uiso   1.00
H356   H     0.69796   0.17336   0.02795   0.00000  Uiso   1.00
C357   C     0.71486   0.10716   0.04746   0.00000  Uiso   1.00
H358   H     0.70675   0.08998   0.01525   0.00000  Uiso   1.00
H359   H     0.68949   0.10311   0.06995   0.00000  Uiso   1.00
H360   H     0.74194   0.09019   0.06338   0.00000  Uiso   1.00
N361   N     0.94397   0.15543   0.45957   0.00000  Uiso   1.00
H362   H     0.96874   0.17346   0.47204   0.00000  Uiso   1.00
C363   C     0.95184   0.10728   0.45249   0.00000  Uiso   1.00
H364   H     0.96005   0.09010   0.48468   0.00000  Uiso   1.00
H365   H     0.97714   0.10324   0.42991   0.00000  Uiso   1.00
H366   H     0.92473   0.09029   0.43666   0.00000  Uiso   1.00
N367   N     0.70788   0.08373   0.26543   0.00000  Uiso   1.00
H368   H     0.69809   0.06783   0.29354   0.00000  Uiso   1.00
C369   C     0.71607   0.05293   0.22942   0.00000  Uiso   1.00
H370   H     0.69332   0.02513   0.22690   0.00000  Uiso   1.00
H371   H     0.74605   0.03698   0.23663   0.00000  Uiso   1.00
H372   H     0.71589   0.07148   0.19717   0.00000  Uiso   1.00
N373   N     0.95774   0.25167   0.24418   0.00000  Uiso   1.00
H374   H     0.96813   0.27681   0.26586   0.00000  Uiso   1.00
C375   C     0.94994   0.26798   0.19908   0.00000  Uiso   1.00
H376   H     0.97864   0.27263   0.18194   0.00000  Uiso   1.00
H377   H     0.93421   0.30146   0.20005   0.00000  Uiso   1.00
H378   H     0.93043   0.24338   0.17979   0.00000  Uiso   1.00
N379   N     0.95880   0.08371   0.23469   0.00000  Uiso   1.00
H380   H     0.96860   0.06774   0.20662   0.00000  Uiso   1.00
C381   C     0.95059   0.05298   0.27075   0.00000  Uiso   1.00
H382   H     0.97337   0.02521   0.27337   0.00000  Uiso   1.00
H383   H     0.92064   0.03698   0.26353   0.00000  Uiso   1.00
H384   H     0.95071   0.07161   0.30296   0.00000  Uiso   1.00
N385   N     0.70892   0.25167   0.25583   0.00000  Uiso   1.00
H386   H     0.69853   0.27681   0.23416   0.00000  Uiso   1.00
C387   C     0.71673   0.26797   0.30093   0.00000  Uiso   1.00
H388   H     0.68803   0.27265   0.31806   0.00000  Uiso   1.00
H389   H     0.73249   0.30143   0.29996   0.00000  Uiso   1.00
H390   H     0.73621   0.24334   0.32022   0.00000  Uiso   1.00
N391   N     0.81500   0.04730   0.17054   0.00000  Uiso   1.00
H392   H     0.83914   0.05110   0.15048   0.00000  Uiso   1.00
C393   C     0.77721   0.03680   0.14601   0.00000  Uiso   1.00
H394   H     0.76017   0.06883   0.13956   0.00000  Uiso   1.00
H395   H     0.75815   0.01268   0.16426   0.00000  Uiso   1.00
H396   H     0.78323   0.02149   0.11318   0.00000  Uiso   1.00
N397   N     0.84275   0.28647   0.33071   0.00000  Uiso   1.00
H398   H     0.87157   0.27878   0.34316   0.00000  Uiso   1.00
C399   C     0.81170   0.29341   0.36254   0.00000  Uiso   1.00
H400   H     0.82513   0.30897   0.39357   0.00000  Uiso   1.00
H401   H     0.79839   0.26000   0.37133   0.00000  Uiso   1.00
H402   H     0.78706   0.31598   0.34899   0.00000  Uiso   1.00
N403   N     0.85159   0.04731   0.32948   0.00000  Uiso   1.00
H404   H     0.82742   0.05110   0.34950   0.00000  Uiso   1.00
C405   C     0.88937   0.03685   0.35406   0.00000  Uiso   1.00
H406   H     0.90638   0.06890   0.36052   0.00000  Uiso   1.00
H407   H     0.90847   0.01273   0.33585   0.00000  Uiso   1.00
H408   H     0.88332   0.02155   0.38689   0.00000  Uiso   1.00
N409   N     0.82391   0.28647   0.16929   0.00000  Uiso   1.00
H410   H     0.79509   0.27875   0.15685   0.00000  Uiso   1.00
C411   C     0.85495   0.29343   0.13745   0.00000  Uiso   1.00
H412   H     0.84151   0.30901   0.10644   0.00000  Uiso   1.00
H413   H     0.86826   0.26002   0.12863   0.00000  Uiso   1.00
H414   H     0.87960   0.31599   0.15101   0.00000  Uiso   1.00
C415   C     0.08766   0.50006   0.25216   0.00000  Uiso   1.00
C416   C     0.24567   0.50006   0.24785   0.00000  Uiso   1.00
C417   C     0.09266   0.49738   0.01896   0.00000  Uiso   1.00
C418   C     0.24071   0.49749   0.48103   0.00000  Uiso   1.00
C419   C     0.02110   0.45877   0.25368   0.00000  Uiso   1.00
C420   C     0.31208   0.54240   0.24763   0.00000  Uiso   1.00
C421   C     0.31224   0.45877   0.24638   0.00000  Uiso   1.00
C422   C     0.02126   0.54240   0.25237   0.00000  Uiso   1.00
C423   C     0.29052   0.50042   0.24628   0.00000  Uiso   1.00
C424   C     0.04281   0.50042   0.25374   0.00000  Uiso   1.00
C425   C     0.15800   0.35777   0.21153   0.00000  Uiso   1.00
C426   C     0.17225   0.64234   0.28890   0.00000  Uiso   1.00
C427   C     0.17532   0.35777   0.28847   0.00000  Uiso   1.00
C428   C     0.16108   0.64234   0.21111   0.00000  Uiso   1.00
C429   C     0.16569   0.50005   0.16482   0.00000  Uiso   1.00
C430   C     0.16766   0.50005   0.33518   0.00000  Uiso   1.00
C431   C     0.20356   0.50801   0.40885   0.00000  Uiso   1.00
C432   C     0.12979   0.50794   0.09115   0.00000  Uiso   1.00
C433   C     0.16750   0.49999   0.38338   0.00000  Uiso   1.00
C434   C     0.16585   0.49999   0.11662   0.00000  Uiso   1.00
C435   C     0.13080   0.49255   0.40370   0.00000  Uiso   1.00
C436   C     0.20258   0.49263   0.09630   0.00000  Uiso   1.00
C437   C     0.12963   0.49651   0.45058   0.00000  Uiso   1.00
C438   C     0.20374   0.49658   0.04942   0.00000  Uiso   1.00
C439   C     0.16672   0.49825   0.47650   0.00000  Uiso   1.00
C440   C     0.16665   0.49825   0.02351   0.00000  Uiso   1.00
C441   C     0.20393   0.50099   0.45536   0.00000  Uiso   1.00
C442   C     0.12943   0.50093   0.04464   0.00000  Uiso   1.00
C443   C     0.09257   0.49783   0.47218   0.00000  Uiso   1.00
C444   C     0.24080   0.49794   0.02782   0.00000  Uiso   1.00
Cu445  Cu    0.16667   0.54689   0.25000   0.00000  Uiso   1.00
Cu446  Cu    0.16667   0.45311   0.25000   0.00000  Uiso   1.00
N447   N     0.16667   0.61736   0.25000   0.00000  Uiso   1.00
N448   N     0.16667   0.38264   0.25000   0.00000  Uiso   1.00
O449   O     0.10655   0.53958   0.25000   0.00000  Uiso   1.00
O450   O     0.22679   0.46042   0.25001   0.00000  Uiso   1.00
O451   O     0.22679   0.53958   0.25001   0.00000  Uiso   1.00
O452   O     0.10655   0.46042   0.25000   0.00000  Uiso   1.00
O453   O     0.16666   0.53960   0.18513   0.00000  Uiso   1.00
O454   O     0.16668   0.46040   0.31487   0.00000  Uiso   1.00
O455   O     0.16668   0.53960   0.31487   0.00000  Uiso   1.00
O456   O     0.16666   0.46040   0.18513   0.00000  Uiso   1.00
N457   N     0.23606   0.53211   0.38953   0.00000  Uiso   1.00
H458   H     0.25131   0.55577   0.40958   0.00000  Uiso   1.00
C459   C     0.26089   0.50872   0.35839   0.00000  Uiso   1.00
H460   H     0.29016   0.49831   0.37494   0.00000  Uiso   1.00
H461   H     0.26770   0.53290   0.33141   0.00000  Uiso   1.00
H462   H     0.24570   0.47809   0.34380   0.00000  Uiso   1.00
N463   N     0.09726   0.53201   0.11047   0.00000  Uiso   1.00
H464   H     0.08199   0.55566   0.09041   0.00000  Uiso   1.00
C465   C     0.07244   0.50860   0.14160   0.00000  Uiso   1.00
H466   H     0.04321   0.49810   0.12503   0.00000  Uiso   1.00
H467   H     0.06556   0.53280   0.16854   0.00000  Uiso   1.00
H468   H     0.08768   0.47803   0.15625   0.00000  Uiso   1.00
N469   N     0.09492   0.48295   0.37680   0.00000  Uiso   1.00
H470   H     0.09130   0.50030   0.34702   0.00000  Uiso   1.00
C471   C     0.08299   0.43534   0.37418   0.00000  Uiso   1.00
H472   H     0.04953   0.43330   0.36942   0.00000  Uiso   1.00
H473   H     0.09224   0.41653   0.40524   0.00000  Uiso   1.00
H474   H     0.09666   0.41878   0.34530   0.00000  Uiso   1.00
N475   N     0.23849   0.48321   0.12321   0.00000  Uiso   1.00
H476   H     0.24201   0.50056   0.15300   0.00000  Uiso   1.00
C477   C     0.25053   0.43564   0.12591   0.00000  Uiso   1.00
H478   H     0.28395   0.43372   0.13131   0.00000  Uiso   1.00
H479   H     0.24185   0.41694   0.09462   0.00000  Uiso   1.00
H480   H     0.23643   0.41890   0.15442   0.00000  Uiso   1.00
N481   N     0.05508   0.50108   0.44692   0.00000  Uiso   1.00
H482   H     0.03253   0.47995   0.45716   0.00000  Uiso   1.00
C483   C     0.04194   0.54737   0.43702   0.00000  Uiso   1.00
H484   H     0.01437   0.54652   0.41434   0.00000  Uiso   1.00
H485   H     0.06588   0.56642   0.42009   0.00000  Uiso   1.00
H486   H     0.03476   0.56551   0.46817   0.00000  Uiso   1.00
N487   N     0.27829   0.50120   0.05306   0.00000  Uiso   1.00
H488   H     0.30083   0.48004   0.04285   0.00000  Uiso   1.00
C489   C     0.29146   0.54749   0.06291   0.00000  Uiso   1.00
H490   H     0.29871   0.56556   0.03175   0.00000  Uiso   1.00
H491   H     0.31898   0.54665   0.08566   0.00000  Uiso   1.00
H492   H     0.26750   0.56661   0.07975   0.00000  Uiso   1.00
N493   N     0.05606   0.48864   0.04041   0.00000  Uiso   1.00
H494   H     0.03129   0.50669   0.02795   0.00000  Uiso   1.00
C495   C     0.04819   0.44049   0.04746   0.00000  Uiso   1.00
H496   H     0.04008   0.42331   0.01525   0.00000  Uiso   1.00
H497   H     0.02283   0.43644   0.06995   0.00000  Uiso   1.00
H498   H     0.07527   0.42352   0.06338   0.00000  Uiso   1.00
N499   N     0.27730   0.48876   0.45957   0.00000  Uiso   1.00
H500   H     0.30208   0.50680   0.47204   0.00000  Uiso   1.00
C501   C     0.28517   0.44061   0.45249   0.00000  Uiso   1.00
H502   H     0.29338   0.42344   0.48468   0.00000  Uiso   1.00
H503   H     0.31047   0.43658   0.42991   0.00000  Uiso   1.00
H504   H     0.25806   0.42362   0.43666   0.00000  Uiso   1.00
N505   N     0.04122   0.41706   0.26543   0.00000  Uiso   1.00
H506   H     0.03143   0.40116   0.29354   0.00000  Uiso   1.00
C507   C     0.04941   0.38626   0.22942   0.00000  Uiso   1.00
H508   H     0.02666   0.35847   0.22690   0.00000  Uiso   1.00
H509   H     0.07938   0.37031   0.23663   0.00000  Uiso   1.00
H510   H     0.04922   0.40482   0.19717   0.00000  Uiso   1.00
N511   N     0.29108   0.58501   0.24418   0.00000  Uiso   1.00
H512   H     0.30146   0.61014   0.26586   0.00000  Uiso   1.00
C513   C     0.28328   0.60131   0.19908   0.00000  Uiso   1.00
H514   H     0.31197   0.60596   0.18194   0.00000  Uiso   1.00
H515   H     0.26754   0.63479   0.20005   0.00000  Uiso   1.00
H516   H     0.26376   0.57672   0.17979   0.00000  Uiso   1.00
N517   N     0.29213   0.41704   0.23469   0.00000  Uiso   1.00
H518   H     0.30193   0.40107   0.20662   0.00000  Uiso   1.00
C519   C     0.28392   0.38631   0.27075   0.00000  Uiso   1.00
H520   H     0.30670   0.35854   0.27337   0.00000  Uiso   1.00
H521   H     0.25397   0.37031   0.26353   0.00000  Uiso   1.00
H522   H     0.28404   0.40494   0.30296   0.00000  Uiso   1.00
N523   N     0.04225   0.58500   0.25583   0.00000  Uiso   1.00
H524   H     0.03186   0.61014   0.23416   0.00000  Uiso   1.00
C525   C     0.05006   0.60130   0.30093   0.00000  Uiso   1.00
H526   H     0.02137   0.60599   0.31806   0.00000  Uiso   1.00
H527   H     0.06583   0.63476   0.29996   0.00000  Uiso   1.00
H528   H     0.06955   0.57668   0.32022   0.00000  Uiso   1.00
N529   N     0.14833   0.38064   0.17054   0.00000  Uiso   1.00
H530   H     0.17248   0.38443   0.15048   0.00000  Uiso   1.00
C531   C     0.11055   0.37014   0.14601   0.00000  Uiso   1.00
H532   H     0.09350   0.40217   0.13956   0.00000  Uiso   1.00
H533   H     0.09148   0.34602   0.16426   0.00000  Uiso   1.00
H534   H     0.11657   0.35482   0.11318   0.00000  Uiso   1.00
N535   N     0.17609   0.61980   0.33071   0.00000  Uiso   1.00
H536   H     0.20490   0.61211   0.34316   0.00000  Uiso   1.00
C537   C     0.14503   0.62675   0.36254   0.00000  Uiso   1.00
H538   H     0.15847   0.64230   0.39357   0.00000  Uiso   1.00
H539   H     0.13172   0.59333   0.37133   0.00000  Uiso   1.00
H540   H     0.12039   0.64931   0.34899   0.00000  Uiso   1.00
N541   N     0.18493   0.38064   0.32948   0.00000  Uiso   1.00
H542   H     0.16076   0.38443   0.34950   0.00000  Uiso   1.00
C543   C     0.22270   0.37018   0.35406   0.00000  Uiso   1.00
H544   H     0.23971   0.40223   0.36052   0.00000  Uiso   1.00
H545   H     0.24180   0.34606   0.33585   0.00000  Uiso   1.00
H546   H     0.21666   0.35488   0.38689   0.00000  Uiso   1.00
N547   N     0.15724   0.61980   0.16929   0.00000  Uiso   1.00
H548   H     0.12843   0.61208   0.15685   0.00000  Uiso   1.00
C549   C     0.18829   0.62676   0.13745   0.00000  Uiso   1.00
H550   H     0.17484   0.64234   0.10644   0.00000  Uiso   1.00
H551   H     0.20160   0.59335   0.12863   0.00000  Uiso   1.00
H552   H     0.21293   0.64932   0.15101   0.00000  Uiso   1.00
C553   C     0.42099   0.50006   0.25216   0.00000  Uiso   1.00
C554   C     0.57901   0.50006   0.24785   0.00000  Uiso   1.00
C555   C     0.42599   0.49738   0.01896   0.00000  Uiso   1.00
C556   C     0.57404   0.49749   0.48103   0.00000  Uiso   1.00
C557   C     0.35443   0.45877   0.25368   0.00000  Uiso   1.00
C558   C     0.64541   0.54240   0.24763   0.00000  Uiso   1.00
C559   C     0.64558   0.45877   0.24638   0.00000  Uiso   1.00
C560   C     0.35459   0.54240   0.25237   0.00000  Uiso   1.00
C561   C     0.62385   0.50042   0.24628   0.00000  Uiso   1.00
C562   C     0.37615   0.50042   0.25374   0.00000  Uiso   1.00
C563   C     0.49134   0.35777   0.21153   0.00000  Uiso   1.00
C564   C     0.50558   0.64234   0.28890   0.00000  Uiso   1.00
C565   C     0.50865   0.35777   0.28847   0.00000  Uiso   1.00
C566   C     0.49441   0.64234   0.21111   0.00000  Uiso   1.00
C567   C     0.49902   0.50005   0.16482   0.00000  Uiso   1.00
C568   C     0.50099   0.50005   0.33518   0.00000  Uiso   1.00
C569   C     0.53689   0.50801   0.40885   0.00000  Uiso   1.00
C570   C     0.46312   0.50794   0.09115   0.00000  Uiso   1.00
C571   C     0.50084   0.49999   0.38338   0.00000  Uiso   1.00
C572   C     0.49919   0.49999   0.11662   0.00000  Uiso   1.00
C573   C     0.46413   0.49255   0.40370   0.00000  Uiso   1.00
C574   C     0.53591   0.49263   0.09630   0.00000  Uiso   1.00
C575   C     0.46296   0.49651   0.45058   0.00000  Uiso   1.00
C576   C     0.53707   0.49658   0.04942   0.00000  Uiso   1.00
C577   C     0.50005   0.49825   0.47650   0.00000  Uiso   1.00
C578   C     0.49998   0.49825   0.02351   0.00000  Uiso   1.00
C579   C     0.53726   0.50099   0.45536   0.00000  Uiso   1.00
C580   C     0.46276   0.50093   0.04464   0.00000  Uiso   1.00
C581   C     0.42590   0.49783   0.47218   0.00000  Uiso   1.00
C582   C     0.57413   0.49794   0.02782   0.00000  Uiso   1.00
Cu583  Cu    0.50000   0.54689   0.25000   0.00000  Uiso   1.00
Cu584  Cu    0.50000   0.45311   0.25000   0.00000  Uiso   1.00
N585   N     0.50000   0.61736   0.25000   0.00000  Uiso   1.00
N586   N     0.50000   0.38264   0.25000   0.00000  Uiso   1.00
O587   O     0.43988   0.53958   0.25000   0.00000  Uiso   1.00
O588   O     0.56012   0.46042   0.25001   0.00000  Uiso   1.00
O589   O     0.56012   0.53958   0.25001   0.00000  Uiso   1.00
O590   O     0.43988   0.46042   0.25000   0.00000  Uiso   1.00
O591   O     0.49999   0.53960   0.18513   0.00000  Uiso   1.00
O592   O     0.50001   0.46040   0.31487   0.00000  Uiso   1.00
O593   O     0.50001   0.53960   0.31487   0.00000  Uiso   1.00
O594   O     0.49999   0.46040   0.18513   0.00000  Uiso   1.00
N595   N     0.56940   0.53211   0.38953   0.00000  Uiso   1.00
H596   H     0.58465   0.55577   0.40958   0.00000  Uiso   1.00
C597   C     0.59422   0.50872   0.35839   0.00000  Uiso   1.00
H598   H     0.62349   0.49831   0.37494   0.00000  Uiso   1.00
H599   H     0.60103   0.53290   0.33141   0.00000  Uiso   1.00
H600   H     0.57903   0.47809   0.34380   0.00000  Uiso   1.00
N601   N     0.43059   0.53201   0.11047   0.00000  Uiso   1.00
H602   H     0.41532   0.55566   0.09041   0.00000  Uiso   1.00
C603   C     0.40578   0.50860   0.14160   0.00000  Uiso   1.00
H604   H     0.37654   0.49810   0.12503   0.00000  Uiso   1.00
H605   H     0.39889   0.53280   0.16854   0.00000  Uiso   1.00
H606   H     0.42101   0.47803   0.15625   0.00000  Uiso   1.00
N607   N     0.42825   0.48295   0.37680   0.00000  Uiso   1.00
H608   H     0.42463   0.50030   0.34702   0.00000  Uiso   1.00
C609   C     0.41632   0.43534   0.37418   0.00000  Uiso   1.00
H610   H     0.38286   0.43330   0.36942   0.00000  Uiso   1.00
H611   H     0.42557   0.41653   0.40524   0.00000  Uiso   1.00
H612   H     0.43000   0.41878   0.34530   0.00000  Uiso   1.00
N613   N     0.57182   0.48321   0.12321   0.00000  Uiso   1.00
H614   H     0.57535   0.50056   0.15300   0.00000  Uiso   1.00
C615   C     0.58387   0.43564   0.12591   0.00000  Uiso   1.00
H616   H     0.61728   0.43372   0.13131   0.00000  Uiso   1.00
H617   H     0.57519   0.41694   0.09462   0.00000  Uiso   1.00
H618   H     0.56977   0.41890   0.15442   0.00000  Uiso   1.00
N619   N     0.38841   0.50108   0.44692   0.00000  Uiso   1.00
H620   H     0.36587   0.47995   0.45716   0.00000  Uiso   1.00
C621   C     0.37527   0.54737   0.43702   0.00000  Uiso   1.00
H622   H     0.34771   0.54652   0.41434   0.00000  Uiso   1.00
H623   H     0.39921   0.56642   0.42009   0.00000  Uiso   1.00
H624   H     0.36809   0.56551   0.46817   0.00000  Uiso   1.00
N625   N     0.61163   0.50120   0.05306   0.00000  Uiso   1.00
H626   H     0.63416   0.48004   0.04285   0.00000  Uiso   1.00
C627   C     0.62479   0.54749   0.06291   0.00000  Uiso   1.00
H628   H     0.63204   0.56556   0.03175   0.00000  Uiso   1.00
H629   H     0.65231   0.54665   0.08566   0.00000  Uiso   1.00
H630   H     0.60083   0.56661   0.07975   0.00000  Uiso   1.00
N631   N     0.38939   0.48864   0.04041   0.00000  Uiso   1.00
H632   H     0.36462   0.50669   0.02795   0.00000  Uiso   1.00
C633   C     0.38152   0.44049   0.04746   0.00000  Uiso   1.00
H634   H     0.37341   0.42331   0.01525   0.00000  Uiso   1.00
H635   H     0.35616   0.43644   0.06995   0.00000  Uiso   1.00
H636   H     0.40861   0.42352   0.06338   0.00000  Uiso   1.00
N637   N     0.61064   0.48876   0.45957   0.00000  Uiso   1.00
H638   H     0.63541   0.50680   0.47204   0.00000  Uiso   1.00
C639   C     0.61851   0.44061   0.45249   0.00000  Uiso   1.00
H640   H     0.62672   0.42344   0.48468   0.00000  Uiso   1.00
H641   H     0.64381   0.43658   0.42991   0.00000  Uiso   1.00
H642   H     0.59140   0.42362   0.43666   0.00000  Uiso   1.00
N643   N     0.37455   0.41706   0.26543   0.00000  Uiso   1.00
H644   H     0.36476   0.40116   0.29354   0.00000  Uiso   1.00
C645   C     0.38274   0.38626   0.22942   0.00000  Uiso   1.00
H646   H     0.35999   0.35847   0.22690   0.00000  Uiso   1.00
H647   H     0.41272   0.37031   0.23663   0.00000  Uiso   1.00
H648   H     0.38255   0.40482   0.19717   0.00000  Uiso   1.00
N649   N     0.62441   0.58501   0.24418   0.00000  Uiso   1.00
H650   H     0.63480   0.61014   0.26586   0.00000  Uiso   1.00
C651   C     0.61661   0.60131   0.19908   0.00000  Uiso   1.00
H652   H     0.64530   0.60596   0.18194   0.00000  Uiso   1.00
H653   H     0.60087   0.63479   0.20005   0.00000  Uiso   1.00
H654   H     0.59710   0.57672   0.17979   0.00000  Uiso   1.00
N655   N     0.62546   0.41704   0.23469   0.00000  Uiso   1.00
H656   H     0.63527   0.40107   0.20662   0.00000  Uiso   1.00
C657   C     0.61725   0.38631   0.27075   0.00000  Uiso   1.00
H658   H     0.64003   0.35854   0.27337   0.00000  Uiso   1.00
H659   H     0.58730   0.37031   0.26353   0.00000  Uiso   1.00
H660   H     0.61738   0.40494   0.30296   0.00000  Uiso   1.00
N661   N     0.37558   0.58500   0.25583   0.00000  Uiso   1.00
H662   H     0.36519   0.61014   0.23416   0.00000  Uiso   1.00
C663   C     0.38339   0.60130   0.30093   0.00000  Uiso   1.00
H664   H     0.35470   0.60599   0.31806   0.00000  Uiso   1.00
H665   H     0.39916   0.63476   0.29996   0.00000  Uiso   1.00
H666   H     0.40288   0.57668   0.32022   0.00000  Uiso   1.00
N667   N     0.48167   0.38064   0.17054   0.00000  Uiso   1.00
H668   H     0.50581   0.38443   0.15048   0.00000  Uiso   1.00
C669   C     0.44388   0.37014   0.14601   0.00000  Uiso   1.00
H670   H     0.42683   0.40217   0.13956   0.00000  Uiso   1.00
H671   H     0.42481   0.34602   0.16426   0.00000  Uiso   1.00
H672   H     0.44990   0.35482   0.11318   0.00000  Uiso   1.00
N673   N     0.50942   0.61980   0.33071   0.00000  Uiso   1.00
H674   H     0.53824   0.61211   0.34316   0.00000  Uiso   1.00
C675   C     0.47837   0.62675   0.36254   0.00000  Uiso   1.00
H676   H     0.49180   0.64230   0.39357   0.00000  Uiso   1.00
H677   H     0.46505   0.59333   0.37133   0.00000  Uiso   1.00
H678   H     0.45372   0.64931   0.34899   0.00000  Uiso   1.00
N679   N     0.51826   0.38064   0.32948   0.00000  Uiso   1.00
H680   H     0.49409   0.38443   0.34950   0.00000  Uiso   1.00
C681   C     0.55603   0.37018   0.35406   0.00000  Uiso   1.00
H682   H     0.57305   0.40223   0.36052   0.00000  Uiso   1.00
H683   H     0.57514   0.34606   0.33585   0.00000  Uiso   1.00
H684   H     0.54999   0.35488   0.38689   0.00000  Uiso   1.00
N685   N     0.49058   0.61980   0.16929   0.00000  Uiso   1.00
H686   H     0.46176   0.61208   0.15685   0.00000  Uiso   1.00
C687   C     0.52162   0.62676   0.13745   0.00000  Uiso   1.00
H688   H     0.50818   0.64234   0.10644   0.00000  Uiso   1.00
H689   H     0.53493   0.59335   0.12863   0.00000  Uiso   1.00
H690   H     0.54627   0.64932   0.15101   0.00000  Uiso   1.00
C691   C     0.75433   0.50006   0.25216   0.00000  Uiso   1.00
C692   C     0.91234   0.50006   0.24785   0.00000  Uiso   1.00
C693   C     0.75932   0.49738   0.01896   0.00000  Uiso   1.00
C694   C     0.90737   0.49749   0.48103   0.00000  Uiso   1.00
C695   C     0.68777   0.45877   0.25368   0.00000  Uiso   1.00
C696   C     0.97874   0.54240   0.24763   0.00000  Uiso   1.00
C697   C     0.97891   0.45877   0.24638   0.00000  Uiso   1.00
C698   C     0.68792   0.54240   0.25237   0.00000  Uiso   1.00
C699   C     0.95719   0.50042   0.24628   0.00000  Uiso   1.00
C700   C     0.70948   0.50042   0.25374   0.00000  Uiso   1.00
C701   C     0.82467   0.35777   0.21153   0.00000  Uiso   1.00
C702   C     0.83892   0.64234   0.28890   0.00000  Uiso   1.00
C703   C     0.84198   0.35777   0.28847   0.00000  Uiso   1.00
C704   C     0.82775   0.64234   0.21111   0.00000  Uiso   1.00
C705   C     0.83235   0.50005   0.16482   0.00000  Uiso   1.00
C706   C     0.83432   0.50005   0.33518   0.00000  Uiso   1.00
C707   C     0.87022   0.50801   0.40885   0.00000  Uiso   1.00
C708   C     0.79645   0.50794   0.09115   0.00000  Uiso   1.00
C709   C     0.83417   0.49999   0.38338   0.00000  Uiso   1.00
C710   C     0.83252   0.49999   0.11662   0.00000  Uiso   1.00
C711   C     0.79747   0.49255   0.40370   0.00000  Uiso   1.00
C712   C     0.86924   0.49263   0.09630   0.00000  Uiso   1.00
C713   C     0.79630   0.49651   0.45058   0.00000  Uiso   1.00
C714   C     0.87041   0.49658   0.04942   0.00000  Uiso   1.00
C715   C     0.83339   0.49825   0.47650   0.00000  Uiso   1.00
C716   C     0.83331   0.49825   0.02351   0.00000  Uiso   1.00
C717   C     0.87059   0.50099   0.45536   0.00000  Uiso   1.00
C718   C     0.79610   0.50093   0.04464   0.00000  Uiso   1.00
C719   C     0.75924   0.49783   0.47218   0.00000  Uiso   1.00
C720   C     0.90746   0.49794   0.02782   0.00000  Uiso   1.00
Cu721  Cu    0.83333   0.54689   0.25000   0.00000  Uiso   1.00
Cu722  Cu    0.83333   0.45311   0.25000   0.00000  Uiso   1.00
N723   N     0.83333   0.61736   0.25000   0.00000  Uiso   1.00
N724   N     0.83333   0.38264   0.25000   0.00000  Uiso   1.00
O725   O     0.77321   0.53958   0.25000   0.00000  Uiso   1.00
O726   O     0.89345   0.46042   0.25001   0.00000  Uiso   1.00
O727   O     0.89345   0.53958   0.25001   0.00000  Uiso   1.00
O728   O     0.77321   0.46042   0.25000   0.00000  Uiso   1.00
O729   O     0.83332   0.53960   0.18513   0.00000  Uiso   1.00
O730   O     0.83334   0.46040   0.31487   0.00000  Uiso   1.00
O731   O     0.83334   0.53960   0.31487   0.00000  Uiso   1.00
O732   O     0.83332   0.46040   0.18513   0.00000  Uiso   1.00
N733   N     0.90273   0.53211   0.38953   0.00000  Uiso   1.00
H734   H     0.91798   0.55577   0.40958   0.00000  Uiso   1.00
C735   C     0.92756   0.50872   0.35839   0.00000  Uiso   1.00
H736   H     0.95683   0.49831   0.37494   0.00000  Uiso   1.00
H737   H     0.93437   0.53290   0.33141   0.00000  Uiso   1.00
H738   H     0.91237   0.47809   0.34380   0.00000  Uiso   1.00
N739   N     0.76392   0.53201   0.11047   0.00000  Uiso   1.00
H740   H     0.74866   0.55566   0.09041   0.00000  Uiso   1.00
C741   C     0.73911   0.50860   0.14160   0.00000  Uiso   1.00
H742   H     0.70988   0.49810   0.12503   0.00000  Uiso   1.00
H743   H     0.73223   0.53280   0.16854   0.00000  Uiso   1.00
H744   H     0.75435   0.47803   0.15625   0.00000  Uiso   1.00
N745   N     0.76159   0.48295   0.37680   0.00000  Uiso   1.00
H746   H     0.75796   0.50030   0.34702   0.00000  Uiso   1.00
C747   C     0.74966   0.43534   0.37418   0.00000  Uiso   1.00
H748   H     0.71620   0.43330   0.36942   0.00000  Uiso   1.00
H749   H     0.75891   0.41653   0.40524   0.00000  Uiso   1.00
H750   H     0.76333   0.41878   0.34530   0.00000  Uiso   1.00
N751   N     0.90516   0.48321   0.12321   0.00000  Uiso   1.00
H752   H     0.90868   0.50056   0.15300   0.00000  Uiso   1.00
C753   C     0.91720   0.43564   0.12591   0.00000  Uiso   1.00
H754   H     0.95061   0.43372   0.13131   0.00000  Uiso   1.00
H755   H     0.90852   0.41694   0.09462   0.00000  Uiso   1.00
H756   H     0.90310   0.41890   0.15442   0.00000  Uiso   1.00
N757   N     0.72175   0.50108   0.44692   0.00000  Uiso   1.00
H758   H     0.69920   0.47995   0.45716   0.00000  Uiso   1.00
C759   C     0.70860   0.54737   0.43702   0.00000  Uiso   1.00
H760   H     0.68104   0.54652   0.41434   0.00000  Uiso   1.00
H761   H     0.73254   0.56642   0.42009   0.00000  Uiso   1.00
H762   H     0.70143   0.56551   0.46817   0.00000  Uiso   1.00
N763   N     0.94496   0.50120   0.05306   0.00000  Uiso   1.00
H764   H     0.96749   0.48004   0.04285   0.00000  Uiso   1.00
C765   C     0.95812   0.54749   0.06291   0.00000  Uiso   1.00
H766   H     0.96538   0.56556   0.03175   0.00000  Uiso   1.00
H767   H     0.98564   0.54665   0.08566   0.00000  Uiso   1.00
H768   H     0.93416   0.56661   0.07975   0.00000  Uiso   1.00
N769   N     0.72272   0.48864   0.04041   0.00000  Uiso   1.00
H770   H     0.69796   0.50669   0.02795   0.00000  Uiso   1.00
C771   C     0.71486   0.44049   0.04746   0.00000  Uiso   1.00
H772   H     0.70675   0.42331   0.01525   0.00000  Uiso   1.00
H773   H     0.68949   0.43644   0.06995   0.00000  Uiso   1.00
H774   H     0.74194   0.42352   0.06338   0.00000  Uiso   1.00
N775   N     0.94397   0.48876   0.45957   0.00000  Uiso   1.00
H776   H     0.96874   0.50680   0.47204   0.00000  Uiso   1.00
C777   C     0.95184   0.44061   0.45249   0.00000  Uiso   1.00
H778   H     0.96005   0.42344   0.48468   0.00000  Uiso   1.00
H779   H     0.97714   0.43658   0.42991   0.00000  Uiso   1.00
H780   H     0.92473   0.42362   0.43666   0.00000  Uiso   1.00
N781   N     0.70788   0.41706   0.26543   0.00000  Uiso   1.00
H782   H     0.69809   0.40116   0.29354   0.00000  Uiso   1.00
C783   C     0.71607   0.38626   0.22942   0.00000  Uiso   1.00
H784   H     0.69332   0.35847   0.22690   0.00000  Uiso   1.00
H785   H     0.74605   0.37031   0.23663   0.00000  Uiso   1.00
H786   H     0.71589   0.40482   0.19717   0.00000  Uiso   1.00
N787   N     0.95774   0.58501   0.24418   0.00000  Uiso   1.00
H788   H     0.96813   0.61014   0.26586   0.00000  Uiso   1.00
C789   C     0.94994   0.60131   0.19908   0.00000  Uiso   1.00
H790   H     0.97864   0.60596   0.18194   0.00000  Uiso   1.00
H791   H     0.93421   0.63479   0.20005   0.00000  Uiso   1.00
H792   H     0.93043   0.57672   0.17979   0.00000  Uiso   1.00
N793   N     0.95880   0.41704   0.23469   0.00000  Uiso   1.00
H794   H     0.96860   0.40107   0.20662   0.00000  Uiso   1.00
C795   C     0.95059   0.38631   0.27075   0.00000  Uiso   1.00
H796   H     0.97337   0.35854   0.27337   0.00000  Uiso   1.00
H797   H     0.92064   0.37031   0.26353   0.00000  Uiso   1.00
H798   H     0.95071   0.40494   0.30296   0.00000  Uiso   1.00
N799   N     0.70892   0.58500   0.25583   0.00000  Uiso   1.00
H800   H     0.69853   0.61014   0.23416   0.00000  Uiso   1.00
C801   C     0.71673   0.60130   0.30093   0.00000  Uiso   1.00
H802   H     0.68803   0.60599   0.31806   0.00000  Uiso   1.00
H803   H     0.73249   0.63476   0.29996   0.00000  Uiso   1.00
H804   H     0.73621   0.57668   0.32022   0.00000  Uiso   1.00
N805   N     0.81500   0.38064   0.17054   0.00000  Uiso   1.00
H806   H     0.83914   0.38443   0.15048   0.00000  Uiso   1.00
C807   C     0.77721   0.37014   0.14601   0.00000  Uiso   1.00
H808   H     0.76017   0.40217   0.13956   0.00000  Uiso   1.00
H809   H     0.75815   0.34602   0.16426   0.00000  Uiso   1.00
H810   H     0.78323   0.35482   0.11318   0.00000  Uiso   1.00
N811   N     0.84275   0.61980   0.33071   0.00000  Uiso   1.00
H812   H     0.87157   0.61211   0.34316   0.00000  Uiso   1.00
C813   C     0.81170   0.62675   0.36254   0.00000  Uiso   1.00
H814   H     0.82513   0.64230   0.39357   0.00000  Uiso   1.00
H815   H     0.79839   0.59333   0.37133   0.00000  Uiso   1.00
H816   H     0.78706   0.64931   0.34899   0.00000  Uiso   1.00
N817   N     0.85159   0.38064   0.32948   0.00000  Uiso   1.00
H818   H     0.82742   0.38443   0.34950   0.00000  Uiso   1.00
C819   C     0.88937   0.37018   0.35406   0.00000  Uiso   1.00
H820   H     0.90638   0.40223   0.36052   0.00000  Uiso   1.00
H821   H     0.90847   0.34606   0.33585   0.00000  Uiso   1.00
H822   H     0.88332   0.35488   0.38689   0.00000  Uiso   1.00
N823   N     0.82391   0.61980   0.16929   0.00000  Uiso   1.00
H824   H     0.79509   0.61208   0.15685   0.00000  Uiso   1.00
C825   C     0.85495   0.62676   0.13745   0.00000  Uiso   1.00
H826   H     0.84151   0.64234   0.10644   0.00000  Uiso   1.00
H827   H     0.86826   0.59335   0.12863   0.00000  Uiso   1.00
H828   H     0.87960   0.64932   0.15101   0.00000  Uiso   1.00
C829   C     0.08766   0.83339   0.25216   0.00000  Uiso   1.00
C830   C     0.24567   0.83339   0.24785   0.00000  Uiso   1.00
C831   C     0.09266   0.83072   0.01896   0.00000  Uiso   1.00
C832   C     0.24071   0.83082   0.48103   0.00000  Uiso   1.00
C833   C     0.02110   0.79211   0.25368   0.00000  Uiso   1.00
C834   C     0.31208   0.87573   0.24763   0.00000  Uiso   1.00
C835   C     0.31224   0.79210   0.24638   0.00000  Uiso   1.00
C836   C     0.02126   0.87573   0.25237   0.00000  Uiso   1.00
C837   C     0.29052   0.83375   0.24628   0.00000  Uiso   1.00
C838   C     0.04281   0.83376   0.25374   0.00000  Uiso   1.00
C839   C     0.15800   0.69110   0.21153   0.00000  Uiso   1.00
C840   C     0.17225   0.97567   0.28890   0.00000  Uiso   1.00
C841   C     0.17532   0.69110   0.28847   0.00000  Uiso   1.00
C842   C     0.16108   0.97567   0.21111   0.00000  Uiso   1.00
C843   C     0.16569   0.83339   0.16482   0.00000  Uiso   1.00
C844   C     0.16766   0.83339   0.33518   0.00000  Uiso   1.00
C845   C     0.20356   0.84134   0.40885   0.00000  Uiso   1.00
C846   C     0.12979   0.84128   0.09115   0.00000  Uiso   1.00
C847   C     0.16750   0.83332   0.38338   0.00000  Uiso   1.00
C848   C     0.16585   0.83332   0.11662   0.00000  Uiso   1.00
C849   C     0.13080   0.82588   0.40370   0.00000  Uiso   1.00
C850   C     0.20258   0.82597   0.09630   0.00000  Uiso   1.00
C851   C     0.12963   0.82985   0.45058   0.00000  Uiso   1.00
C852   C     0.20374   0.82992   0.04942   0.00000  Uiso   1.00
C853   C     0.16672   0.83158   0.47650   0.00000  Uiso   1.00
C854   C     0.16665   0.83158   0.02351   0.00000  Uiso   1.00
C855   C     0.20393   0.83432   0.45536   0.00000  Uiso   1.00
C856   C     0.12943   0.83426   0.04464   0.00000  Uiso   1.00
C857   C     0.09257   0.83116   0.47218   0.00000  Uiso   1.00
C858   C     0.24080   0.83127   0.02782   0.00000  Uiso   1.00
Cu859  Cu    0.16667   0.88022   0.25000   0.00000  Uiso   1.00
Cu860  Cu    0.16667   0.78645   0.25000   0.00000  Uiso   1.00
N861   N     0.16667   0.95069   0.25000   0.00000  Uiso   1.00
N862   N     0.16667   0.71598   0.25000   0.00000  Uiso   1.00
O863   O     0.10655   0.87291   0.25000   0.00000  Uiso   1.00
O864   O     0.22679   0.79375   0.25001   0.00000  Uiso   1.00
O865   O     0.22679   0.87291   0.25001   0.00000  Uiso   1.00
O866   O     0.10655   0.79375   0.25000   0.00000  Uiso   1.00
O867   O     0.16666   0.87293   0.18513   0.00000  Uiso   1.00
O868   O     0.16668   0.79373   0.31487   0.00000  Uiso   1.00
O869   O     0.16668   0.87293   0.31487   0.00000  Uiso   1.00
O870   O     0.16666   0.79373   0.18513   0.00000  Uiso   1.00
N871   N     0.23606   0.86544   0.38953   0.00000  Uiso   1.00
H872   H     0.25131   0.88910   0.40958   0.00000  Uiso   1.00
C873   C     0.26089   0.84205   0.35839   0.00000  Uiso   1.00
H874   H     0.29016   0.83164   0.37494   0.00000  Uiso   1.00
H875   H     0.26770   0.86623   0.33141   0.00000  Uiso   1.00
H876   H     0.24570   0.81142   0.34380   0.00000  Uiso   1.00
N877   N     0.09726   0.86534   0.11047   0.00000  Uiso   1.00
H878   H     0.08199   0.88899   0.09041   0.00000  Uiso   1.00
C879   C     0.07244   0.84193   0.14160   0.00000  Uiso   1.00
H880   H     0.04321   0.83143   0.12503   0.00000  Uiso   1.00
H881   H     0.06556   0.86613   0.16854   0.00000  Uiso   1.00
H882   H     0.08768   0.81136   0.15625   0.00000  Uiso   1.00
N883   N     0.09492   0.81628   0.37680   0.00000  Uiso   1.00
H884   H     0.09130   0.83363   0.34702   0.00000  Uiso   1.00
C885   C     0.08299   0.76867   0.37418   0.00000  Uiso   1.00
H886   H     0.04953   0.76663   0.36942   0.00000  Uiso   1.00
H887   H     0.09224   0.74987   0.40524   0.00000  Uiso   1.00
H888   H     0.09666   0.75211   0.34530   0.00000  Uiso   1.00
N889   N     0.23849   0.81654   0.12321   0.00000  Uiso   1.00
H890   H     0.24201   0.83389   0.15300   0.00000  Uiso   1.00
C891   C     0.25053   0.76897   0.12591   0.00000  Uiso   1.00
H892   H     0.28395   0.76706   0.13131   0.00000  Uiso   1.00
H893   H     0.24185   0.75027   0.09462   0.00000  Uiso   1.00
H894   H     0.23643   0.75223   0.15442   0.00000  Uiso   1.00
N895   N     0.05508   0.83441   0.44692   0.00000  Uiso   1.00
H896   H     0.03253   0.81329   0.45716   0.00000  Uiso   1.00
C897   C     0.04194   0.88070   0.43702   0.00000  Uiso   1.00
H898   H     0.01437   0.87985   0.41434   0.00000  Uiso   1.00
H899   H     0.06588   0.89975   0.42009   0.00000  Uiso   1.00
H900   H     0.03476   0.89884   0.46817   0.00000  Uiso   1.00
N901   N     0.27829   0.83454   0.05306   0.00000  Uiso   1.00
H902   H     0.30083   0.81338   0.04285   0.00000  Uiso   1.00
C903   C     0.29146   0.88083   0.06291   0.00000  Uiso   1.00
H904   H     0.29871   0.89890   0.03175   0.00000  Uiso   1.00
H905   H     0.31898   0.87998   0.08566   0.00000  Uiso   1.00
H906   H     0.26750   0.89994   0.07975   0.00000  Uiso   1.00
N907   N     0.05606   0.82198   0.04041   0.00000  Uiso   1.00
H908   H     0.03129   0.84002   0.02795   0.00000  Uiso   1.00
C909   C     0.04819   0.77382   0.04746   0.00000  Uiso   1.00
H910   H     0.04008   0.75664   0.01525   0.00000  Uiso   1.00
H911   H     0.02283   0.76977   0.06995   0.00000  Uiso   1.00
H912   H     0.07527   0.75685   0.06338   0.00000  Uiso   1.00
N913   N     0.27730   0.82209   0.45957   0.00000  Uiso   1.00
H914   H     0.30208   0.84013   0.47204   0.00000  Uiso   1.00
C915   C     0.28517   0.77394   0.45249   0.00000  Uiso   1.00
H916   H     0.29338   0.75677   0.48468   0.00000  Uiso   1.00
H917   H     0.31047   0.76991   0.42991   0.00000  Uiso   1.00
H918   H     0.25806   0.75695   0.43666   0.00000  Uiso   1.00
N919   N     0.04122   0.75040   0.26543   0.00000  Uiso   1.00
H920   H     0.03143   0.73449   0.29354   0.00000  Uiso   1.00
C921   C     0.04941   0.71960   0.22942   0.00000  Uiso   1.00
H922   H     0.02666   0.69180   0.22690   0.00000  Uiso   1.00
H923   H     0.07938   0.70365   0.23663   0.00000  Uiso   1.00
H924   H     0.04922   0.73815   0.19717   0.00000  Uiso   1.00
N925   N     0.29108   0.91834   0.24418   0.00000  Uiso   1.00
H926   H     0.30146   0.94347   0.26586   0.00000  Uiso   1.00
C927   C     0.28328   0.93465   0.19908   0.00000  Uiso   1.00
H928   H     0.31197   0.93930   0.18194   0.00000  Uiso   1.00
H929   H     0.26754   0.96813   0.20005   0.00000  Uiso   1.00
H930   H     0.26376   0.91005   0.17979   0.00000  Uiso   1.00
N931   N     0.29213   0.75037   0.23469   0.00000  Uiso   1.00
H932   H     0.30193   0.73440   0.20662   0.00000  Uiso   1.00
C933   C     0.28392   0.71965   0.27075   0.00000  Uiso   1.00
H934   H     0.30670   0.69188   0.27337   0.00000  Uiso   1.00
H935   H     0.25397   0.70365   0.26353   0.00000  Uiso   1.00
H936   H     0.28404   0.73828   0.30296   0.00000  Uiso   1.00
N937   N     0.04225   0.91834   0.25583   0.00000  Uiso   1.00
H938   H     0.03186   0.94347   0.23416   0.00000  Uiso   1.00
C939   C     0.05006   0.93463   0.30093   0.00000  Uiso   1.00
H940   H     0.02137   0.93932   0.31806   0.00000  Uiso   1.00
H941   H     0.06583   0.96809   0.29996   0.00000  Uiso   1.00
H942   H     0.06955   0.91001   0.32022   0.00000  Uiso   1.00
N943   N     0.14833   0.71397   0.17054   0.00000  Uiso   1.00
H944   H     0.17248   0.71777   0.15048   0.00000  Uiso   1.00
C945   C     0.11055   0.70347   0.14601   0.00000  Uiso   1.00
H946   H     0.09350   0.73550   0.13956   0.00000  Uiso   1.00
H947   H     0.09148   0.67935   0.16426   0.00000  Uiso   1.00
H948   H     0.11657   0.68815   0.11318   0.00000  Uiso   1.00
N949   N     0.17609   0.95314   0.33071   0.00000  Uiso   1.00
H950   H     0.20490   0.94544   0.34316   0.00000  Uiso   1.00
C951   C     0.14503   0.96008   0.36254   0.00000  Uiso   1.00
H952   H     0.15847   0.97563   0.39357   0.00000  Uiso   1.00
H953   H     0.13172   0.92666   0.37133   0.00000  Uiso   1.00
H954   H     0.12039   0.98265   0.34899   0.00000  Uiso   1.00
N955   N     0.18493   0.71397   0.32948   0.00000  Uiso   1.00
H956   H     0.16076   0.71777   0.34950   0.00000  Uiso   1.00
C957   C     0.22270   0.70352   0.35406   0.00000  Uiso   1.00
H958   H     0.23971   0.73556   0.36052   0.00000  Uiso   1.00
H959   H     0.24180   0.67940   0.33585   0.00000  Uiso   1.00
H960   H     0.21666   0.68821   0.38689   0.00000  Uiso   1.00
N961   N     0.15724   0.95314   0.16929   0.00000  Uiso   1.00
H962   H     0.12843   0.94542   0.15685   0.00000  Uiso   1.00
C963   C     0.18829   0.96010   0.13745   0.00000  Uiso   1.00
H964   H     0.17484   0.97568   0.10644   0.00000  Uiso   1.00
H965   H     0.20160   0.92669   0.12863   0.00000  Uiso   1.00
H966   H     0.21293   0.98265   0.15101   0.00000  Uiso   1.00
C967   C     0.42099   0.83339   0.25216   0.00000  Uiso   1.00
C968   C     0.57901   0.83339   0.24785   0.00000  Uiso   1.00
C969   C     0.42599   0.83072   0.01896   0.00000  Uiso   1.00
C970   C     0.57404   0.83082   0.48103   0.00000  Uiso   1.00
C971   C     0.35443   0.79211   0.25368   0.00000  Uiso   1.00
C972   C     0.64541   0.87573   0.24763   0.00000  Uiso   1.00
C973   C     0.64558   0.79210   0.24638   0.00000  Uiso   1.00
C974   C     0.35459   0.87573   0.25237   0.00000  Uiso   1.00
C975   C     0.62385   0.83375   0.24628   0.00000  Uiso   1.00
C976   C     0.37615   0.83376   0.25374   0.00000  Uiso   1.00
C977   C     0.49134   0.69110   0.21153   0.00000  Uiso   1.00
C978   C     0.50558   0.97567   0.28890   0.00000  Uiso   1.00
C979   C     0.50865   0.69110   0.28847   0.00000  Uiso   1.00
C980   C     0.49441   0.97567   0.21111   0.00000  Uiso   1.00
C981   C     0.49902   0.83339   0.16482   0.00000  Uiso   1.00
C982   C     0.50099   0.83339   0.33518   0.00000  Uiso   1.00
C983   C     0.53689   0.84134   0.40885   0.00000  Uiso   1.00
C984   C     0.46312   0.84128   0.09115   0.00000  Uiso   1.00
C985   C     0.50084   0.83332   0.38338   0.00000  Uiso   1.00
C986   C     0.49919   0.83332   0.11662   0.00000  Uiso   1.00
C987   C     0.46413   0.82588   0.40370   0.00000  Uiso   1.00
C988   C     0.53591   0.82597   0.09630   0.00000  Uiso   1.00
C989   C     0.46296   0.82985   0.45058   0.00000  Uiso   1.00
C990   C     0.53707   0.82992   0.04942   0.00000  Uiso   1.00
C991   C     0.50005   0.83158   0.47650   0.00000  Uiso   1.00
C992   C     0.49998   0.83158   0.02351   0.00000  Uiso   1.00
C993   C     0.53726   0.83432   0.45536   0.00000  Uiso   1.00
C994   C     0.46276   0.83426   0.04464   0.00000  Uiso   1.00
C995   C     0.42590   0.83116   0.47218   0.00000  Uiso   1.00
C996   C     0.57413   0.83127   0.02782   0.00000  Uiso   1.00
Cu997  Cu    0.50000   0.88022   0.25000   0.00000  Uiso   1.00
Cu998  Cu    0.50000   0.78645   0.25000   0.00000  Uiso   1.00
N999   N     0.50000   0.95069   0.25000   0.00000  Uiso   1.00
N1000  N     0.50000   0.71598   0.25000   0.00000  Uiso   1.00
O1001  O     0.43988   0.87291   0.25000   0.00000  Uiso   1.00
O1002  O     0.56012   0.79375   0.25001   0.00000  Uiso   1.00
O1003  O     0.56012   0.87291   0.25001   0.00000  Uiso   1.00
O1004  O     0.43988   0.79375   0.25000   0.00000  Uiso   1.00
O1005  O     0.49999   0.87293   0.18513   0.00000  Uiso   1.00
O1006  O     0.50001   0.79373   0.31487   0.00000  Uiso   1.00
O1007  O     0.50001   0.87293   0.31487   0.00000  Uiso   1.00
O1008  O     0.49999   0.79373   0.18513   0.00000  Uiso   1.00
N1009  N     0.56940   0.86544   0.38953   0.00000  Uiso   1.00
H1010  H     0.58465   0.88910   0.40958   0.00000  Uiso   1.00
C1011  C     0.59422   0.84205   0.35839   0.00000  Uiso   1.00
H1012  H     0.62349   0.83164   0.37494   0.00000  Uiso   1.00
H1013  H     0.60103   0.86623   0.33141   0.00000  Uiso   1.00
H1014  H     0.57903   0.81142   0.34380   0.00000  Uiso   1.00
N1015  N     0.43059   0.86534   0.11047   0.00000  Uiso   1.00
H1016  H     0.41532   0.88899   0.09041   0.00000  Uiso   1.00
C1017  C     0.40578   0.84193   0.14160   0.00000  Uiso   1.00
H1018  H     0.37654   0.83143   0.12503   0.00000  Uiso   1.00
H1019  H     0.39889   0.86613   0.16854   0.00000  Uiso   1.00
H1020  H     0.42101   0.81136   0.15625   0.00000  Uiso   1.00
N1021  N     0.42825   0.81628   0.37680   0.00000  Uiso   1.00
H1022  H     0.42463   0.83363   0.34702   0.00000  Uiso   1.00
C1023  C     0.41632   0.76867   0.37418   0.00000  Uiso   1.00
H1024  H     0.38286   0.76663   0.36942   0.00000  Uiso   1.00
H1025  H     0.42557   0.74987   0.40524   0.00000  Uiso   1.00
H1026  H     0.43000   0.75211   0.34530   0.00000  Uiso   1.00
N1027  N     0.57182   0.81654   0.12321   0.00000  Uiso   1.00
H1028  H     0.57535   0.83389   0.15300   0.00000  Uiso   1.00
C1029  C     0.58387   0.76897   0.12591   0.00000  Uiso   1.00
H1030  H     0.61728   0.76706   0.13131   0.00000  Uiso   1.00
H1031  H     0.57519   0.75027   0.09462   0.00000  Uiso   1.00
H1032  H     0.56977   0.75223   0.15442   0.00000  Uiso   1.00
N1033  N     0.38841   0.83441   0.44692   0.00000  Uiso   1.00
H1034  H     0.36587   0.81329   0.45716   0.00000  Uiso   1.00
C1035  C     0.37527   0.88070   0.43702   0.00000  Uiso   1.00
H1036  H     0.34771   0.87985   0.41434   0.00000  Uiso   1.00
H1037  H     0.39921   0.89975   0.42009   0.00000  Uiso   1.00
H1038  H     0.36809   0.89884   0.46817   0.00000  Uiso   1.00
N1039  N     0.61163   0.83454   0.05306   0.00000  Uiso   1.00
H1040  H     0.63416   0.81338   0.04285   0.00000  Uiso   1.00
C1041  C     0.62479   0.88083   0.06291   0.00000  Uiso   1.00
H1042  H     0.63204   0.89890   0.03175   0.00000  Uiso   1.00
H1043  H     0.65231   0.87998   0.08566   0.00000  Uiso   1.00
H1044  H     0.60083   0.89994   0.07975   0.00000  Uiso   1.00
N1045  N     0.38939   0.82198   0.04041   0.00000  Uiso   1.00
H1046  H     0.36462   0.84002   0.02795   0.00000  Uiso   1.00
C1047  C     0.38152   0.77382   0.04746   0.00000  Uiso   1.00
H1048  H     0.37341   0.75664   0.01525   0.00000  Uiso   1.00
H1049  H     0.35616   0.76977   0.06995   0.00000  Uiso   1.00
H1050  H     0.40861   0.75685   0.06338   0.00000  Uiso   1.00
N1051  N     0.61064   0.82209   0.45957   0.00000  Uiso   1.00
H1052  H     0.63541   0.84013   0.47204   0.00000  Uiso   1.00
C1053  C     0.61851   0.77394   0.45249   0.00000  Uiso   1.00
H1054  H     0.62672   0.75677   0.48468   0.00000  Uiso   1.00
H1055  H     0.64381   0.76991   0.42991   0.00000  Uiso   1.00
H1056  H     0.59140   0.75695   0.43666   0.00000  Uiso   1.00
N1057  N     0.37455   0.75040   0.26543   0.00000  Uiso   1.00
H1058  H     0.36476   0.73449   0.29354   0.00000  Uiso   1.00
C1059  C     0.38274   0.71960   0.22942   0.00000  Uiso   1.00
H1060  H     0.35999   0.69180   0.22690   0.00000  Uiso   1.00
H1061  H     0.41272   0.70365   0.23663   0.00000  Uiso   1.00
H1062  H     0.38255   0.73815   0.19717   0.00000  Uiso   1.00
N1063  N     0.62441   0.91834   0.24418   0.00000  Uiso   1.00
H1064  H     0.63480   0.94347   0.26586   0.00000  Uiso   1.00
C1065  C     0.61661   0.93465   0.19908   0.00000  Uiso   1.00
H1066  H     0.64530   0.93930   0.18194   0.00000  Uiso   1.00
H1067  H     0.60087   0.96813   0.20005   0.00000  Uiso   1.00
H1068  H     0.59710   0.91005   0.17979   0.00000  Uiso   1.00
N1069  N     0.62546   0.75037   0.23469   0.00000  Uiso   1.00
H1070  H     0.63527   0.73440   0.20662   0.00000  Uiso   1.00
C1071  C     0.61725   0.71965   0.27075   0.00000  Uiso   1.00
H1072  H     0.64003   0.69188   0.27337   0.00000  Uiso   1.00
H1073  H     0.58730   0.70365   0.26353   0.00000  Uiso   1.00
H1074  H     0.61738   0.73828   0.30296   0.00000  Uiso   1.00
N1075  N     0.37558   0.91834   0.25583   0.00000  Uiso   1.00
H1076  H     0.36519   0.94347   0.23416   0.00000  Uiso   1.00
C1077  C     0.38339   0.93463   0.30093   0.00000  Uiso   1.00
H1078  H     0.35470   0.93932   0.31806   0.00000  Uiso   1.00
H1079  H     0.39916   0.96809   0.29996   0.00000  Uiso   1.00
H1080  H     0.40288   0.91001   0.32022   0.00000  Uiso   1.00
N1081  N     0.48167   0.71397   0.17054   0.00000  Uiso   1.00
H1082  H     0.50581   0.71777   0.15048   0.00000  Uiso   1.00
C1083  C     0.44388   0.70347   0.14601   0.00000  Uiso   1.00
H1084  H     0.42683   0.73550   0.13956   0.00000  Uiso   1.00
H1085  H     0.42481   0.67935   0.16426   0.00000  Uiso   1.00
H1086  H     0.44990   0.68815   0.11318   0.00000  Uiso   1.00
N1087  N     0.50942   0.95314   0.33071   0.00000  Uiso   1.00
H1088  H     0.53824   0.94544   0.34316   0.00000  Uiso   1.00
C1089  C     0.47837   0.96008   0.36254   0.00000  Uiso   1.00
H1090  H     0.49180   0.97563   0.39357   0.00000  Uiso   1.00
H1091  H     0.46505   0.92666   0.37133   0.00000  Uiso   1.00
H1092  H     0.45372   0.98265   0.34899   0.00000  Uiso   1.00
N1093  N     0.51826   0.71397   0.32948   0.00000  Uiso   1.00
H1094  H     0.49409   0.71777   0.34950   0.00000  Uiso   1.00
C1095  C     0.55603   0.70352   0.35406   0.00000  Uiso   1.00
H1096  H     0.57305   0.73556   0.36052   0.00000  Uiso   1.00
H1097  H     0.57514   0.67940   0.33585   0.00000  Uiso   1.00
H1098  H     0.54999   0.68821   0.38689   0.00000  Uiso   1.00
N1099  N     0.49058   0.95314   0.16929   0.00000  Uiso   1.00
H1100  H     0.46176   0.94542   0.15685   0.00000  Uiso   1.00
C1101  C     0.52162   0.96010   0.13745   0.00000  Uiso   1.00
H1102  H     0.50818   0.97568   0.10644   0.00000  Uiso   1.00
H1103  H     0.53493   0.92669   0.12863   0.00000  Uiso   1.00
H1104  H     0.54627   0.98265   0.15101   0.00000  Uiso   1.00
C1105  C     0.75433   0.83339   0.25216   0.00000  Uiso   1.00
C1106  C     0.91234   0.83339   0.24785   0.00000  Uiso   1.00
C1107  C     0.75932   0.83072   0.01896   0.00000  Uiso   1.00
C1108  C     0.90737   0.83082   0.48103   0.00000  Uiso   1.00
C1109  C     0.68777   0.79211   0.25368   0.00000  Uiso   1.00
C1110  C     0.97874   0.87573   0.24763   0.00000  Uiso   1.00
C1111  C     0.97891   0.79210   0.24638   0.00000  Uiso   1.00
C1112  C     0.68792   0.87573   0.25237   0.00000  Uiso   1.00
C1113  C     0.95719   0.83375   0.24628   0.00000  Uiso   1.00
C1114  C     0.70948   0.83376   0.25374   0.00000  Uiso   1.00
C1115  C     0.82467   0.69110   0.21153   0.00000  Uiso   1.00
C1116  C     0.83892   0.97567   0.28890   0.00000  Uiso   1.00
C1117  C     0.84198   0.69110   0.28847   0.00000  Uiso   1.00
C1118  C     0.82775   0.97567   0.21111   0.00000  Uiso   1.00
C1119  C     0.83235   0.83339   0.16482   0.00000  Uiso   1.00
C1120  C     0.83432   0.83339   0.33518   0.00000  Uiso   1.00
C1121  C     0.87022   0.84134   0.40885   0.00000  Uiso   1.00
C1122  C     0.79645   0.84128   0.09115   0.00000  Uiso   1.00
C1123  C     0.83417   0.83332   0.38338   0.00000  Uiso   1.00
C1124  C     0.83252   0.83332   0.11662   0.00000  Uiso   1.00
C1125  C     0.79747   0.82588   0.40370   0.00000  Uiso   1.00
C1126  C     0.86924   0.82597   0.09630   0.00000  Uiso   1.00
C1127  C     0.79630   0.82985   0.45058   0.00000  Uiso   1.00
C1128  C     0.87041   0.82992   0.04942   0.00000  Uiso   1.00
C1129  C     0.83339   0.83158   0.47650   0.00000  Uiso   1.00
C1130  C     0.83331   0.83158   0.02351   0.00000  Uiso   1.00
C1131  C     0.87059   0.83432   0.45536   0.00000  Uiso   1.00
C1132  C     0.79610   0.83426   0.04464   0.00000  Uiso   1.00
C1133  C     0.75924   0.83116   0.47218   0.00000  Uiso   1.00
C1134  C     0.90746   0.83127   0.02782   0.00000  Uiso   1.00
Cu1135 Cu    0.83333   0.88022   0.25000   0.00000  Uiso   1.00
Cu1136 Cu    0.83333   0.78645   0.25000   0.00000  Uiso   1.00
N1137  N     0.83333   0.95069   0.25000   0.00000  Uiso   1.00
N1138  N     0.83333   0.71598   0.25000   0.00000  Uiso   1.00
O1139  O     0.77321   0.87291   0.25000   0.00000  Uiso   1.00
O1140  O     0.89345   0.79375   0.25001   0.00000  Uiso   1.00
O1141  O     0.89345   0.87291   0.25001   0.00000  Uiso   1.00
O1142  O     0.77321   0.79375   0.25000   0.00000  Uiso   1.00
O1143  O     0.83332   0.87293   0.18513   0.00000  Uiso   1.00
O1144  O     0.83334   0.79373   0.31487   0.00000  Uiso   1.00
O1145  O     0.83334   0.87293   0.31487   0.00000  Uiso   1.00
O1146  O     0.83332   0.79373   0.18513   0.00000  Uiso   1.00
N1147  N     0.90273   0.86544   0.38953   0.00000  Uiso   1.00
H1148  H     0.91798   0.88910   0.40958   0.00000  Uiso   1.00
C1149  C     0.92756   0.84205   0.35839   0.00000  Uiso   1.00
H1150  H     0.95683   0.83164   0.37494   0.00000  Uiso   1.00
H1151  H     0.93437   0.86623   0.33141   0.00000  Uiso   1.00
H1152  H     0.91237   0.81142   0.34380   0.00000  Uiso   1.00
N1153  N     0.76392   0.86534   0.11047   0.00000  Uiso   1.00
H1154  H     0.74866   0.88899   0.09041   0.00000  Uiso   1.00
C1155  C     0.73911   0.84193   0.14160   0.00000  Uiso   1.00
H1156  H     0.70988   0.83143   0.12503   0.00000  Uiso   1.00
H1157  H     0.73223   0.86613   0.16854   0.00000  Uiso   1.00
H1158  H     0.75435   0.81136   0.15625   0.00000  Uiso   1.00
N1159  N     0.76159   0.81628   0.37680   0.00000  Uiso   1.00
H1160  H     0.75796   0.83363   0.34702   0.00000  Uiso   1.00
C1161  C     0.74966   0.76867   0.37418   0.00000  Uiso   1.00
H1162  H     0.71620   0.76663   0.36942   0.00000  Uiso   1.00
H1163  H     0.75891   0.74987   0.40524   0.00000  Uiso   1.00
H1164  H     0.76333   0.75211   0.34530   0.00000  Uiso   1.00
N1165  N     0.90516   0.81654   0.12321   0.00000  Uiso   1.00
H1166  H     0.90868   0.83389   0.15300   0.00000  Uiso   1.00
C1167  C     0.91720   0.76897   0.12591   0.00000  Uiso   1.00
H1168  H     0.95061   0.76706   0.13131   0.00000  Uiso   1.00
H1169  H     0.90852   0.75027   0.09462   0.00000  Uiso   1.00
H1170  H     0.90310   0.75223   0.15442   0.00000  Uiso   1.00
N1171  N     0.72175   0.83441   0.44692   0.00000  Uiso   1.00
H1172  H     0.69920   0.81329   0.45716   0.00000  Uiso   1.00
C1173  C     0.70860   0.88070   0.43702   0.00000  Uiso   1.00
H1174  H     0.68104   0.87985   0.41434   0.00000  Uiso   1.00
H1175  H     0.73254   0.89975   0.42009   0.00000  Uiso   1.00
H1176  H     0.70143   0.89884   0.46817   0.00000  Uiso   1.00
N1177  N     0.94496   0.83454   0.05306   0.00000  Uiso   1.00
H1178  H     0.96749   0.81338   0.04285   0.00000  Uiso   1.00
C1179  C     0.95812   0.88083   0.06291   0.00000  Uiso   1.00
H1180  H     0.96538   0.89890   0.03175   0.00000  Uiso   1.00
H1181  H     0.98564   0.87998   0.08566   0.00000  Uiso   1.00
H1182  H     0.93416   0.89994   0.07975   0.00000  Uiso   1.00
N1183  N     0.72272   0.82198   0.04041   0.00000  Uiso   1.00
H1184  H     0.69796   0.84002   0.02795   0.00000  Uiso   1.00
C1185  C     0.71486   0.77382   0.04746   0.00000  Uiso   1.00
H1186  H     0.70675   0.75664   0.01525   0.00000  Uiso   1.00
H1187  H     0.68949   0.76977   0.06995   0.00000  Uiso   1.00
H1188  H     0.74194   0.75685   0.06338   0.00000  Uiso   1.00
N1189  N     0.94397   0.82209   0.45957   0.00000  Uiso   1.00
H1190  H     0.96874   0.84013   0.47204   0.00000  Uiso   1.00
C1191  C     0.95184   0.77394   0.45249   0.00000  Uiso   1.00
H1192  H     0.96005   0.75677   0.48468   0.00000  Uiso   1.00
H1193  H     0.97714   0.76991   0.42991   0.00000  Uiso   1.00
H1194  H     0.92473   0.75695   0.43666   0.00000  Uiso   1.00
N1195  N     0.70788   0.75040   0.26543   0.00000  Uiso   1.00
H1196  H     0.69809   0.73449   0.29354   0.00000  Uiso   1.00
C1197  C     0.71607   0.71960   0.22942   0.00000  Uiso   1.00
H1198  H     0.69332   0.69180   0.22690   0.00000  Uiso   1.00
H1199  H     0.74605   0.70365   0.23663   0.00000  Uiso   1.00
H1200  H     0.71589   0.73815   0.19717   0.00000  Uiso   1.00
N1201  N     0.95774   0.91834   0.24418   0.00000  Uiso   1.00
H1202  H     0.96813   0.94347   0.26586   0.00000  Uiso   1.00
C1203  C     0.94994   0.93465   0.19908   0.00000  Uiso   1.00
H1204  H     0.97864   0.93930   0.18194   0.00000  Uiso   1.00
H1205  H     0.93421   0.96813   0.20005   0.00000  Uiso   1.00
H1206  H     0.93043   0.91005   0.17979   0.00000  Uiso   1.00
N1207  N     0.95880   0.75037   0.23469   0.00000  Uiso   1.00
H1208  H     0.96860   0.73440   0.20662   0.00000  Uiso   1.00
C1209  C     0.95059   0.71965   0.27075   0.00000  Uiso   1.00
H1210  H     0.97337   0.69188   0.27337   0.00000  Uiso   1.00
H1211  H     0.92064   0.70365   0.26353   0.00000  Uiso   1.00
H1212  H     0.95071   0.73828   0.30296   0.00000  Uiso   1.00
N1213  N     0.70892   0.91834   0.25583   0.00000  Uiso   1.00
H1214  H     0.69853   0.94347   0.23416   0.00000  Uiso   1.00
C1215  C     0.71673   0.93463   0.30093   0.00000  Uiso   1.00
H1216  H     0.68803   0.93932   0.31806   0.00000  Uiso   1.00
H1217  H     0.73249   0.96809   0.29996   0.00000  Uiso   1.00
H1218  H     0.73621   0.91001   0.32022   0.00000  Uiso   1.00
N1219  N     0.81500   0.71397   0.17054   0.00000  Uiso   1.00
H1220  H     0.83914   0.71777   0.15048   0.00000  Uiso   1.00
C1221  C     0.77721   0.70347   0.14601   0.00000  Uiso   1.00
H1222  H     0.76017   0.73550   0.13956   0.00000  Uiso   1.00
H1223  H     0.75815   0.67935   0.16426   0.00000  Uiso   1.00
H1224  H     0.78323   0.68815   0.11318   0.00000  Uiso   1.00
N1225  N     0.84275   0.95314   0.33071   0.00000  Uiso   1.00
H1226  H     0.87157   0.94544   0.34316   0.00000  Uiso   1.00
C1227  C     0.81170   0.96008   0.36254   0.00000  Uiso   1.00
H1228  H     0.82513   0.97563   0.39357   0.00000  Uiso   1.00
H1229  H     0.79839   0.92666   0.37133   0.00000  Uiso   1.00
H1230  H     0.78706   0.98265   0.34899   0.00000  Uiso   1.00
N1231  N     0.85159   0.71397   0.32948   0.00000  Uiso   1.00
H1232  H     0.82742   0.71777   0.34950   0.00000  Uiso   1.00
C1233  C     0.88937   0.70352   0.35406   0.00000  Uiso   1.00
H1234  H     0.90638   0.73556   0.36052   0.00000  Uiso   1.00
H1235  H     0.90847   0.67940   0.33585   0.00000  Uiso   1.00
H1236  H     0.88332   0.68821   0.38689   0.00000  Uiso   1.00
N1237  N     0.82391   0.95314   0.16929   0.00000  Uiso   1.00
H1238  H     0.79509   0.94542   0.15685   0.00000  Uiso   1.00
C1239  C     0.85495   0.96010   0.13745   0.00000  Uiso   1.00
H1240  H     0.84151   0.97568   0.10644   0.00000  Uiso   1.00
H1241  H     0.86826   0.92669   0.12863   0.00000  Uiso   1.00
H1242  H     0.87960   0.98265   0.15101   0.00000  Uiso   1.00
C1243  C     0.08766   0.16672   0.75216   0.00000  Uiso   1.00
C1244  C     0.24567   0.16672   0.74785   0.00000  Uiso   1.00
C1245  C     0.09266   0.16405   0.51896   0.00000  Uiso   1.00
C1246  C     0.24071   0.16415   0.98103   0.00000  Uiso   1.00
C1247  C     0.02110   0.12544   0.75368   0.00000  Uiso   1.00
C1248  C     0.31208   0.20907   0.74763   0.00000  Uiso   1.00
C1249  C     0.31224   0.12544   0.74638   0.00000  Uiso   1.00
C1250  C     0.02126   0.20907   0.75237   0.00000  Uiso   1.00
C1251  C     0.29052   0.16709   0.74628   0.00000  Uiso   1.00
C1252  C     0.04281   0.16709   0.75374   0.00000  Uiso   1.00
C1253  C     0.15800   0.02444   0.71153   0.00000  Uiso   1.00
C1254  C     0.17225   0.30900   0.78890   0.00000  Uiso   1.00
C1255  C     0.17532   0.02444   0.78847   0.00000  Uiso   1.00
C1256  C     0.16108   0.30900   0.71111   0.00000  Uiso   1.00
C1257  C     0.16569   0.16672   0.66482   0.00000  Uiso   1.00
C1258  C     0.16766   0.16672   0.83518   0.00000  Uiso   1.00
C1259  C     0.20356   0.17468   0.90885   0.00000  Uiso   1.00
C1260  C     0.12979   0.17461   0.59115   0.00000  Uiso   1.00
C1261  C     0.16750   0.16665   0.88338   0.00000  Uiso   1.00
C1262  C     0.16585   0.16665   0.61662   0.00000  Uiso   1.00
C1263  C     0.13080   0.15921   0.90370   0.00000  Uiso   1.00
C1264  C     0.20258   0.15930   0.59630   0.00000  Uiso   1.00
C1265  C     0.12963   0.16318   0.95058   0.00000  Uiso   1.00
C1266  C     0.20374   0.16325   0.54942   0.00000  Uiso   1.00
C1267  C     0.16672   0.16491   0.97650   0.00000  Uiso   1.00
C1268  C     0.16665   0.16491   0.52351   0.00000  Uiso   1.00
C1269  C     0.20393   0.16765   0.95536   0.00000  Uiso   1.00
C1270  C     0.12943   0.16759   0.54464   0.00000  Uiso   1.00
C1271  C     0.09257   0.16449   0.97218   0.00000  Uiso   1.00
C1272  C     0.24080   0.16461   0.52782   0.00000  Uiso   1.00
Cu1273 Cu    0.16667   0.21355   0.75000   0.00000  Uiso   1.00
Cu1274 Cu    0.16667   0.11978   0.75000   0.00000  Uiso   1.00
N1275  N     0.16667   0.28402   0.75000   0.00000  Uiso   1.00
N1276  N     0.16667   0.04931   0.75000   0.00000  Uiso   1.00
O1277  O     0.10655   0.20625   0.75000   0.00000  Uiso   1.00
O1278  O     0.22679   0.12709   0.75001   0.00000  Uiso   1.00
O1279  O     0.22679   0.20625   0.75001   0.00000  Uiso   1.00
O1280  O     0.10655   0.12709   0.75000   0.00000  Uiso   1.00
O1281  O     0.16666   0.20627   0.68513   0.00000  Uiso   1.00
O1282  O     0.16668   0.12707   0.81487   0.00000  Uiso   1.00
O1283  O     0.16668   0.20627   0.81487   0.00000  Uiso   1.00
O1284  O     0.16666   0.12707   0.68513   0.00000  Uiso   1.00
N1285  N     0.23606   0.19877   0.88953   0.00000  Uiso   1.00
H1286  H     0.25131   0.22244   0.90958   0.00000  Uiso   1.00
C1287  C     0.26089   0.17539   0.85839   0.00000  Uiso   1.00
H1288  H     0.29016   0.16497   0.87494   0.00000  Uiso   1.00
H1289  H     0.26770   0.19957   0.83141   0.00000  Uiso   1.00
H1290  H     0.24570   0.14476   0.84380   0.00000  Uiso   1.00
N1291  N     0.09726   0.19867   0.61047   0.00000  Uiso   1.00
H1292  H     0.08199   0.22232   0.59041   0.00000  Uiso   1.00
C1293  C     0.07244   0.17527   0.64160   0.00000  Uiso   1.00
H1294  H     0.04321   0.16476   0.62503   0.00000  Uiso   1.00
H1295  H     0.06556   0.19946   0.66854   0.00000  Uiso   1.00
H1296  H     0.08768   0.14469   0.65625   0.00000  Uiso   1.00
N1297  N     0.09492   0.14962   0.87680   0.00000  Uiso   1.00
H1298  H     0.09130   0.16696   0.84702   0.00000  Uiso   1.00
C1299  C     0.08299   0.10201   0.87418   0.00000  Uiso   1.00
H1300  H     0.04953   0.09997   0.86942   0.00000  Uiso   1.00
H1301  H     0.09224   0.08320   0.90524   0.00000  Uiso   1.00
H1302  H     0.09666   0.08544   0.84530   0.00000  Uiso   1.00
N1303  N     0.23849   0.14988   0.62321   0.00000  Uiso   1.00
H1304  H     0.24201   0.16723   0.65300   0.00000  Uiso   1.00
C1305  C     0.25053   0.10231   0.62591   0.00000  Uiso   1.00
H1306  H     0.28395   0.10039   0.63131   0.00000  Uiso   1.00
H1307  H     0.24185   0.08361   0.59462   0.00000  Uiso   1.00
H1308  H     0.23643   0.08557   0.65442   0.00000  Uiso   1.00
N1309  N     0.05508   0.16774   0.94692   0.00000  Uiso   1.00
H1310  H     0.03253   0.14662   0.95716   0.00000  Uiso   1.00
C1311  C     0.04194   0.21403   0.93702   0.00000  Uiso   1.00
H1312  H     0.01437   0.21318   0.91434   0.00000  Uiso   1.00
H1313  H     0.06588   0.23309   0.92009   0.00000  Uiso   1.00
H1314  H     0.03476   0.23217   0.96817   0.00000  Uiso   1.00
N1315  N     0.27829   0.16787   0.55306   0.00000  Uiso   1.00
H1316  H     0.30083   0.14671   0.54285   0.00000  Uiso   1.00
C1317  C     0.29146   0.21416   0.56291   0.00000  Uiso   1.00
H1318  H     0.29871   0.23223   0.53175   0.00000  Uiso   1.00
H1319  H     0.31898   0.21331   0.58566   0.00000  Uiso   1.00
H1320  H     0.26750   0.23328   0.57975   0.00000  Uiso   1.00
N1321  N     0.05606   0.15531   0.54041   0.00000  Uiso   1.00
H1322  H     0.03129   0.17336   0.52795   0.00000  Uiso   1.00
C1323  C     0.04819   0.10716   0.54746   0.00000  Uiso   1.00
H1324  H     0.04008   0.08998   0.51525   0.00000  Uiso   1.00
H1325  H     0.02283   0.10311   0.56995   0.00000  Uiso   1.00
H1326  H     0.07527   0.09019   0.56338   0.00000  Uiso   1.00
N1327  N     0.27730   0.15543   0.95957   0.00000  Uiso   1.00
H1328  H     0.30208   0.17346   0.97204   0.00000  Uiso   1.00
C1329  C     0.28517   0.10728   0.95249   0.00000  Uiso   1.00
H1330  H     0.29338   0.09010   0.98468   0.00000  Uiso   1.00
H1331  H     0.31047   0.10324   0.92991   0.00000  Uiso   1.00
H1332  H     0.25806   0.09029   0.93666   0.00000  Uiso   1.00
N1333  N     0.04122   0.08373   0.76543   0.00000  Uiso   1.00
H1334  H     0.03143   0.06783   0.79354   0.00000  Uiso   1.00
C1335  C     0.04941   0.05293   0.72942   0.00000  Uiso   1.00
H1336  H     0.02666   0.02513   0.72690   0.00000  Uiso   1.00
H1337  H     0.07938   0.03698   0.73663   0.00000  Uiso   1.00
H1338  H     0.04922   0.07148   0.69717   0.00000  Uiso   1.00
N1339  N     0.29108   0.25167   0.74418   0.00000  Uiso   1.00
H1340  H     0.30146   0.27681   0.76586   0.00000  Uiso   1.00
C1341  C     0.28328   0.26798   0.69908   0.00000  Uiso   1.00
H1342  H     0.31197   0.27263   0.68194   0.00000  Uiso   1.00
H1343  H     0.26754   0.30146   0.70005   0.00000  Uiso   1.00
H1344  H     0.26376   0.24338   0.67979   0.00000  Uiso   1.00
N1345  N     0.29213   0.08371   0.73469   0.00000  Uiso   1.00
H1346  H     0.30193   0.06774   0.70662   0.00000  Uiso   1.00
C1347  C     0.28392   0.05298   0.77075   0.00000  Uiso   1.00
H1348  H     0.30670   0.02521   0.77337   0.00000  Uiso   1.00
H1349  H     0.25397   0.03698   0.76353   0.00000  Uiso   1.00
H1350  H     0.28404   0.07161   0.80296   0.00000  Uiso   1.00
N1351  N     0.04225   0.25167   0.75583   0.00000  Uiso   1.00
H1352  H     0.03186   0.27681   0.73416   0.00000  Uiso   1.00
C1353  C     0.05006   0.26797   0.80093   0.00000  Uiso   1.00
H1354  H     0.02137   0.27265   0.81806   0.00000  Uiso   1.00
H1355  H     0.06583   0.30143   0.79996   0.00000  Uiso   1.00
H1356  H     0.06955   0.24334   0.82022   0.00000  Uiso   1.00
N1357  N     0.14833   0.04730   0.67054   0.00000  Uiso   1.00
H1358  H     0.17248   0.05110   0.65048   0.00000  Uiso   1.00
C1359  C     0.11055   0.03680   0.64601   0.00000  Uiso   1.00
H1360  H     0.09350   0.06883   0.63956   0.00000  Uiso   1.00
H1361  H     0.09148   0.01268   0.66426   0.00000  Uiso   1.00
H1362  H     0.11657   0.02149   0.61318   0.00000  Uiso   1.00
N1363  N     0.17609   0.28647   0.83071   0.00000  Uiso   1.00
H1364  H     0.20490   0.27878   0.84316   0.00000  Uiso   1.00
C1365  C     0.14503   0.29341   0.86254   0.00000  Uiso   1.00
H1366  H     0.15847   0.30897   0.89357   0.00000  Uiso   1.00
H1367  H     0.13172   0.26000   0.87133   0.00000  Uiso   1.00
H1368  H     0.12039   0.31598   0.84899   0.00000  Uiso   1.00
N1369  N     0.18493   0.04731   0.82948   0.00000  Uiso   1.00
H1370  H     0.16076   0.05110   0.84950   0.00000  Uiso   1.00
C1371  C     0.22270   0.03685   0.85406   0.00000  Uiso   1.00
H1372  H     0.23971   0.06890   0.86052   0.00000  Uiso   1.00
H1373  H     0.24180   0.01273   0.83585   0.00000  Uiso   1.00
H1374  H     0.21666   0.02155   0.88689   0.00000  Uiso   1.00
N1375  N     0.15724   0.28647   0.66929   0.00000  Uiso   1.00
H1376  H     0.12843   0.27875   0.65685   0.00000  Uiso   1.00
C1377  C     0.18829   0.29343   0.63745   0.00000  Uiso   1.00
H1378  H     0.17484   0.30901   0.60644   0.00000  Uiso   1.00
H1379  H     0.20160   0.26002   0.62863   0.00000  Uiso   1.00
H1380  H     0.21293   0.31599   0.65101   0.00000  Uiso   1.00
C1381  C     0.42099   0.16672   0.75216   0.00000  Uiso   1.00
C1382  C     0.57901   0.16672   0.74785   0.00000  Uiso   1.00
C1383  C     0.42599   0.16405   0.51896   0.00000  Uiso   1.00
C1384  C     0.57404   0.16415   0.98103   0.00000  Uiso   1.00
C1385  C     0.35443   0.12544   0.75368   0.00000  Uiso   1.00
C1386  C     0.64541   0.20907   0.74763   0.00000  Uiso   1.00
C1387  C     0.64558   0.12544   0.74638   0.00000  Uiso   1.00
C1388  C     0.35459   0.20907   0.75237   0.00000  Uiso   1.00
C1389  C     0.62385   0.16709   0.74628   0.00000  Uiso   1.00
C1390  C     0.37615   0.16709   0.75374   0.00000  Uiso   1.00
C1391  C     0.49134   0.02444   0.71153   0.00000  Uiso   1.00
C1392  C     0.50558   0.30900   0.78890   0.00000  Uiso   1.00
C1393  C     0.50865   0.02444   0.78847   0.00000  Uiso   1.00
C1394  C     0.49441   0.30900   0.71111   0.00000  Uiso   1.00
C1395  C     0.49902   0.16672   0.66482   0.00000  Uiso   1.00
C1396  C     0.50099   0.16672   0.83518   0.00000  Uiso   1.00
C1397  C     0.53689   0.17468   0.90885   0.00000  Uiso   1.00
C1398  C     0.46312   0.17461   0.59115   0.00000  Uiso   1.00
C1399  C     0.50084   0.16665   0.88338   0.00000  Uiso   1.00
C1400  C     0.49919   0.16665   0.61662   0.00000  Uiso   1.00
C1401  C     0.46413   0.15921   0.90370   0.00000  Uiso   1.00
C1402  C     0.53591   0.15930   0.59630   0.00000  Uiso   1.00
C1403  C     0.46296   0.16318   0.95058   0.00000  Uiso   1.00
C1404  C     0.53707   0.16325   0.54942   0.00000  Uiso   1.00
C1405  C     0.50005   0.16491   0.97650   0.00000  Uiso   1.00
C1406  C     0.49998   0.16491   0.52351   0.00000  Uiso   1.00
C1407  C     0.53726   0.16765   0.95536   0.00000  Uiso   1.00
C1408  C     0.46276   0.16759   0.54464   0.00000  Uiso   1.00
C1409  C     0.42590   0.16449   0.97218   0.00000  Uiso   1.00
C1410  C     0.57413   0.16461   0.52782   0.00000  Uiso   1.00
Cu1411 Cu    0.50000   0.21355   0.75000   0.00000  Uiso   1.00
Cu1412 Cu    0.50000   0.11978   0.75000   0.00000  Uiso   1.00
N1413  N     0.50000   0.28402   0.75000   0.00000  Uiso   1.00
N1414  N     0.50000   0.04931   0.75000   0.00000  Uiso   1.00
O1415  O     0.43988   0.20625   0.75000   0.00000  Uiso   1.00
O1416  O     0.56012   0.12709   0.75001   0.00000  Uiso   1.00
O1417  O     0.56012   0.20625   0.75001   0.00000  Uiso   1.00
O1418  O     0.43988   0.12709   0.75000   0.00000  Uiso   1.00
O1419  O     0.49999   0.20627   0.68513   0.00000  Uiso   1.00
O1420  O     0.50001   0.12707   0.81487   0.00000  Uiso   1.00
O1421  O     0.50001   0.20627   0.81487   0.00000  Uiso   1.00
O1422  O     0.49999   0.12707   0.68513   0.00000  Uiso   1.00
N1423  N     0.56940   0.19877   0.88953   0.00000  Uiso   1.00
H1424  H     0.58465   0.22244   0.90958   0.00000  Uiso   1.00
C1425  C     0.59422   0.17539   0.85839   0.00000  Uiso   1.00
H1426  H     0.62349   0.16497   0.87494   0.00000  Uiso   1.00
H1427  H     0.60103   0.19957   0.83141   0.00000  Uiso   1.00
H1428  H     0.57903   0.14476   0.84380   0.00000  Uiso   1.00
N1429  N     0.43059   0.19867   0.61047   0.00000  Uiso   1.00
H1430  H     0.41532   0.22232   0.59041   0.00000  Uiso   1.00
C1431  C     0.40578   0.17527   0.64160   0.00000  Uiso   1.00
H1432  H     0.37654   0.16476   0.62503   0.00000  Uiso   1.00
H1433  H     0.39889   0.19946   0.66854   0.00000  Uiso   1.00
H1434  H     0.42101   0.14469   0.65625   0.00000  Uiso   1.00
N1435  N     0.42825   0.14962   0.87680   0.00000  Uiso   1.00
H1436  H     0.42463   0.16696   0.84702   0.00000  Uiso   1.00
C1437  C     0.41632   0.10201   0.87418   0.00000  Uiso   1.00
H1438  H     0.38286   0.09997   0.86942   0.00000  Uiso   1.00
H1439  H     0.42557   0.08320   0.90524   0.00000  Uiso   1.00
H1440  H     0.43000   0.08544   0.84530   0.00000  Uiso   1.00
N1441  N     0.57182   0.14988   0.62321   0.00000  Uiso   1.00
H1442  H     0.57535   0.16723   0.65300   0.00000  Uiso   1.00
C1443  C     0.58387   0.10231   0.62591   0.00000  Uiso   1.00
H1444  H     0.61728   0.10039   0.63131   0.00000  Uiso   1.00
H1445  H     0.57519   0.08361   0.59462   0.00000  Uiso   1.00
H1446  H     0.56977   0.08557   0.65442   0.00000  Uiso   1.00
N1447  N     0.38841   0.16774   0.94692   0.00000  Uiso   1.00
H1448  H     0.36587   0.14662   0.95716   0.00000  Uiso   1.00
C1449  C     0.37527   0.21403   0.93702   0.00000  Uiso   1.00
H1450  H     0.34771   0.21318   0.91434   0.00000  Uiso   1.00
H1451  H     0.39921   0.23309   0.92009   0.00000  Uiso   1.00
H1452  H     0.36809   0.23217   0.96817   0.00000  Uiso   1.00
N1453  N     0.61163   0.16787   0.55306   0.00000  Uiso   1.00
H1454  H     0.63416   0.14671   0.54285   0.00000  Uiso   1.00
C1455  C     0.62479   0.21416   0.56291   0.00000  Uiso   1.00
H1456  H     0.63204   0.23223   0.53175   0.00000  Uiso   1.00
H1457  H     0.65231   0.21331   0.58566   0.00000  Uiso   1.00
H1458  H     0.60083   0.23328   0.57975   0.00000  Uiso   1.00
N1459  N     0.38939   0.15531   0.54041   0.00000  Uiso   1.00
H1460  H     0.36462   0.17336   0.52795   0.00000  Uiso   1.00
C1461  C     0.38152   0.10716   0.54746   0.00000  Uiso   1.00
H1462  H     0.37341   0.08998   0.51525   0.00000  Uiso   1.00
H1463  H     0.35616   0.10311   0.56995   0.00000  Uiso   1.00
H1464  H     0.40861   0.09019   0.56338   0.00000  Uiso   1.00
N1465  N     0.61064   0.15543   0.95957   0.00000  Uiso   1.00
H1466  H     0.63541   0.17346   0.97204   0.00000  Uiso   1.00
C1467  C     0.61851   0.10728   0.95249   0.00000  Uiso   1.00
H1468  H     0.62672   0.09010   0.98468   0.00000  Uiso   1.00
H1469  H     0.64381   0.10324   0.92991   0.00000  Uiso   1.00
H1470  H     0.59140   0.09029   0.93666   0.00000  Uiso   1.00
N1471  N     0.37455   0.08373   0.76543   0.00000  Uiso   1.00
H1472  H     0.36476   0.06783   0.79354   0.00000  Uiso   1.00
C1473  C     0.38274   0.05293   0.72942   0.00000  Uiso   1.00
H1474  H     0.35999   0.02513   0.72690   0.00000  Uiso   1.00
H1475  H     0.41272   0.03698   0.73663   0.00000  Uiso   1.00
H1476  H     0.38255   0.07148   0.69717   0.00000  Uiso   1.00
N1477  N     0.62441   0.25167   0.74418   0.00000  Uiso   1.00
H1478  H     0.63480   0.27681   0.76586   0.00000  Uiso   1.00
C1479  C     0.61661   0.26798   0.69908   0.00000  Uiso   1.00
H1480  H     0.64530   0.27263   0.68194   0.00000  Uiso   1.00
H1481  H     0.60087   0.30146   0.70005   0.00000  Uiso   1.00
H1482  H     0.59710   0.24338   0.67979   0.00000  Uiso   1.00
N1483  N     0.62546   0.08371   0.73469   0.00000  Uiso   1.00
H1484  H     0.63527   0.06774   0.70662   0.00000  Uiso   1.00
C1485  C     0.61725   0.05298   0.77075   0.00000  Uiso   1.00
H1486  H     0.64003   0.02521   0.77337   0.00000  Uiso   1.00
H1487  H     0.58730   0.03698   0.76353   0.00000  Uiso   1.00
H1488  H     0.61738   0.07161   0.80296   0.00000  Uiso   1.00
N1489  N     0.37558   0.25167   0.75583   0.00000  Uiso   1.00
H1490  H     0.36519   0.27681   0.73416   0.00000  Uiso   1.00
C1491  C     0.38339   0.26797   0.80093   0.00000  Uiso   1.00
H1492  H     0.35470   0.27265   0.81806   0.00000  Uiso   1.00
H1493  H     0.39916   0.30143   0.79996   0.00000  Uiso   1.00
H1494  H     0.40288   0.24334   0.82022   0.00000  Uiso   1.00
N1495  N     0.48167   0.04730   0.67054   0.00000  Uiso   1.00
H1496  H     0.50581   0.05110   0.65048   0.00000  Uiso   1.00
C1497  C     0.44388   0.03680   0.64601   0.00000  Uiso   1.00
H1498  H     0.42683   0.06883   0.63956   0.00000  Uiso   1.00
H1499  H     0.42481   0.01268   0.66426   0.00000  Uiso   1.00
H1500  H     0.44990   0.02149   0.61318   0.00000  Uiso   1.00
N1501  N     0.50942   0.28647   0.83071   0.00000  Uiso   1.00
H1502  H     0.53824   0.27878   0.84316   0.00000  Uiso   1.00
C1503  C     0.47837   0.29341   0.86254   0.00000  Uiso   1.00
H1504  H     0.49180   0.30897   0.89357   0.00000  Uiso   1.00
H1505  H     0.46505   0.26000   0.87133   0.00000  Uiso   1.00
H1506  H     0.45372   0.31598   0.84899   0.00000  Uiso   1.00
N1507  N     0.51826   0.04731   0.82948   0.00000  Uiso   1.00
H1508  H     0.49409   0.05110   0.84950   0.00000  Uiso   1.00
C1509  C     0.55603   0.03685   0.85406   0.00000  Uiso   1.00
H1510  H     0.57305   0.06890   0.86052   0.00000  Uiso   1.00
H1511  H     0.57514   0.01273   0.83585   0.00000  Uiso   1.00
H1512  H     0.54999   0.02155   0.88689   0.00000  Uiso   1.00
N1513  N     0.49058   0.28647   0.66929   0.00000  Uiso   1.00
H1514  H     0.46176   0.27875   0.65685   0.00000  Uiso   1.00
C1515  C     0.52162   0.29343   0.63745   0.00000  Uiso   1.00
H1516  H     0.50818   0.30901   0.60644   0.00000  Uiso   1.00
H1517  H     0.53493   0.26002   0.62863   0.00000  Uiso   1.00
H1518  H     0.54627   0.31599   0.65101   0.00000  Uiso   1.00
C1519  C     0.75433   0.16672   0.75216   0.00000  Uiso   1.00
C1520  C     0.91234   0.16672   0.74785   0.00000  Uiso   1.00
C1521  C     0.75932   0.16405   0.51896   0.00000  Uiso   1.00
C1522  C     0.90737   0.16415   0.98103   0.00000  Uiso   1.00
C1523  C     0.68777   0.12544   0.75368   0.00000  Uiso   1.00
C1524  C     0.97874   0.20907   0.74763   0.00000  Uiso   1.00
C1525  C     0.97891   0.12544   0.74638   0.00000  Uiso   1.00
C1526  C     0.68792   0.20907   0.75237   0.00000  Uiso   1.00
C1527  C     0.95719   0.16709   0.74628   0.00000  Uiso   1.00
C1528  C     0.70948   0.16709   0.75374   0.00000  Uiso   1.00
C1529  C     0.82467   0.02444   0.71153   0.00000  Uiso   1.00
C1530  C     0.83892   0.30900   0.78890   0.00000  Uiso   1.00
C1531  C     0.84198   0.02444   0.78847   0.00000  Uiso   1.00
C1532  C     0.82775   0.30900   0.71111   0.00000  Uiso   1.00
C1533  C     0.83235   0.16672   0.66482   0.00000  Uiso   1.00
C1534  C     0.83432   0.16672   0.83518   0.00000  Uiso   1.00
C1535  C     0.87022   0.17468   0.90885   0.00000  Uiso   1.00
C1536  C     0.79645   0.17461   0.59115   0.00000  Uiso   1.00
C1537  C     0.83417   0.16665   0.88338   0.00000  Uiso   1.00
C1538  C     0.83252   0.16665   0.61662   0.00000  Uiso   1.00
C1539  C     0.79747   0.15921   0.90370   0.00000  Uiso   1.00
C1540  C     0.86924   0.15930   0.59630   0.00000  Uiso   1.00
C1541  C     0.79630   0.16318   0.95058   0.00000  Uiso   1.00
C1542  C     0.87041   0.16325   0.54942   0.00000  Uiso   1.00
C1543  C     0.83339   0.16491   0.97650   0.00000  Uiso   1.00
C1544  C     0.83331   0.16491   0.52351   0.00000  Uiso   1.00
C1545  C     0.87059   0.16765   0.95536   0.00000  Uiso   1.00
C1546  C     0.79610   0.16759   0.54464   0.00000  Uiso   1.00
C1547  C     0.75924   0.16449   0.97218   0.00000  Uiso   1.00
C1548  C     0.90746   0.16461   0.52782   0.00000  Uiso   1.00
Cu1549 Cu    0.83333   0.21355   0.75000   0.00000  Uiso   1.00
Cu1550 Cu    0.83333   0.11978   0.75000   0.00000  Uiso   1.00
N1551  N     0.83333   0.28402   0.75000   0.00000  Uiso   1.00
N1552  N     0.83333   0.04931   0.75000   0.00000  Uiso   1.00
O1553  O     0.77321   0.20625   0.75000   0.00000  Uiso   1.00
O1554  O     0.89345   0.12709   0.75001   0.00000  Uiso   1.00
O1555  O     0.89345   0.20625   0.75001   0.00000  Uiso   1.00
O1556  O     0.77321   0.12709   0.75000   0.00000  Uiso   1.00
O1557  O     0.83332   0.20627   0.68513   0.00000  Uiso   1.00
O1558  O     0.83334   0.12707   0.81487   0.00000  Uiso   1.00
O1559  O     0.83334   0.20627   0.81487   0.00000  Uiso   1.00
O1560  O     0.83332   0.12707   0.68513   0.00000  Uiso   1.00
N1561  N     0.90273   0.19877   0.88953   0.00000  Uiso   1.00
H1562  H     0.91798   0.22244   0.90958   0.00000  Uiso   1.00
C1563  C     0.92756   0.17539   0.85839   0.00000  Uiso   1.00
H1564  H     0.95683   0.16497   0.87494   0.00000  Uiso   1.00
H1565  H     0.93437   0.19957   0.83141   0.00000  Uiso   1.00
H1566  H     0.91237   0.14476   0.84380   0.00000  Uiso   1.00
N1567  N     0.76392   0.19867   0.61047   0.00000  Uiso   1.00
H1568  H     0.74866   0.22232   0.59041   0.00000  Uiso   1.00
C1569  C     0.73911   0.17527   0.64160   0.00000  Uiso   1.00
H1570  H     0.70988   0.16476   0.62503   0.00000  Uiso   1.00
H1571  H     0.73223   0.19946   0.66854   0.00000  Uiso   1.00
H1572  H     0.75435   0.14469   0.65625   0.00000  Uiso   1.00
N1573  N     0.76159   0.14962   0.87680   0.00000  Uiso   1.00
H1574  H     0.75796   0.16696   0.84702   0.00000  Uiso   1.00
C1575  C     0.74966   0.10201   0.87418   0.00000  Uiso   1.00
H1576  H     0.71620   0.09997   0.86942   0.00000  Uiso   1.00
H1577  H     0.75891   0.08320   0.90524   0.00000  Uiso   1.00
H1578  H     0.76333   0.08544   0.84530   0.00000  Uiso   1.00
N1579  N     0.90516   0.14988   0.62321   0.00000  Uiso   1.00
H1580  H     0.90868   0.16723   0.65300   0.00000  Uiso   1.00
C1581  C     0.91720   0.10231   0.62591   0.00000  Uiso   1.00
H1582  H     0.95061   0.10039   0.63131   0.00000  Uiso   1.00
H1583  H     0.90852   0.08361   0.59462   0.00000  Uiso   1.00
H1584  H     0.90310   0.08557   0.65442   0.00000  Uiso   1.00
N1585  N     0.72175   0.16774   0.94692   0.00000  Uiso   1.00
H1586  H     0.69920   0.14662   0.95716   0.00000  Uiso   1.00
C1587  C     0.70860   0.21403   0.93702   0.00000  Uiso   1.00
H1588  H     0.68104   0.21318   0.91434   0.00000  Uiso   1.00
H1589  H     0.73254   0.23309   0.92009   0.00000  Uiso   1.00
H1590  H     0.70143   0.23217   0.96817   0.00000  Uiso   1.00
N1591  N     0.94496   0.16787   0.55306   0.00000  Uiso   1.00
H1592  H     0.96749   0.14671   0.54285   0.00000  Uiso   1.00
C1593  C     0.95812   0.21416   0.56291   0.00000  Uiso   1.00
H1594  H     0.96538   0.23223   0.53175   0.00000  Uiso   1.00
H1595  H     0.98564   0.21331   0.58566   0.00000  Uiso   1.00
H1596  H     0.93416   0.23328   0.57975   0.00000  Uiso   1.00
N1597  N     0.72272   0.15531   0.54041   0.00000  Uiso   1.00
H1598  H     0.69796   0.17336   0.52795   0.00000  Uiso   1.00
C1599  C     0.71486   0.10716   0.54746   0.00000  Uiso   1.00
H1600  H     0.70675   0.08998   0.51525   0.00000  Uiso   1.00
H1601  H     0.68949   0.10311   0.56995   0.00000  Uiso   1.00
H1602  H     0.74194   0.09019   0.56338   0.00000  Uiso   1.00
N1603  N     0.94397   0.15543   0.95957   0.00000  Uiso   1.00
H1604  H     0.96874   0.17346   0.97204   0.00000  Uiso   1.00
C1605  C     0.95184   0.10728   0.95249   0.00000  Uiso   1.00
H1606  H     0.96005   0.09010   0.98468   0.00000  Uiso   1.00
H1607  H     0.97714   0.10324   0.92991   0.00000  Uiso   1.00
H1608  H     0.92473   0.09029   0.93666   0.00000  Uiso   1.00
N1609  N     0.70788   0.08373   0.76543   0.00000  Uiso   1.00
H1610  H     0.69809   0.06783   0.79354   0.00000  Uiso   1.00
C1611  C     0.71607   0.05293   0.72942   0.00000  Uiso   1.00
H1612  H     0.69332   0.02513   0.72690   0.00000  Uiso   1.00
H1613  H     0.74605   0.03698   0.73663   0.00000  Uiso   1.00
H1614  H     0.71589   0.07148   0.69717   0.00000  Uiso   1.00
N1615  N     0.95774   0.25167   0.74418   0.00000  Uiso   1.00
H1616  H     0.96813   0.27681   0.76586   0.00000  Uiso   1.00
C1617  C     0.94994   0.26798   0.69908   0.00000  Uiso   1.00
H1618  H     0.97864   0.27263   0.68194   0.00000  Uiso   1.00
H1619  H     0.93421   0.30146   0.70005   0.00000  Uiso   1.00
H1620  H     0.93043   0.24338   0.67979   0.00000  Uiso   1.00
N1621  N     0.95880   0.08371   0.73469   0.00000  Uiso   1.00
H1622  H     0.96860   0.06774   0.70662   0.00000  Uiso   1.00
C1623  C     0.95059   0.05298   0.77075   0.00000  Uiso   1.00
H1624  H     0.97337   0.02521   0.77337   0.00000  Uiso   1.00
H1625  H     0.92064   0.03698   0.76353   0.00000  Uiso   1.00
H1626  H     0.95071   0.07161   0.80296   0.00000  Uiso   1.00
N1627  N     0.70892   0.25167   0.75583   0.00000  Uiso   1.00
H1628  H     0.69853   0.27681   0.73416   0.00000  Uiso   1.00
C1629  C     0.71673   0.26797   0.80093   0.00000  Uiso   1.00
H1630  H     0.68803   0.27265   0.81806   0.00000  Uiso   1.00
H1631  H     0.73249   0.30143   0.79996   0.00000  Uiso   1.00
H1632  H     0.73621   0.24334   0.82022   0.00000  Uiso   1.00
N1633  N     0.81500   0.04730   0.67054   0.00000  Uiso   1.00
H1634  H     0.83914   0.05110   0.65048   0.00000  Uiso   1.00
C1635  C     0.77721   0.03680   0.64601   0.00000  Uiso   1.00
H1636  H     0.76017   0.06883   0.63956   0.00000  Uiso   1.00
H1637  H     0.75815   0.01268   0.66426   0.00000  Uiso   1.00
H1638  H     0.78323   0.02149   0.61318   0.00000  Uiso   1.00
N1639  N     0.84275   0.28647   0.83071   0.00000  Uiso   1.00
H1640  H     0.87157   0.27878   0.84316   0.00000  Uiso   1.00
C1641  C     0.81170   0.29341   0.86254   0.00000  Uiso   1.00
H1642  H     0.82513   0.30897   0.89357   0.00000  Uiso   1.00
H1643  H     0.79839   0.26000   0.87133   0.00000  Uiso   1.00
H1644  H     0.78706   0.31598   0.84899   0.00000  Uiso   1.00
N1645  N     0.85159   0.04731   0.82948   0.00000  Uiso   1.00
H1646  H     0.82742   0.05110   0.84950   0.00000  Uiso   1.00
C1647  C     0.88937   0.03685   0.85406   0.00000  Uiso   1.00
H1648  H     0.90638   0.06890   0.86052   0.00000  Uiso   1.00
H1649  H     0.90847   0.01273   0.83585   0.00000  Uiso   1.00
H1650  H     0.88332   0.02155   0.88689   0.00000  Uiso   1.00
N1651  N     0.82391   0.28647   0.66929   0.00000  Uiso   1.00
H1652  H     0.79509   0.27875   0.65685   0.00000  Uiso   1.00
C1653  C     0.85495   0.29343   0.63745   0.00000  Uiso   1.00
H1654  H     0.84151   0.30901   0.60644   0.00000  Uiso   1.00
H1655  H     0.86826   0.26002   0.62863   0.00000  Uiso   1.00
H1656  H     0.87960   0.31599   0.65101   0.00000  Uiso   1.00
C1657  C     0.08766   0.50006   0.75216   0.00000  Uiso   1.00
C1658  C     0.24567   0.50006   0.74785   0.00000  Uiso   1.00
C1659  C     0.09266   0.49738   0.51896   0.00000  Uiso   1.00
C1660  C     0.24071   0.49749   0.98103   0.00000  Uiso   1.00
C1661  C     0.02110   0.45877   0.75368   0.00000  Uiso   1.00
C1662  C     0.31208   0.54240   0.74763   0.00000  Uiso   1.00
C1663  C     0.31224   0.45877   0.74638   0.00000  Uiso   1.00
C1664  C     0.02126   0.54240   0.75237   0.00000  Uiso   1.00
C1665  C     0.29052   0.50042   0.74628   0.00000  Uiso   1.00
C1666  C     0.04281   0.50042   0.75374   0.00000  Uiso   1.00
C1667  C     0.15800   0.35777   0.71153   0.00000  Uiso   1.00
C1668  C     0.17225   0.64234   0.78890   0.00000  Uiso   1.00
C1669  C     0.17532   0.35777   0.78847   0.00000  Uiso   1.00
C1670  C     0.16108   0.64234   0.71111   0.00000  Uiso   1.00
C1671  C     0.16569   0.50005   0.66482   0.00000  Uiso   1.00
C1672  C     0.16766   0.50005   0.83518   0.00000  Uiso   1.00
C1673  C     0.20356   0.50801   0.90885   0.00000  Uiso   1.00
C1674  C     0.12979   0.50794   0.59115   0.00000  Uiso   1.00
C1675  C     0.16750   0.49999   0.88338   0.00000  Uiso   1.00
C1676  C     0.16585   0.49999   0.61662   0.00000  Uiso   1.00
C1677  C     0.13080   0.49255   0.90370   0.00000  Uiso   1.00
C1678  C     0.20258   0.49263   0.59630   0.00000  Uiso   1.00
C1679  C     0.12963   0.49651   0.95058   0.00000  Uiso   1.00
C1680  C     0.20374   0.49658   0.54942   0.00000  Uiso   1.00
C1681  C     0.16672   0.49825   0.97650   0.00000  Uiso   1.00
C1682  C     0.16665   0.49825   0.52351   0.00000  Uiso   1.00
C1683  C     0.20393   0.50099   0.95536   0.00000  Uiso   1.00
C1684  C     0.12943   0.50093   0.54464   0.00000  Uiso   1.00
C1685  C     0.09257   0.49783   0.97218   0.00000  Uiso   1.00
C1686  C     0.24080   0.49794   0.52782   0.00000  Uiso   1.00
Cu1687 Cu    0.16667   0.54689   0.75000   0.00000  Uiso   1.00
Cu1688 Cu    0.16667   0.45311   0.75000   0.00000  Uiso   1.00
N1689  N     0.16667   0.61736   0.75000   0.00000  Uiso   1.00
N1690  N     0.16667   0.38264   0.75000   0.00000  Uiso   1.00
O1691  O     0.10655   0.53958   0.75000   0.00000  Uiso   1.00
O1692  O     0.22679   0.46042   0.75001   0.00000  Uiso   1.00
O1693  O     0.22679   0.53958   0.75001   0.00000  Uiso   1.00
O1694  O     0.10655   0.46042   0.75000   0.00000  Uiso   1.00
O1695  O     0.16666   0.53960   0.68513   0.00000  Uiso   1.00
O1696  O     0.16668   0.46040   0.81487   0.00000  Uiso   1.00
O1697  O     0.16668   0.53960   0.81487   0.00000  Uiso   1.00
O1698  O     0.16666   0.46040   0.68513   0.00000  Uiso   1.00
N1699  N     0.23606   0.53211   0.88953   0.00000  Uiso   1.00
H1700  H     0.25131   0.55577   0.90958   0.00000  Uiso   1.00
C1701  C     0.26089   0.50872   0.85839   0.00000  Uiso   1.00
H1702  H     0.29016   0.49831   0.87494   0.00000  Uiso   1.00
H1703  H     0.26770   0.53290   0.83141   0.00000  Uiso   1.00
H1704  H     0.24570   0.47809   0.84380   0.00000  Uiso   1.00
N1705  N     0.09726   0.53201   0.61047   0.00000  Uiso   1.00
H1706  H     0.08199   0.55566   0.59041   0.00000  Uiso   1.00
C1707  C     0.07244   0.50860   0.64160   0.00000  Uiso   1.00
H1708  H     0.04321   0.49810   0.62503   0.00000  Uiso   1.00
H1709  H     0.06556   0.53280   0.66854   0.00000  Uiso   1.00
H1710  H     0.08768   0.47803   0.65625   0.00000  Uiso   1.00
N1711  N     0.09492   0.48295   0.87680   0.00000  Uiso   1.00
H1712  H     0.09130   0.50030   0.84702   0.00000  Uiso   1.00
C1713  C     0.08299   0.43534   0.87418   0.00000  Uiso   1.00
H1714  H     0.04953   0.43330   0.86942   0.00000  Uiso   1.00
H1715  H     0.09224   0.41653   0.90524   0.00000  Uiso   1.00
H1716  H     0.09666   0.41878   0.84530   0.00000  Uiso   1.00
N1717  N     0.23849   0.48321   0.62321   0.00000  Uiso   1.00
H1718  H     0.24201   0.50056   0.65300   0.00000  Uiso   1.00
C1719  C     0.25053   0.43564   0.62591   0.00000  Uiso   1.00
H1720  H     0.28395   0.43372   0.63131   0.00000  Uiso   1.00
H1721  H     0.24185   0.41694   0.59462   0.00000  Uiso   1.00
H1722  H     0.23643   0.41890   0.65442   0.00000  Uiso   1.00
N1723  N     0.05508   0.50108   0.94692   0.00000  Uiso   1.00
H1724  H     0.03253   0.47995   0.95716   0.00000  Uiso   1.00
C1725  C     0.04194   0.54737   0.93702   0.00000  Uiso   1.00
H1726  H     0.01437   0.54652   0.91434   0.00000  Uiso   1.00
H1727  H     0.06588   0.56642   0.92009   0.00000  Uiso   1.00
H1728  H     0.03476   0.56551   0.96817   0.00000  Uiso   1.00
N1729  N     0.27829   0.50120   0.55306   0.00000  Uiso   1.00
H1730  H     0.30083   0.48004   0.54285   0.00000  Uiso   1.00
C1731  C     0.29146   0.54749   0.56291   0.00000  Uiso   1.00
H1732  H     0.29871   0.56556   0.53175   0.00000  Uiso   1.00
H1733  H     0.31898   0.54665   0.58566   0.00000  Uiso   1.00
H1734  H     0.26750   0.56661   0.57975   0.00000  Uiso   1.00
N1735  N     0.05606   0.48864   0.54041   0.00000  Uiso   1.00
H1736  H     0.03129   0.50669   0.52795   0.00000  Uiso   1.00
C1737  C     0.04819   0.44049   0.54746   0.00000  Uiso   1.00
H1738  H     0.04008   0.42331   0.51525   0.00000  Uiso   1.00
H1739  H     0.02283   0.43644   0.56995   0.00000  Uiso   1.00
H1740  H     0.07527   0.42352   0.56338   0.00000  Uiso   1.00
N1741  N     0.27730   0.48876   0.95957   0.00000  Uiso   1.00
H1742  H     0.30208   0.50680   0.97204   0.00000  Uiso   1.00
C1743  C     0.28517   0.44061   0.95249   0.00000  Uiso   1.00
H1744  H     0.29338   0.42344   0.98468   0.00000  Uiso   1.00
H1745  H     0.31047   0.43658   0.92991   0.00000  Uiso   1.00
H1746  H     0.25806   0.42362   0.93666   0.00000  Uiso   1.00
N1747  N     0.04122   0.41706   0.76543   0.00000  Uiso   1.00
H1748  H     0.03143   0.40116   0.79354   0.00000  Uiso   1.00
C1749  C     0.04941   0.38626   0.72942   0.00000  Uiso   1.00
H1750  H     0.02666   0.35847   0.72690   0.00000  Uiso   1.00
H1751  H     0.07938   0.37031   0.73663   0.00000  Uiso   1.00
H1752  H     0.04922   0.40482   0.69717   0.00000  Uiso   1.00
N1753  N     0.29108   0.58501   0.74418   0.00000  Uiso   1.00
H1754  H     0.30146   0.61014   0.76586   0.00000  Uiso   1.00
C1755  C     0.28328   0.60131   0.69908   0.00000  Uiso   1.00
H1756  H     0.31197   0.60596   0.68194   0.00000  Uiso   1.00
H1757  H     0.26754   0.63479   0.70005   0.00000  Uiso   1.00
H1758  H     0.26376   0.57672   0.67979   0.00000  Uiso   1.00
N1759  N     0.29213   0.41704   0.73469   0.00000  Uiso   1.00
H1760  H     0.30193   0.40107   0.70662   0.00000  Uiso   1.00
C1761  C     0.28392   0.38631   0.77075   0.00000  Uiso   1.00
H1762  H     0.30670   0.35854   0.77337   0.00000  Uiso   1.00
H1763  H     0.25397   0.37031   0.76353   0.00000  Uiso   1.00
H1764  H     0.28404   0.40494   0.80296   0.00000  Uiso   1.00
N1765  N     0.04225   0.58500   0.75583   0.00000  Uiso   1.00
H1766  H     0.03186   0.61014   0.73416   0.00000  Uiso   1.00
C1767  C     0.05006   0.60130   0.80093   0.00000  Uiso   1.00
H1768  H     0.02137   0.60599   0.81806   0.00000  Uiso   1.00
H1769  H     0.06583   0.63476   0.79996   0.00000  Uiso   1.00
H1770  H     0.06955   0.57668   0.82022   0.00000  Uiso   1.00
N1771  N     0.14833   0.38064   0.67054   0.00000  Uiso   1.00
H1772  H     0.17248   0.38443   0.65048   0.00000  Uiso   1.00
C1773  C     0.11055   0.37014   0.64601   0.00000  Uiso   1.00
H1774  H     0.09350   0.40217   0.63956   0.00000  Uiso   1.00
H1775  H     0.09148   0.34602   0.66426   0.00000  Uiso   1.00
H1776  H     0.11657   0.35482   0.61318   0.00000  Uiso   1.00
N1777  N     0.17609   0.61980   0.83071   0.00000  Uiso   1.00
H1778  H     0.20490   0.61211   0.84316   0.00000  Uiso   1.00
C1779  C     0.14503   0.62675   0.86254   0.00000  Uiso   1.00
H1780  H     0.15847   0.64230   0.89357   0.00000  Uiso   1.00
H1781  H     0.13172   0.59333   0.87133   0.00000  Uiso   1.00
H1782  H     0.12039   0.64931   0.84899   0.00000  Uiso   1.00
N1783  N     0.18493   0.38064   0.82948   0.00000  Uiso   1.00
H1784  H     0.16076   0.38443   0.84950   0.00000  Uiso   1.00
C1785  C     0.22270   0.37018   0.85406   0.00000  Uiso   1.00
H1786  H     0.23971   0.40223   0.86052   0.00000  Uiso   1.00
H1787  H     0.24180   0.34606   0.83585   0.00000  Uiso   1.00
H1788  H     0.21666   0.35488   0.88689   0.00000  Uiso   1.00
N1789  N     0.15724   0.61980   0.66929   0.00000  Uiso   1.00
H1790  H     0.12843   0.61208   0.65685   0.00000  Uiso   1.00
C1791  C     0.18829   0.62676   0.63745   0.00000  Uiso   1.00
H1792  H     0.17484   0.64234   0.60644   0.00000  Uiso   1.00
H1793  H     0.20160   0.59335   0.62863   0.00000  Uiso   1.00
H1794  H     0.21293   0.64932   0.65101   0.00000  Uiso   1.00
C1795  C     0.42099   0.50006   0.75216   0.00000  Uiso   1.00
C1796  C     0.57901   0.50006   0.74785   0.00000  Uiso   1.00
C1797  C     0.42599   0.49738   0.51896   0.00000  Uiso   1.00
C1798  C     0.57404   0.49749   0.98103   0.00000  Uiso   1.00
C1799  C     0.35443   0.45877   0.75368   0.00000  Uiso   1.00
C1800  C     0.64541   0.54240   0.74763   0.00000  Uiso   1.00
C1801  C     0.64558   0.45877   0.74638   0.00000  Uiso   1.00
C1802  C     0.35459   0.54240   0.75237   0.00000  Uiso   1.00
C1803  C     0.62385   0.50042   0.74628   0.00000  Uiso   1.00
C1804  C     0.37615   0.50042   0.75374   0.00000  Uiso   1.00
C1805  C     0.49134   0.35777   0.71153   0.00000  Uiso   1.00
C1806  C     0.50558   0.64234   0.78890   0.00000  Uiso   1.00
C1807  C     0.50865   0.35777   0.78847   0.00000  Uiso   1.00
C1808  C     0.49441   0.64234   0.71111   0.00000  Uiso   1.00
C1809  C     0.49902   0.50005   0.66482   0.00000  Uiso   1.00
C1810  C     0.50099   0.50005   0.83518   0.00000  Uiso   1.00
C1811  C     0.53689   0.50801   0.90885   0.00000  Uiso   1.00
C1812  C     0.46312   0.50794   0.59115   0.00000  Uiso   1.00
C1813  C     0.50084   0.49999   0.88338   0.00000  Uiso   1.00
C1814  C     0.49919   0.49999   0.61662   0.00000  Uiso   1.00
C1815  C     0.46413   0.49255   0.90370   0.00000  Uiso   1.00
C1816  C     0.53591   0.49263   0.59630   0.00000  Uiso   1.00
C1817  C     0.46296   0.49651   0.95058   0.00000  Uiso   1.00
C1818  C     0.53707   0.49658   0.54942   0.00000  Uiso   1.00
C1819  C     0.50005   0.49825   0.97650   0.00000  Uiso   1.00
C1820  C     0.49998   0.49825   0.52351   0.00000  Uiso   1.00
C1821  C     0.53726   0.50099   0.95536   0.00000  Uiso   1.00
C1822  C     0.46276   0.50093   0.54464   0.00000  Uiso   1.00
C1823  C     0.42590   0.49783   0.97218   0.00000  Uiso   1.00
C1824  C     0.57413   0.49794   0.52782   0.00000  Uiso   1.00
Cu1825 Cu    0.50000   0.54689   0.75000   0.00000  Uiso   1.00
Cu1826 Cu    0.50000   0.45311   0.75000   0.00000  Uiso   1.00
N1827  N     0.50000   0.61736   0.75000   0.00000  Uiso   1.00
N1828  N     0.50000   0.38264   0.75000   0.00000  Uiso   1.00
O1829  O     0.43988   0.53958   0.75000   0.00000  Uiso   1.00
O1830  O     0.56012   0.46042   0.75001   0.00000  Uiso   1.00
O1831  O     0.56012   0.53958   0.75001   0.00000  Uiso   1.00
O1832  O     0.43988   0.46042   0.75000   0.00000  Uiso   1.00
O1833  O     0.49999   0.53960   0.68513   0.00000  Uiso   1.00
O1834  O     0.50001   0.46040   0.81487   0.00000  Uiso   1.00
O1835  O     0.50001   0.53960   0.81487   0.00000  Uiso   1.00
O1836  O     0.49999   0.46040   0.68513   0.00000  Uiso   1.00
N1837  N     0.56940   0.53211   0.88953   0.00000  Uiso   1.00
H1838  H     0.58465   0.55577   0.90958   0.00000  Uiso   1.00
C1839  C     0.59422   0.50872   0.85839   0.00000  Uiso   1.00
H1840  H     0.62349   0.49831   0.87494   0.00000  Uiso   1.00
H1841  H     0.60103   0.53290   0.83141   0.00000  Uiso   1.00
H1842  H     0.57903   0.47809   0.84380   0.00000  Uiso   1.00
N1843  N     0.43059   0.53201   0.61047   0.00000  Uiso   1.00
H1844  H     0.41532   0.55566   0.59041   0.00000  Uiso   1.00
C1845  C     0.40578   0.50860   0.64160   0.00000  Uiso   1.00
H1846  H     0.37654   0.49810   0.62503   0.00000  Uiso   1.00
H1847  H     0.39889   0.53280   0.66854   0.00000  Uiso   1.00
H1848  H     0.42101   0.47803   0.65625   0.00000  Uiso   1.00
N1849  N     0.42825   0.48295   0.87680   0.00000  Uiso   1.00
H1850  H     0.42463   0.50030   0.84702   0.00000  Uiso   1.00
C1851  C     0.41632   0.43534   0.87418   0.00000  Uiso   1.00
H1852  H     0.38286   0.43330   0.86942   0.00000  Uiso   1.00
H1853  H     0.42557   0.41653   0.90524   0.00000  Uiso   1.00
H1854  H     0.43000   0.41878   0.84530   0.00000  Uiso   1.00
N1855  N     0.57182   0.48321   0.62321   0.00000  Uiso   1.00
H1856  H     0.57535   0.50056   0.65300   0.00000  Uiso   1.00
C1857  C     0.58387   0.43564   0.62591   0.00000  Uiso   1.00
H1858  H     0.61728   0.43372   0.63131   0.00000  Uiso   1.00
H1859  H     0.57519   0.41694   0.59462   0.00000  Uiso   1.00
H1860  H     0.56977   0.41890   0.65442   0.00000  Uiso   1.00
N1861  N     0.38841   0.50108   0.94692   0.00000  Uiso   1.00
H1862  H     0.36587   0.47995   0.95716   0.00000  Uiso   1.00
C1863  C     0.37527   0.54737   0.93702   0.00000  Uiso   1.00
H1864  H     0.34771   0.54652   0.91434   0.00000  Uiso   1.00
H1865  H     0.39921   0.56642   0.92009   0.00000  Uiso   1.00
H1866  H     0.36809   0.56551   0.96817   0.00000  Uiso   1.00
N1867  N     0.61163   0.50120   0.55306   0.00000  Uiso   1.00
H1868  H     0.63416   0.48004   0.54285   0.00000  Uiso   1.00
C1869  C     0.62479   0.54749   0.56291   0.00000  Uiso   1.00
H1870  H     0.63204   0.56556   0.53175   0.00000  Uiso   1.00
H1871  H     0.65231   0.54665   0.58566   0.00000  Uiso   1.00
H1872  H     0.60083   0.56661   0.57975   0.00000  Uiso   1.00
N1873  N     0.38939   0.48864   0.54041   0.00000  Uiso   1.00
H1874  H     0.36462   0.50669   0.52795   0.00000  Uiso   1.00
C1875  C     0.38152   0.44049   0.54746   0.00000  Uiso   1.00
H1876  H     0.37341   0.42331   0.51525   0.00000  Uiso   1.00
H1877  H     0.35616   0.43644   0.56995   0.00000  Uiso   1.00
H1878  H     0.40861   0.42352   0.56338   0.00000  Uiso   1.00
N1879  N     0.61064   0.48876   0.95957   0.00000  Uiso   1.00
H1880  H     0.63541   0.50680   0.97204   0.00000  Uiso   1.00
C1881  C     0.61851   0.44061   0.95249   0.00000  Uiso   1.00
H1882  H     0.62672   0.42344   0.98468   0.00000  Uiso   1.00
H1883  H     0.64381   0.43658   0.92991   0.00000  Uiso   1.00
H1884  H     0.59140   0.42362   0.93666   0.00000  Uiso   1.00
N1885  N     0.37455   0.41706   0.76543   0.00000  Uiso   1.00
H1886  H     0.36476   0.40116   0.79354   0.00000  Uiso   1.00
C1887  C     0.38274   0.38626   0.72942   0.00000  Uiso   1.00
H1888  H     0.35999   0.35847   0.72690   0.00000  Uiso   1.00
H1889  H     0.41272   0.37031   0.73663   0.00000  Uiso   1.00
H1890  H     0.38255   0.40482   0.69717   0.00000  Uiso   1.00
N1891  N     0.62441   0.58501   0.74418   0.00000  Uiso   1.00
H1892  H     0.63480   0.61014   0.76586   0.00000  Uiso   1.00
C1893  C     0.61661   0.60131   0.69908   0.00000  Uiso   1.00
H1894  H     0.64530   0.60596   0.68194   0.00000  Uiso   1.00
H1895  H     0.60087   0.63479   0.70005   0.00000  Uiso   1.00
H1896  H     0.59710   0.57672   0.67979   0.00000  Uiso   1.00
N1897  N     0.62546   0.41704   0.73469   0.00000  Uiso   1.00
H1898  H     0.63527   0.40107   0.70662   0.00000  Uiso   1.00
C1899  C     0.61725   0.38631   0.77075   0.00000  Uiso   1.00
H1900  H     0.64003   0.35854   0.77337   0.00000  Uiso   1.00
H1901  H     0.58730   0.37031   0.76353   0.00000  Uiso   1.00
H1902  H     0.61738   0.40494   0.80296   0.00000  Uiso   1.00
N1903  N     0.37558   0.58500   0.75583   0.00000  Uiso   1.00
H1904  H     0.36519   0.61014   0.73416   0.00000  Uiso   1.00
C1905  C     0.38339   0.60130   0.80093   0.00000  Uiso   1.00
H1906  H     0.35470   0.60599   0.81806   0.00000  Uiso   1.00
H1907  H     0.39916   0.63476   0.79996   0.00000  Uiso   1.00
H1908  H     0.40288   0.57668   0.82022   0.00000  Uiso   1.00
N1909  N     0.48167   0.38064   0.67054   0.00000  Uiso   1.00
H1910  H     0.50581   0.38443   0.65048   0.00000  Uiso   1.00
C1911  C     0.44388   0.37014   0.64601   0.00000  Uiso   1.00
H1912  H     0.42683   0.40217   0.63956   0.00000  Uiso   1.00
H1913  H     0.42481   0.34602   0.66426   0.00000  Uiso   1.00
H1914  H     0.44990   0.35482   0.61318   0.00000  Uiso   1.00
N1915  N     0.50942   0.61980   0.83071   0.00000  Uiso   1.00
H1916  H     0.53824   0.61211   0.84316   0.00000  Uiso   1.00
C1917  C     0.47837   0.62675   0.86254   0.00000  Uiso   1.00
H1918  H     0.49180   0.64230   0.89357   0.00000  Uiso   1.00
H1919  H     0.46505   0.59333   0.87133   0.00000  Uiso   1.00
H1920  H     0.45372   0.64931   0.84899   0.00000  Uiso   1.00
N1921  N     0.51826   0.38064   0.82948   0.00000  Uiso   1.00
H1922  H     0.49409   0.38443   0.84950   0.00000  Uiso   1.00
C1923  C     0.55603   0.37018   0.85406   0.00000  Uiso   1.00
H1924  H     0.57305   0.40223   0.86052   0.00000  Uiso   1.00
H1925  H     0.57514   0.34606   0.83585   0.00000  Uiso   1.00
H1926  H     0.54999   0.35488   0.88689   0.00000  Uiso   1.00
N1927  N     0.49058   0.61980   0.66929   0.00000  Uiso   1.00
H1928  H     0.46176   0.61208   0.65685   0.00000  Uiso   1.00
C1929  C     0.52162   0.62676   0.63745   0.00000  Uiso   1.00
H1930  H     0.50818   0.64234   0.60644   0.00000  Uiso   1.00
H1931  H     0.53493   0.59335   0.62863   0.00000  Uiso   1.00
H1932  H     0.54627   0.64932   0.65101   0.00000  Uiso   1.00
C1933  C     0.75433   0.50006   0.75216   0.00000  Uiso   1.00
C1934  C     0.91234   0.50006   0.74785   0.00000  Uiso   1.00
C1935  C     0.75932   0.49738   0.51896   0.00000  Uiso   1.00
C1936  C     0.90737   0.49749   0.98103   0.00000  Uiso   1.00
C1937  C     0.68777   0.45877   0.75368   0.00000  Uiso   1.00
C1938  C     0.97874   0.54240   0.74763   0.00000  Uiso   1.00
C1939  C     0.97891   0.45877   0.74638   0.00000  Uiso   1.00
C1940  C     0.68792   0.54240   0.75237   0.00000  Uiso   1.00
C1941  C     0.95719   0.50042   0.74628   0.00000  Uiso   1.00
C1942  C     0.70948   0.50042   0.75374   0.00000  Uiso   1.00
C1943  C     0.82467   0.35777   0.71153   0.00000  Uiso   1.00
C1944  C     0.83892   0.64234   0.78890   0.00000  Uiso   1.00
C1945  C     0.84198   0.35777   0.78847   0.00000  Uiso   1.00
C1946  C     0.82775   0.64234   0.71111   0.00000  Uiso   1.00
C1947  C     0.83235   0.50005   0.66482   0.00000  Uiso   1.00
C1948  C     0.83432   0.50005   0.83518   0.00000  Uiso   1.00
C1949  C     0.87022   0.50801   0.90885   0.00000  Uiso   1.00
C1950  C     0.79645   0.50794   0.59115   0.00000  Uiso   1.00
C1951  C     0.83417   0.49999   0.88338   0.00000  Uiso   1.00
C1952  C     0.83252   0.49999   0.61662   0.00000  Uiso   1.00
C1953  C     0.79747   0.49255   0.90370   0.00000  Uiso   1.00
C1954  C     0.86924   0.49263   0.59630   0.00000  Uiso   1.00
C1955  C     0.79630   0.49651   0.95058   0.00000  Uiso   1.00
C1956  C     0.87041   0.49658   0.54942   0.00000  Uiso   1.00
C1957  C     0.83339   0.49825   0.97650   0.00000  Uiso   1.00
C1958  C     0.83331   0.49825   0.52351   0.00000  Uiso   1.00
C1959  C     0.87059   0.50099   0.95536   0.00000  Uiso   1.00
C1960  C     0.79610   0.50093   0.54464   0.00000  Uiso   1.00
C1961  C     0.75924   0.49783   0.97218   0.00000  Uiso   1.00
C1962  C     0.90746   0.49794   0.52782   0.00000  Uiso   1.00
Cu1963 Cu    0.83333   0.54689   0.75000   0.00000  Uiso   1.00
Cu1964 Cu    0.83333   0.45311   0.75000   0.00000  Uiso   1.00
N1965  N     0.83333   0.61736   0.75000   0.00000  Uiso   1.00
N1966  N     0.83333   0.38264   0.75000   0.00000  Uiso   1.00
O1967  O     0.77321   0.53958   0.75000   0.00000  Uiso   1.00
O1968  O     0.89345   0.46042   0.75001   0.00000  Uiso   1.00
O1969  O     0.89345   0.53958   0.75001   0.00000  Uiso   1.00
O1970  O     0.77321   0.46042   0.75000   0.00000  Uiso   1.00
O1971  O     0.83332   0.53960   0.68513   0.00000  Uiso   1.00
O1972  O     0.83334   0.46040   0.81487   0.00000  Uiso   1.00
O1973  O     0.83334   0.53960   0.81487   0.00000  Uiso   1.00
O1974  O     0.83332   0.46040   0.68513   0.00000  Uiso   1.00
N1975  N     0.90273   0.53211   0.88953   0.00000  Uiso   1.00
H1976  H     0.91798   0.55577   0.90958   0.00000  Uiso   1.00
C1977  C     0.92756   0.50872   0.85839   0.00000  Uiso   1.00
H1978  H     0.95683   0.49831   0.87494   0.00000  Uiso   1.00
H1979  H     0.93437   0.53290   0.83141   0.00000  Uiso   1.00
H1980  H     0.91237   0.47809   0.84380   0.00000  Uiso   1.00
N1981  N     0.76392   0.53201   0.61047   0.00000  Uiso   1.00
H1982  H     0.74866   0.55566   0.59041   0.00000  Uiso   1.00
C1983  C     0.73911   0.50860   0.64160   0.00000  Uiso   1.00
H1984  H     0.70988   0.49810   0.62503   0.00000  Uiso   1.00
H1985  H     0.73223   0.53280   0.66854   0.00000  Uiso   1.00
H1986  H     0.75435   0.47803   0.65625   0.00000  Uiso   1.00
N1987  N     0.76159   0.48295   0.87680   0.00000  Uiso   1.00
H1988  H     0.75796   0.50030   0.84702   0.00000  Uiso   1.00
C1989  C     0.74966   0.43534   0.87418   0.00000  Uiso   1.00
H1990  H     0.71620   0.43330   0.86942   0.00000  Uiso   1.00
H1991  H     0.75891   0.41653   0.90524   0.00000  Uiso   1.00
H1992  H     0.76333   0.41878   0.84530   0.00000  Uiso   1.00
N1993  N     0.90516   0.48321   0.62321   0.00000  Uiso   1.00
H1994  H     0.90868   0.50056   0.65300   0.00000  Uiso   1.00
C1995  C     0.91720   0.43564   0.62591   0.00000  Uiso   1.00
H1996  H     0.95061   0.43372   0.63131   0.00000  Uiso   1.00
H1997  H     0.90852   0.41694   0.59462   0.00000  Uiso   1.00
H1998  H     0.90310   0.41890   0.65442   0.00000  Uiso   1.00
N1999  N     0.72175   0.50108   0.94692   0.00000  Uiso   1.00
H2000  H     0.69920   0.47995   0.95716   0.00000  Uiso   1.00
C2001  C     0.70860   0.54737   0.93702   0.00000  Uiso   1.00
H2002  H     0.68104   0.54652   0.91434   0.00000  Uiso   1.00
H2003  H     0.73254   0.56642   0.92009   0.00000  Uiso   1.00
H2004  H     0.70143   0.56551   0.96817   0.00000  Uiso   1.00
N2005  N     0.94496   0.50120   0.55306   0.00000  Uiso   1.00
H2006  H     0.96749   0.48004   0.54285   0.00000  Uiso   1.00
C2007  C     0.95812   0.54749   0.56291   0.00000  Uiso   1.00
H2008  H     0.96538   0.56556   0.53175   0.00000  Uiso   1.00
H2009  H     0.98564   0.54665   0.58566   0.00000  Uiso   1.00
H2010  H     0.93416   0.56661   0.57975   0.00000  Uiso   1.00
N2011  N     0.72272   0.48864   0.54041   0.00000  Uiso   1.00
H2012  H     0.69796   0.50669   0.52795   0.00000  Uiso   1.00
C2013  C     0.71486   0.44049   0.54746   0.00000  Uiso   1.00
H2014  H     0.70675   0.42331   0.51525   0.00000  Uiso   1.00
H2015  H     0.68949   0.43644   0.56995   0.00000  Uiso   1.00
H2016  H     0.74194   0.42352   0.56338   0.00000  Uiso   1.00
N2017  N     0.94397   0.48876   0.95957   0.00000  Uiso   1.00
H2018  H     0.96874   0.50680   0.97204   0.00000  Uiso   1.00
C2019  C     0.95184   0.44061   0.95249   0.00000  Uiso   1.00
H2020  H     0.96005   0.42344   0.98468   0.00000  Uiso   1.00
H2021  H     0.97714   0.43658   0.92991   0.00000  Uiso   1.00
H2022  H     0.92473   0.42362   0.93666   0.00000  Uiso   1.00
N2023  N     0.70788   0.41706   0.76543   0.00000  Uiso   1.00
H2024  H     0.69809   0.40116   0.79354   0.00000  Uiso   1.00
C2025  C     0.71607   0.38626   0.72942   0.00000  Uiso   1.00
H2026  H     0.69332   0.35847   0.72690   0.00000  Uiso   1.00
H2027  H     0.74605   0.37031   0.73663   0.00000  Uiso   1.00
H2028  H     0.71589   0.40482   0.69717   0.00000  Uiso   1.00
N2029  N     0.95774   0.58501   0.74418   0.00000  Uiso   1.00
H2030  H     0.96813   0.61014   0.76586   0.00000  Uiso   1.00
C2031  C     0.94994   0.60131   0.69908   0.00000  Uiso   1.00
H2032  H     0.97864   0.60596   0.68194   0.00000  Uiso   1.00
H2033  H     0.93421   0.63479   0.70005   0.00000  Uiso   1.00
H2034  H     0.93043   0.57672   0.67979   0.00000  Uiso   1.00
N2035  N     0.95880   0.41704   0.73469   0.00000  Uiso   1.00
H2036  H     0.96860   0.40107   0.70662   0.00000  Uiso   1.00
C2037  C     0.95059   0.38631   0.77075   0.00000  Uiso   1.00
H2038  H     0.97337   0.35854   0.77337   0.00000  Uiso   1.00
H2039  H     0.92064   0.37031   0.76353   0.00000  Uiso   1.00
H2040  H     0.95071   0.40494   0.80296   0.00000  Uiso   1.00
N2041  N     0.70892   0.58500   0.75583   0.00000  Uiso   1.00
H2042  H     0.69853   0.61014   0.73416   0.00000  Uiso   1.00
C2043  C     0.71673   0.60130   0.80093   0.00000  Uiso   1.00
H2044  H     0.68803   0.60599   0.81806   0.00000  Uiso   1.00
H2045  H     0.73249   0.63476   0.79996   0.00000  Uiso   1.00
H2046  H     0.73621   0.57668   0.82022   0.00000  Uiso   1.00
N2047  N     0.81500   0.38064   0.67054   0.00000  Uiso   1.00
H2048  H     0.83914   0.38443   0.65048   0.00000  Uiso   1.00
C2049  C     0.77721   0.37014   0.64601   0.00000  Uiso   1.00
H2050  H     0.76017   0.40217   0.63956   0.00000  Uiso   1.00
H2051  H     0.75815   0.34602   0.66426   0.00000  Uiso   1.00
H2052  H     0.78323   0.35482   0.61318   0.00000  Uiso   1.00
N2053  N     0.84275   0.61980   0.83071   0.00000  Uiso   1.00
H2054  H     0.87157   0.61211   0.84316   0.00000  Uiso   1.00
C2055  C     0.81170   0.62675   0.86254   0.00000  Uiso   1.00
H2056  H     0.82513   0.64230   0.89357   0.00000  Uiso   1.00
H2057  H     0.79839   0.59333   0.87133   0.00000  Uiso   1.00
H2058  H     0.78706   0.64931   0.84899   0.00000  Uiso   1.00
N2059  N     0.85159   0.38064   0.82948   0.00000  Uiso   1.00
H2060  H     0.82742   0.38443   0.84950   0.00000  Uiso   1.00
C2061  C     0.88937   0.37018   0.85406   0.00000  Uiso   1.00
H2062  H     0.90638   0.40223   0.86052   0.00000  Uiso   1.00
H2063  H     0.90847   0.34606   0.83585   0.00000  Uiso   1.00
H2064  H     0.88332   0.35488   0.88689   0.00000  Uiso   1.00
N2065  N     0.82391   0.61980   0.66929   0.00000  Uiso   1.00
H2066  H     0.79509   0.61208   0.65685   0.00000  Uiso   1.00
C2067  C     0.85495   0.62676   0.63745   0.00000  Uiso   1.00
H2068  H     0.84151   0.64234   0.60644   0.00000  Uiso   1.00
H2069  H     0.86826   0.59335   0.62863   0.00000  Uiso   1.00
H2070  H     0.87960   0.64932   0.65101   0.00000  Uiso   1.00
C2071  C     0.08766   0.83339   0.75216   0.00000  Uiso   1.00
C2072  C     0.24567   0.83339   0.74785   0.00000  Uiso   1.00
C2073  C     0.09266   0.83072   0.51896   0.00000  Uiso   1.00
C2074  C     0.24071   0.83082   0.98103   0.00000  Uiso   1.00
C2075  C     0.02110   0.79211   0.75368   0.00000  Uiso   1.00
C2076  C     0.31208   0.87573   0.74763   0.00000  Uiso   1.00
C2077  C     0.31224   0.79210   0.74638   0.00000  Uiso   1.00
C2078  C     0.02126   0.87573   0.75237   0.00000  Uiso   1.00
C2079  C     0.29052   0.83375   0.74628   0.00000  Uiso   1.00
C2080  C     0.04281   0.83376   0.75374   0.00000  Uiso   1.00
C2081  C     0.15800   0.69110   0.71153   0.00000  Uiso   1.00
C2082  C     0.17225   0.97567   0.78890   0.00000  Uiso   1.00
C2083  C     0.17532   0.69110   0.78847   0.00000  Uiso   1.00
C2084  C     0.16108   0.97567   0.71111   0.00000  Uiso   1.00
C2085  C     0.16569   0.83339   0.66482   0.00000  Uiso   1.00
C2086  C     0.16766   0.83339   0.83518   0.00000  Uiso   1.00
C2087  C     0.20356   0.84134   0.90885   0.00000  Uiso   1.00
C2088  C     0.12979   0.84128   0.59115   0.00000  Uiso   1.00
C2089  C     0.16750   0.83332   0.88338   0.00000  Uiso   1.00
C2090  C     0.16585   0.83332   0.61662   0.00000  Uiso   1.00
C2091  C     0.13080   0.82588   0.90370   0.00000  Uiso   1.00
C2092  C     0.20258   0.82597   0.59630   0.00000  Uiso   1.00
C2093  C     0.12963   0.82985   0.95058   0.00000  Uiso   1.00
C2094  C     0.20374   0.82992   0.54942   0.00000  Uiso   1.00
C2095  C     0.16672   0.83158   0.97650   0.00000  Uiso   1.00
C2096  C     0.16665   0.83158   0.52351   0.00000  Uiso   1.00
C2097  C     0.20393   0.83432   0.95536   0.00000  Uiso   1.00
C2098  C     0.12943   0.83426   0.54464   0.00000  Uiso   1.00
C2099  C     0.09257   0.83116   0.97218   0.00000  Uiso   1.00
C2100  C     0.24080   0.83127   0.52782   0.00000  Uiso   1.00
Cu2101 Cu    0.16667   0.88022   0.75000   0.00000  Uiso   1.00
Cu2102 Cu    0.16667   0.78645   0.75000   0.00000  Uiso   1.00
N2103  N     0.16667   0.95069   0.75000   0.00000  Uiso   1.00
N2104  N     0.16667   0.71598   0.75000   0.00000  Uiso   1.00
O2105  O     0.10655   0.87291   0.75000   0.00000  Uiso   1.00
O2106  O     0.22679   0.79375   0.75001   0.00000  Uiso   1.00
O2107  O     0.22679   0.87291   0.75001   0.00000  Uiso   1.00
O2108  O     0.10655   0.79375   0.75000   0.00000  Uiso   1.00
O2109  O     0.16666   0.87293   0.68513   0.00000  Uiso   1.00
O2110  O     0.16668   0.79373   0.81487   0.00000  Uiso   1.00
O2111  O     0.16668   0.87293   0.81487   0.00000  Uiso   1.00
O2112  O     0.16666   0.79373   0.68513   0.00000  Uiso   1.00
N2113  N     0.23606   0.86544   0.88953   0.00000  Uiso   1.00
H2114  H     0.25131   0.88910   0.90958   0.00000  Uiso   1.00
C2115  C     0.26089   0.84205   0.85839   0.00000  Uiso   1.00
H2116  H     0.29016   0.83164   0.87494   0.00000  Uiso   1.00
H2117  H     0.26770   0.86623   0.83141   0.00000  Uiso   1.00
H2118  H     0.24570   0.81142   0.84380   0.00000  Uiso   1.00
N2119  N     0.09726   0.86534   0.61047   0.00000  Uiso   1.00
H2120  H     0.08199   0.88899   0.59041   0.00000  Uiso   1.00
C2121  C     0.07244   0.84193   0.64160   0.00000  Uiso   1.00
H2122  H     0.04321   0.83143   0.62503   0.00000  Uiso   1.00
H2123  H     0.06556   0.86613   0.66854   0.00000  Uiso   1.00
H2124  H     0.08768   0.81136   0.65625   0.00000  Uiso   1.00
N2125  N     0.09492   0.81628   0.87680   0.00000  Uiso   1.00
H2126  H     0.09130   0.83363   0.84702   0.00000  Uiso   1.00
C2127  C     0.08299   0.76867   0.87418   0.00000  Uiso   1.00
H2128  H     0.04953   0.76663   0.86942   0.00000  Uiso   1.00
H2129  H     0.09224   0.74987   0.90524   0.00000  Uiso   1.00
H2130  H     0.09666   0.75211   0.84530   0.00000  Uiso   1.00
N2131  N     0.23849   0.81654   0.62321   0.00000  Uiso   1.00
H2132  H     0.24201   0.83389   0.65300   0.00000  Uiso   1.00
C2133  C     0.25053   0.76897   0.62591   0.00000  Uiso   1.00
H2134  H     0.28395   0.76706   0.63131   0.00000  Uiso   1.00
H2135  H     0.24185   0.75027   0.59462   0.00000  Uiso   1.00
H2136  H     0.23643   0.75223   0.65442   0.00000  Uiso   1.00
N2137  N     0.05508   0.83441   0.94692   0.00000  Uiso   1.00
H2138  H     0.03253   0.81329   0.95716   0.00000  Uiso   1.00
C2139  C     0.04194   0.88070   0.93702   0.00000  Uiso   1.00
H2140  H     0.01437   0.87985   0.91434   0.00000  Uiso   1.00
H2141  H     0.06588   0.89975   0.92009   0.00000  Uiso   1.00
H2142  H     0.03476   0.89884   0.96817   0.00000  Uiso   1.00
N2143  N     0.27829   0.83454   0.55306   0.00000  Uiso   1.00
H2144  H     0.30083   0.81338   0.54285   0.00000  Uiso   1.00
C2145  C     0.29146   0.88083   0.56291   0.00000  Uiso   1.00
H2146  H     0.29871   0.89890   0.53175   0.00000  Uiso   1.00
H2147  H     0.31898   0.87998   0.58566   0.00000  Uiso   1.00
H2148  H     0.26750   0.89994   0.57975   0.00000  Uiso   1.00
N2149  N     0.05606   0.82198   0.54041   0.00000  Uiso   1.00
H2150  H     0.03129   0.84002   0.52795   0.00000  Uiso   1.00
C2151  C     0.04819   0.77382   0.54746   0.00000  Uiso   1.00
H2152  H     0.04008   0.75664   0.51525   0.00000  Uiso   1.00
H2153  H     0.02283   0.76977   0.56995   0.00000  Uiso   1.00
H2154  H     0.07527   0.75685   0.56338   0.00000  Uiso   1.00
N2155  N     0.27730   0.82209   0.95957   0.00000  Uiso   1.00
H2156  H     0.30208   0.84013   0.97204   0.00000  Uiso   1.00
C2157  C     0.28517   0.77394   0.95249   0.00000  Uiso   1.00
H2158  H     0.29338   0.75677   0.98468   0.00000  Uiso   1.00
H2159  H     0.31047   0.76991   0.92991   0.00000  Uiso   1.00
H2160  H     0.25806   0.75695   0.93666   0.00000  Uiso   1.00
N2161  N     0.04122   0.75040   0.76543   0.00000  Uiso   1.00
H2162  H     0.03143   0.73449   0.79354   0.00000  Uiso   1.00
C2163  C     0.04941   0.71960   0.72942   0.00000  Uiso   1.00
H2164  H     0.02666   0.69180   0.72690   0.00000  Uiso   1.00
H2165  H     0.07938   0.70365   0.73663   0.00000  Uiso   1.00
H2166  H     0.04922   0.73815   0.69717   0.00000  Uiso   1.00
N2167  N     0.29108   0.91834   0.74418   0.00000  Uiso   1.00
H2168  H     0.30146   0.94347   0.76586   0.00000  Uiso   1.00
C2169  C     0.28328   0.93465   0.69908   0.00000  Uiso   1.00
H2170  H     0.31197   0.93930   0.68194   0.00000  Uiso   1.00
H2171  H     0.26754   0.96813   0.70005   0.00000  Uiso   1.00
H2172  H     0.26376   0.91005   0.67979   0.00000  Uiso   1.00
N2173  N     0.29213   0.75037   0.73469   0.00000  Uiso   1.00
H2174  H     0.30193   0.73440   0.70662   0.00000  Uiso   1.00
C2175  C     0.28392   0.71965   0.77075   0.00000  Uiso   1.00
H2176  H     0.30670   0.69188   0.77337   0.00000  Uiso   1.00
H2177  H     0.25397   0.70365   0.76353   0.00000  Uiso   1.00
H2178  H     0.28404   0.73828   0.80296   0.00000  Uiso   1.00
N2179  N     0.04225   0.91834   0.75583   0.00000  Uiso   1.00
H2180  H     0.03186   0.94347   0.73416   0.00000  Uiso   1.00
C2181  C     0.05006   0.93463   0.80093   0.00000  Uiso   1.00
H2182  H     0.02137   0.93932   0.81806   0.00000  Uiso   1.00
H2183  H     0.06583   0.96809   0.79996   0.00000  Uiso   1.00
H2184  H     0.06955   0.91001   0.82022   0.00000  Uiso   1.00
N2185  N     0.14833   0.71397   0.67054   0.00000  Uiso   1.00
H2186  H     0.17248   0.71777   0.65048   0.00000  Uiso   1.00
C2187  C     0.11055   0.70347   0.64601   0.00000  Uiso   1.00
H2188  H     0.09350   0.73550   0.63956   0.00000  Uiso   1.00
H2189  H     0.09148   0.67935   0.66426   0.00000  Uiso   1.00
H2190  H     0.11657   0.68815   0.61318   0.00000  Uiso   1.00
N2191  N     0.17609   0.95314   0.83071   0.00000  Uiso   1.00
H2192  H     0.20490   0.94544   0.84316   0.00000  Uiso   1.00
C2193  C     0.14503   0.96008   0.86254   0.00000  Uiso   1.00
H2194  H     0.15847   0.97563   0.89357   0.00000  Uiso   1.00
H2195  H     0.13172   0.92666   0.87133   0.00000  Uiso   1.00
H2196  H     0.12039   0.98265   0.84899   0.00000  Uiso   1.00
N2197  N     0.18493   0.71397   0.82948   0.00000  Uiso   1.00
H2198  H     0.16076   0.71777   0.84950   0.00000  Uiso   1.00
C2199  C     0.22270   0.70352   0.85406   0.00000  Uiso   1.00
H2200  H     0.23971   0.73556   0.86052   0.00000  Uiso   1.00
H2201  H     0.24180   0.67940   0.83585   0.00000  Uiso   1.00
H2202  H     0.21666   0.68821   0.88689   0.00000  Uiso   1.00
N2203  N     0.15724   0.95314   0.66929   0.00000  Uiso   1.00
H2204  H     0.12843   0.94542   0.65685   0.00000  Uiso   1.00
C2205  C     0.18829   0.96010   0.63745   0.00000  Uiso   1.00
H2206  H     0.17484   0.97568   0.60644   0.00000  Uiso   1.00
H2207  H     0.20160   0.92669   0.62863   0.00000  Uiso   1.00
H2208  H     0.21293   0.98265   0.65101   0.00000  Uiso   1.00
C2209  C     0.42099   0.83339   0.75216   0.00000  Uiso   1.00
C2210  C     0.57901   0.83339   0.74785   0.00000  Uiso   1.00
C2211  C     0.42599   0.83072   0.51896   0.00000  Uiso   1.00
C2212  C     0.57404   0.83082   0.98103   0.00000  Uiso   1.00
C2213  C     0.35443   0.79211   0.75368   0.00000  Uiso   1.00
C2214  C     0.64541   0.87573   0.74763   0.00000  Uiso   1.00
C2215  C     0.64558   0.79210   0.74638   0.00000  Uiso   1.00
C2216  C     0.35459   0.87573   0.75237   0.00000  Uiso   1.00
C2217  C     0.62385   0.83375   0.74628   0.00000  Uiso   1.00
C2218  C     0.37615   0.83376   0.75374   0.00000  Uiso   1.00
C2219  C     0.49134   0.69110   0.71153   0.00000  Uiso   1.00
C2220  C     0.50558   0.97567   0.78890   0.00000  Uiso   1.00
C2221  C     0.50865   0.69110   0.78847   0.00000  Uiso   1.00
C2222  C     0.49441   0.97567   0.71111   0.00000  Uiso   1.00
C2223  C     0.49902   0.83339   0.66482   0.00000  Uiso   1.00
C2224  C     0.50099   0.83339   0.83518   0.00000  Uiso   1.00
C2225  C     0.53689   0.84134   0.90885   0.00000  Uiso   1.00
C2226  C     0.46312   0.84128   0.59115   0.00000  Uiso   1.00
C2227  C     0.50084   0.83332   0.88338   0.00000  Uiso   1.00
C2228  C     0.49919   0.83332   0.61662   0.00000  Uiso   1.00
C2229  C     0.46413   0.82588   0.90370   0.00000  Uiso   1.00
C2230  C     0.53591   0.82597   0.59630   0.00000  Uiso   1.00
C2231  C     0.46296   0.82985   0.95058   0.00000  Uiso   1.00
C2232  C     0.53707   0.82992   0.54942   0.00000  Uiso   1.00
C2233  C     0.50005   0.83158   0.97650   0.00000  Uiso   1.00
C2234  C     0.49998   0.83158   0.52351   0.00000  Uiso   1.00
C2235  C     0.53726   0.83432   0.95536   0.00000  Uiso   1.00
C2236  C     0.46276   0.83426   0.54464   0.00000  Uiso   1.00
C2237  C     0.42590   0.83116   0.97218   0.00000  Uiso   1.00
C2238  C     0.57413   0.83127   0.52782   0.00000  Uiso   1.00
Cu2239 Cu    0.50000   0.88022   0.75000   0.00000  Uiso   1.00
Cu2240 Cu    0.50000   0.78645   0.75000   0.00000  Uiso   1.00
N2241  N     0.50000   0.95069   0.75000   0.00000  Uiso   1.00
N2242  N     0.50000   0.71598   0.75000   0.00000  Uiso   1.00
O2243  O     0.43988   0.87291   0.75000   0.00000  Uiso   1.00
O2244  O     0.56012   0.79375   0.75001   0.00000  Uiso   1.00
O2245  O     0.56012   0.87291   0.75001   0.00000  Uiso   1.00
O2246  O     0.43988   0.79375   0.75000   0.00000  Uiso   1.00
O2247  O     0.49999   0.87293   0.68513   0.00000  Uiso   1.00
O2248  O     0.50001   0.79373   0.81487   0.00000  Uiso   1.00
O2249  O     0.50001   0.87293   0.81487   0.00000  Uiso   1.00
O2250  O     0.49999   0.79373   0.68513   0.00000  Uiso   1.00
N2251  N     0.56940   0.86544   0.88953   0.00000  Uiso   1.00
H2252  H     0.58465   0.88910   0.90958   0.00000  Uiso   1.00
C2253  C     0.59422   0.84205   0.85839   0.00000  Uiso   1.00
H2254  H     0.62349   0.83164   0.87494   0.00000  Uiso   1.00
H2255  H     0.60103   0.86623   0.83141   0.00000  Uiso   1.00
H2256  H     0.57903   0.81142   0.84380   0.00000  Uiso   1.00
N2257  N     0.43059   0.86534   0.61047   0.00000  Uiso   1.00
H2258  H     0.41532   0.88899   0.59041   0.00000  Uiso   1.00
C2259  C     0.40578   0.84193   0.64160   0.00000  Uiso   1.00
H2260  H     0.37654   0.83143   0.62503   0.00000  Uiso   1.00
H2261  H     0.39889   0.86613   0.66854   0.00000  Uiso   1.00
H2262  H     0.42101   0.81136   0.65625   0.00000  Uiso   1.00
N2263  N     0.42825   0.81628   0.87680   0.00000  Uiso   1.00
H2264  H     0.42463   0.83363   0.84702   0.00000  Uiso   1.00
C2265  C     0.41632   0.76867   0.87418   0.00000  Uiso   1.00
H2266  H     0.38286   0.76663   0.86942   0.00000  Uiso   1.00
H2267  H     0.42557   0.74987   0.90524   0.00000  Uiso   1.00
H2268  H     0.43000   0.75211   0.84530   0.00000  Uiso   1.00
N2269  N     0.57182   0.81654   0.62321   0.00000  Uiso   1.00
H2270  H     0.57535   0.83389   0.65300   0.00000  Uiso   1.00
C2271  C     0.58387   0.76897   0.62591   0.00000  Uiso   1.00
H2272  H     0.61728   0.76706   0.63131   0.00000  Uiso   1.00
H2273  H     0.57519   0.75027   0.59462   0.00000  Uiso   1.00
H2274  H     0.56977   0.75223   0.65442   0.00000  Uiso   1.00
N2275  N     0.38841   0.83441   0.94692   0.00000  Uiso   1.00
H2276  H     0.36587   0.81329   0.95716   0.00000  Uiso   1.00
C2277  C     0.37527   0.88070   0.93702   0.00000  Uiso   1.00
H2278  H     0.34771   0.87985   0.91434   0.00000  Uiso   1.00
H2279  H     0.39921   0.89975   0.92009   0.00000  Uiso   1.00
H2280  H     0.36809   0.89884   0.96817   0.00000  Uiso   1.00
N2281  N     0.61163   0.83454   0.55306   0.00000  Uiso   1.00
H2282  H     0.63416   0.81338   0.54285   0.00000  Uiso   1.00
C2283  C     0.62479   0.88083   0.56291   0.00000  Uiso   1.00
H2284  H     0.63204   0.89890   0.53175   0.00000  Uiso   1.00
H2285  H     0.65231   0.87998   0.58566   0.00000  Uiso   1.00
H2286  H     0.60083   0.89994   0.57975   0.00000  Uiso   1.00
N2287  N     0.38939   0.82198   0.54041   0.00000  Uiso   1.00
H2288  H     0.36462   0.84002   0.52795   0.00000  Uiso   1.00
C2289  C     0.38152   0.77382   0.54746   0.00000  Uiso   1.00
H2290  H     0.37341   0.75664   0.51525   0.00000  Uiso   1.00
H2291  H     0.35616   0.76977   0.56995   0.00000  Uiso   1.00
H2292  H     0.40861   0.75685   0.56338   0.00000  Uiso   1.00
N2293  N     0.61064   0.82209   0.95957   0.00000  Uiso   1.00
H2294  H     0.63541   0.84013   0.97204   0.00000  Uiso   1.00
C2295  C     0.61851   0.77394   0.95249   0.00000  Uiso   1.00
H2296  H     0.62672   0.75677   0.98468   0.00000  Uiso   1.00
H2297  H     0.64381   0.76991   0.92991   0.00000  Uiso   1.00
H2298  H     0.59140   0.75695   0.93666   0.00000  Uiso   1.00
N2299  N     0.37455   0.75040   0.76543   0.00000  Uiso   1.00
H2300  H     0.36476   0.73449   0.79354   0.00000  Uiso   1.00
C2301  C     0.38274   0.71960   0.72942   0.00000  Uiso   1.00
H2302  H     0.35999   0.69180   0.72690   0.00000  Uiso   1.00
H2303  H     0.41272   0.70365   0.73663   0.00000  Uiso   1.00
H2304  H     0.38255   0.73815   0.69717   0.00000  Uiso   1.00
N2305  N     0.62441   0.91834   0.74418   0.00000  Uiso   1.00
H2306  H     0.63480   0.94347   0.76586   0.00000  Uiso   1.00
C2307  C     0.61661   0.93465   0.69908   0.00000  Uiso   1.00
H2308  H     0.64530   0.93930   0.68194   0.00000  Uiso   1.00
H2309  H     0.60087   0.96813   0.70005   0.00000  Uiso   1.00
H2310  H     0.59710   0.91005   0.67979   0.00000  Uiso   1.00
N2311  N     0.62546   0.75037   0.73469   0.00000  Uiso   1.00
H2312  H     0.63527   0.73440   0.70662   0.00000  Uiso   1.00
C2313  C     0.61725   0.71965   0.77075   0.00000  Uiso   1.00
H2314  H     0.64003   0.69188   0.77337   0.00000  Uiso   1.00
H2315  H     0.58730   0.70365   0.76353   0.00000  Uiso   1.00
H2316  H     0.61738   0.73828   0.80296   0.00000  Uiso   1.00
N2317  N     0.37558   0.91834   0.75583   0.00000  Uiso   1.00
H2318  H     0.36519   0.94347   0.73416   0.00000  Uiso   1.00
C2319  C     0.38339   0.93463   0.80093   0.00000  Uiso   1.00
H2320  H     0.35470   0.93932   0.81806   0.00000  Uiso   1.00
H2321  H     0.39916   0.96809   0.79996   0.00000  Uiso   1.00
H2322  H     0.40288   0.91001   0.82022   0.00000  Uiso   1.00
N2323  N     0.48167   0.71397   0.67054   0.00000  Uiso   1.00
H2324  H     0.50581   0.71777   0.65048   0.00000  Uiso   1.00
C2325  C     0.44388   0.70347   0.64601   0.00000  Uiso   1.00
H2326  H     0.42683   0.73550   0.63956   0.00000  Uiso   1.00
H2327  H     0.42481   0.67935   0.66426   0.00000  Uiso   1.00
H2328  H     0.44990   0.68815   0.61318   0.00000  Uiso   1.00
N2329  N     0.50942   0.95314   0.83071   0.00000  Uiso   1.00
H2330  H     0.53824   0.94544   0.84316   0.00000  Uiso   1.00
C2331  C     0.47837   0.96008   0.86254   0.00000  Uiso   1.00
H2332  H     0.49180   0.97563   0.89357   0.00000  Uiso   1.00
H2333  H     0.46505   0.92666   0.87133   0.00000  Uiso   1.00
H2334  H     0.45372   0.98265   0.84899   0.00000  Uiso   1.00
N2335  N     0.51826   0.71397   0.82948   0.00000  Uiso   1.00
H2336  H     0.49409   0.71777   0.84950   0.00000  Uiso   1.00
C2337  C     0.55603   0.70352   0.85406   0.00000  Uiso   1.00
H2338  H     0.57305   0.73556   0.86052   0.00000  Uiso   1.00
H2339  H     0.57514   0.67940   0.83585   0.00000  Uiso   1.00
H2340  H     0.54999   0.68821   0.88689   0.00000  Uiso   1.00
N2341  N     0.49058   0.95314   0.66929   0.00000  Uiso   1.00
H2342  H     0.46176   0.94542   0.65685   0.00000  Uiso   1.00
C2343  C     0.52162   0.96010   0.63745   0.00000  Uiso   1.00
H2344  H     0.50818   0.97568   0.60644   0.00000  Uiso   1.00
H2345  H     0.53493   0.92669   0.62863   0.00000  Uiso   1.00
H2346  H     0.54627   0.98265   0.65101   0.00000  Uiso   1.00
C2347  C     0.75433   0.83339   0.75216   0.00000  Uiso   1.00
C2348  C     0.91234   0.83339   0.74785   0.00000  Uiso   1.00
C2349  C     0.75932   0.83072   0.51896   0.00000  Uiso   1.00
C2350  C     0.90737   0.83082   0.98103   0.00000  Uiso   1.00
C2351  C     0.68777   0.79211   0.75368   0.00000  Uiso   1.00
C2352  C     0.97874   0.87573   0.74763   0.00000  Uiso   1.00
C2353  C     0.97891   0.79210   0.74638   0.00000  Uiso   1.00
C2354  C     0.68792   0.87573   0.75237   0.00000  Uiso   1.00
C2355  C     0.95719   0.83375   0.74628   0.00000  Uiso   1.00
C2356  C     0.70948   0.83376   0.75374   0.00000  Uiso   1.00
C2357  C     0.82467   0.69110   0.71153   0.00000  Uiso   1.00
C2358  C     0.83892   0.97567   0.78890   0.00000  Uiso   1.00
C2359  C     0.84198   0.69110   0.78847   0.00000  Uiso   1.00
C2360  C     0.82775   0.97567   0.71111   0.00000  Uiso   1.00
C2361  C     0.83235   0.83339   0.66482   0.00000  Uiso   1.00
C2362  C     0.83432   0.83339   0.83518   0.00000  Uiso   1.00
C2363  C     0.87022   0.84134   0.90885   0.00000  Uiso   1.00
C2364  C     0.79645   0.84128   0.59115   0.00000  Uiso   1.00
C2365  C     0.83417   0.83332   0.88338   0.00000  Uiso   1.00
C2366  C     0.83252   0.83332   0.61662   0.00000  Uiso   1.00
C2367  C     0.79747   0.82588   0.90370   0.00000  Uiso   1.00
C2368  C     0.86924   0.82597   0.59630   0.00000  Uiso   1.00
C2369  C     0.79630   0.82985   0.95058   0.00000  Uiso   1.00
C2370  C     0.87041   0.82992   0.54942   0.00000  Uiso   1.00
C2371  C     0.83339   0.83158   0.97650   0.00000  Uiso   1.00
C2372  C     0.83331   0.83158   0.52351   0.00000  Uiso   1.00
C2373  C     0.87059   0.83432   0.95536   0.00000  Uiso   1.00
C2374  C     0.79610   0.83426   0.54464   0.00000  Uiso   1.00
C2375  C     0.75924   0.83116   0.97218   0.00000  Uiso   1.00
C2376  C     0.90746   0.83127   0.52782   0.00000  Uiso   1.00
Cu2377 Cu    0.83333   0.88022   0.75000   0.00000  Uiso   1.00
Cu2378 Cu    0.83333   0.78645   0.75000   0.00000  Uiso   1.00
N2379  N     0.83333   0.95069   0.75000   0.00000  Uiso   1.00
N2380  N     0.83333   0.71598   0.75000   0.00000  Uiso   1.00
O2381  O     0.77321   0.87291   0.75000   0.00000  Uiso   1.00
O2382  O     0.89345   0.79375   0.75001   0.00000  Uiso   1.00
O2383  O     0.89345   0.87291   0.75001   0.00000  Uiso   1.00
O2384  O     0.77321   0.79375   0.75000   0.00000  Uiso   1.00
O2385  O     0.83332   0.87293   0.68513   0.00000  Uiso   1.00
O2386  O     0.83334   0.79373   0.81487   0.00000  Uiso   1.00
O2387  O     0.83334   0.87293   0.81487   0.00000  Uiso   1.00
O2388  O     0.83332   0.79373   0.68513   0.00000  Uiso   1.00
N2389  N     0.90273   0.86544   0.88953   0.00000  Uiso   1.00
H2390  H     0.91798   0.88910   0.90958   0.00000  Uiso   1.00
C2391  C     0.92756   0.84205   0.85839   0.00000  Uiso   1.00
H2392  H     0.95683   0.83164   0.87494   0.00000  Uiso   1.00
H2393  H     0.93437   0.86623   0.83141   0.00000  Uiso   1.00
H2394  H     0.91237   0.81142   0.84380   0.00000  Uiso   1.00
N2395  N     0.76392   0.86534   0.61047   0.00000  Uiso   1.00
H2396  H     0.74866   0.88899   0.59041   0.00000  Uiso   1.00
C2397  C     0.73911   0.84193   0.64160   0.00000  Uiso   1.00
H2398  H     0.70988   0.83143   0.62503   0.00000  Uiso   1.00
H2399  H     0.73223   0.86613   0.66854   0.00000  Uiso   1.00
H2400  H     0.75435   0.81136   0.65625   0.00000  Uiso   1.00
N2401  N     0.76159   0.81628   0.87680   0.00000  Uiso   1.00
H2402  H     0.75796   0.83363   0.84702   0.00000  Uiso   1.00
C2403  C     0.74966   0.76867   0.87418   0.00000  Uiso   1.00
H2404  H     0.71620   0.76663   0.86942   0.00000  Uiso   1.00
H2405  H     0.75891   0.74987   0.90524   0.00000  Uiso   1.00
H2406  H     0.76333   0.75211   0.84530   0.00000  Uiso   1.00
N2407  N     0.90516   0.81654   0.62321   0.00000  Uiso   1.00
H2408  H     0.90868   0.83389   0.65300   0.00000  Uiso   1.00
C2409  C     0.91720   0.76897   0.62591   0.00000  Uiso   1.00
H2410  H     0.95061   0.76706   0.63131   0.00000  Uiso   1.00
H2411  H     0.90852   0.75027   0.59462   0.00000  Uiso   1.00
H2412  H     0.90310   0.75223   0.65442   0.00000  Uiso   1.00
N2413  N     0.72175   0.83441   0.94692   0.00000  Uiso   1.00
H2414  H     0.69920   0.81329   0.95716   0.00000  Uiso   1.00
C2415  C     0.70860   0.88070   0.93702   0.00000  Uiso   1.00
H2416  H     0.68104   0.87985   0.91434   0.00000  Uiso   1.00
H2417  H     0.73254   0.89975   0.92009   0.00000  Uiso   1.00
H2418  H     0.70143   0.89884   0.96817   0.00000  Uiso   1.00
N2419  N     0.94496   0.83454   0.55306   0.00000  Uiso   1.00
H2420  H     0.96749   0.81338   0.54285   0.00000  Uiso   1.00
C2421  C     0.95812   0.88083   0.56291   0.00000  Uiso   1.00
H2422  H     0.96538   0.89890   0.53175   0.00000  Uiso   1.00
H2423  H     0.98564   0.87998   0.58566   0.00000  Uiso   1.00
H2424  H     0.93416   0.89994   0.57975   0.00000  Uiso   1.00
N2425  N     0.72272   0.82198   0.54041   0.00000  Uiso   1.00
H2426  H     0.69796   0.84002   0.52795   0.00000  Uiso   1.00
C2427  C     0.71486   0.77382   0.54746   0.00000  Uiso   1.00
H2428  H     0.70675   0.75664   0.51525   0.00000  Uiso   1.00
H2429  H     0.68949   0.76977   0.56995   0.00000  Uiso   1.00
H2430  H     0.74194   0.75685   0.56338   0.00000  Uiso   1.00
N2431  N     0.94397   0.82209   0.95957   0.00000  Uiso   1.00
H2432  H     0.96874   0.84013   0.97204   0.00000  Uiso   1.00
C2433  C     0.95184   0.77394   0.95249   0.00000  Uiso   1.00
H2434  H     0.96005   0.75677   0.98468   0.00000  Uiso   1.00
H2435  H     0.97714   0.76991   0.92991   0.00000  Uiso   1.00
H2436  H     0.92473   0.75695   0.93666   0.00000  Uiso   1.00
N2437  N     0.70788   0.75040   0.76543   0.00000  Uiso   1.00
H2438  H     0.69809   0.73449   0.79354   0.00000  Uiso   1.00
C2439  C     0.71607   0.71960   0.72942   0.00000  Uiso   1.00
H2440  H     0.69332   0.69180   0.72690   0.00000  Uiso   1.00
H2441  H     0.74605   0.70365   0.73663   0.00000  Uiso   1.00
H2442  H     0.71589   0.73815   0.69717   0.00000  Uiso   1.00
N2443  N     0.95774   0.91834   0.74418   0.00000  Uiso   1.00
H2444  H     0.96813   0.94347   0.76586   0.00000  Uiso   1.00
C2445  C     0.94994   0.93465   0.69908   0.00000  Uiso   1.00
H2446  H     0.97864   0.93930   0.68194   0.00000  Uiso   1.00
H2447  H     0.93421   0.96813   0.70005   0.00000  Uiso   1.00
H2448  H     0.93043   0.91005   0.67979   0.00000  Uiso   1.00
N2449  N     0.95880   0.75037   0.73469   0.00000  Uiso   1.00
H2450  H     0.96860   0.73440   0.70662   0.00000  Uiso   1.00
C2451  C     0.95059   0.71965   0.77075   0.00000  Uiso   1.00
H2452  H     0.97337   0.69188   0.77337   0.00000  Uiso   1.00
H2453  H     0.92064   0.70365   0.76353   0.00000  Uiso   1.00
H2454  H     0.95071   0.73828   0.80296   0.00000  Uiso   1.00
N2455  N     0.70892   0.91834   0.75583   0.00000  Uiso   1.00
H2456  H     0.69853   0.94347   0.73416   0.00000  Uiso   1.00
C2457  C     0.71673   0.93463   0.80093   0.00000  Uiso   1.00
H2458  H     0.68803   0.93932   0.81806   0.00000  Uiso   1.00
H2459  H     0.73249   0.96809   0.79996   0.00000  Uiso   1.00
H2460  H     0.73621   0.91001   0.82022   0.00000  Uiso   1.00
N2461  N     0.81500   0.71397   0.67054   0.00000  Uiso   1.00
H2462  H     0.83914   0.71777   0.65048   0.00000  Uiso   1.00
C2463  C     0.77721   0.70347   0.64601   0.00000  Uiso   1.00
H2464  H     0.76017   0.73550   0.63956   0.00000  Uiso   1.00
H2465  H     0.75815   0.67935   0.66426   0.00000  Uiso   1.00
H2466  H     0.78323   0.68815   0.61318   0.00000  Uiso   1.00
N2467  N     0.84275   0.95314   0.83071   0.00000  Uiso   1.00
H2468  H     0.87157   0.94544   0.84316   0.00000  Uiso   1.00
C2469  C     0.81170   0.96008   0.86254   0.00000  Uiso   1.00
H2470  H     0.82513   0.97563   0.89357   0.00000  Uiso   1.00
H2471  H     0.79839   0.92666   0.87133   0.00000  Uiso   1.00
H2472  H     0.78706   0.98265   0.84899   0.00000  Uiso   1.00
N2473  N     0.85159   0.71397   0.82948   0.00000  Uiso   1.00
H2474  H     0.82742   0.71777   0.84950   0.00000  Uiso   1.00
C2475  C     0.88937   0.70352   0.85406   0.00000  Uiso   1.00
H2476  H     0.90638   0.73556   0.86052   0.00000  Uiso   1.00
H2477  H     0.90847   0.67940   0.83585   0.00000  Uiso   1.00
H2478  H     0.88332   0.68821   0.88689   0.00000  Uiso   1.00
N2479  N     0.82391   0.95314   0.66929   0.00000  Uiso   1.00
H2480  H     0.79509   0.94542   0.65685   0.00000  Uiso   1.00
C2481  C     0.85495   0.96010   0.63745   0.00000  Uiso   1.00
H2482  H     0.84151   0.97568   0.60644   0.00000  Uiso   1.00
H2483  H     0.86826   0.92669   0.62863   0.00000  Uiso   1.00
H2484  H     0.87960   0.98265   0.65101   0.00000  Uiso   1.00
loop_
_geom_bond_atom_site_label_1
_geom_bond_atom_site_label_2
_geom_bond_distance
_geom_bond_site_symmetry_2
_ccdc_geom_bond_type
C1     O38     1.319   .     A
C1     O35     1.316   .     A
C1     C10     1.486   .     S
C2     O36     1.319   .     A
C2     O37     1.316   .     A
C2     C9      1.486   .     S
C3     N79     1.422   .     S
C3     C28     1.410   .     A
C3     C1271   1.405   1_554 S
C4     N85     1.422   .     S
C4     C27     1.410   .     A
C4     C1272   1.405   .     S
C5     C10     1.413   .     A
C5     N91     1.424   .     S
C5     C283    1.401   1_455 S
C6     C9      1.418   .     A
C6     N97     1.427   .     S
C6     C146    1.405   .     S
C7     N103    1.424   .     S
C7     C9      1.413   .     A
C7     C143    1.401   .     S
C8     N109    1.426   .     S
C8     C10     1.418   .     A
C8     C282    1.405   1_455 S
C11    N115    1.423   .     S
C11    N34     1.382   .     A
C11    C842    1.429   1_545 S
C12    N121    1.418   .     S
C12    N33     1.382   .     A
C12    C427    1.429   .     S
C13    N127    1.423   .     S
C13    N34     1.382   .     A
C13    C840    1.429   1_545 S
C14    N33     1.382   .     A
C14    N133    1.418   .     S
C14    C425    1.429   .     S
C15    C20     1.448   .     S
C15    O39     1.306   .     A
C15    O42     1.309   .     A
C16    O40     1.309   .     A
C16    C19     1.448   .     S
C16    O41     1.306   .     A
C17    C27     1.411   .     A
C17    N43     1.432   .     S
C17    C19     1.403   .     A
C18    C28     1.411   .     A
C18    C20     1.403   .     A
C18    N49     1.432   .     S
C19    C21     1.402   .     A
C20    C22     1.402   .     A
C21    C23     1.415   .     A
C21    N55     1.429   .     S
C22    C24     1.415   .     A
C22    N61     1.429   .     S
C23    C29     1.415   .     A
C23    C25     1.420   .     A
C24    C26     1.420   .     A
C24    C30     1.415   .     A
C25    C27     1.414   .     A
C25    C1268   1.412   .     S
C26    C28     1.415   .     A
C26    C1267   1.412   1_554 S
C29    N67     1.423   .     S
C29    C1245   1.405   .     S
C30    N73     1.423   .     S
C30    C1246   1.405   1_554 S
Cu31   Cu32    2.740   .     S
Cu31   N33     2.059   .     S
Cu31   O37     1.999   .     S
Cu31   O41     1.960   .     S
Cu31   O35     1.999   .     S
Cu31   O39     1.960   .     S
Cu32   O36     1.999   .     S
Cu32   O38     1.999   .     S
Cu32   N34     2.059   .     S
Cu32   O40     1.960   .     S
Cu32   O42     1.960   .     S
N43    C45     1.446   .     S
N43    H44     1.032   .     S
C45    H47     1.107   .     S
C45    H46     1.108   .     S
C45    H48     1.106   .     S
N49    C51     1.446   .     S
N49    H50     1.032   .     S
C51    H54     1.106   .     S
C51    H52     1.108   .     S
C51    H53     1.107   .     S
N55    H56     1.030   .     S
N55    C57     1.447   .     S
C57    H59     1.112   .     S
C57    H60     1.109   .     S
C57    H58     1.110   .     S
N61    H62     1.030   .     S
N61    C63     1.447   .     S
C63    H65     1.112   .     S
C63    H66     1.109   .     S
C63    H64     1.110   .     S
N67    H68     1.027   .     S
N67    C69     1.447   .     S
C69    H71     1.111   .     S
C69    H72     1.111   .     S
C69    H70     1.110   .     S
N73    H74     1.027   .     S
N73    C75     1.447   .     S
C75    H76     1.111   .     S
C75    H77     1.110   .     S
C75    H78     1.111   .     S
N79    H80     1.028   .     S
N79    C81     1.448   .     S
C81    H84     1.110   .     S
C81    H83     1.109   .     S
C81    H82     1.111   .     S
N85    H86     1.028   .     S
N85    C87     1.448   .     S
C87    H88     1.111   .     S
C87    H90     1.110   .     S
C87    H89     1.109   .     S
N91    H92     1.030   .     S
N91    C93     1.443   .     S
C93    H94     1.107   .     S
C93    H95     1.107   .     S
C93    H96     1.110   .     S
N97    H98     1.029   .     S
N97    C99     1.447   .     S
C99    H100    1.110   .     S
C99    H102    1.109   .     S
C99    H101    1.109   .     S
N103   C105    1.443   .     S
N103   H104    1.030   .     S
C105   H107    1.107   .     S
C105   H108    1.110   .     S
C105   H106    1.107   .     S
N109   C111    1.447   .     S
N109   H110    1.029   .     S
C111   H112    1.110   .     S
C111   H113    1.109   .     S
C111   H114    1.109   .     S
N115   H116    1.030   .     S
N115   C117    1.451   .     S
C117   H119    1.109   .     S
C117   H120    1.110   .     S
C117   H118    1.104   .     S
N121   H122    1.031   .     S
N121   C123    1.452   .     S
C123   H124    1.109   .     S
C123   H126    1.109   .     S
C123   H125    1.108   .     S
N127   C129    1.451   .     S
N127   H128    1.030   .     S
C129   H132    1.110   .     S
C129   H130    1.104   .     S
C129   H131    1.109   .     S
N133   H134    1.031   .     S
N133   C135    1.452   .     S
C135   H138    1.109   .     S
C135   H136    1.109   .     S
C135   H137    1.108   .     S
C139   O176    1.319   .     A
C139   O173    1.316   .     A
C139   C148    1.486   .     S
C140   O174    1.319   .     A
C140   O175    1.316   .     A
C140   C147    1.486   .     S
C141   N217    1.422   .     S
C141   C166    1.410   .     A
C141   C1409   1.405   1_554 S
C142   N223    1.422   .     S
C142   C165    1.410   .     A
C142   C1410   1.405   .     S
C143   C148    1.413   .     A
C143   N229    1.424   .     S
C144   C147    1.418   .     A
C144   N235    1.427   .     S
C144   C284    1.405   .     S
C145   N241    1.424   .     S
C145   C147    1.413   .     A
C145   C281    1.401   .     S
C146   N247    1.426   .     S
C146   C148    1.418   .     A
C149   N253    1.423   .     S
C149   N172    1.382   .     A
C149   C980    1.429   1_545 S
C150   N259    1.418   .     S
C150   N171    1.382   .     A
C150   C565    1.429   .     S
C151   N265    1.423   .     S
C151   N172    1.382   .     A
C151   C978    1.429   1_545 S
C152   N171    1.382   .     A
C152   N271    1.418   .     S
C152   C563    1.429   .     S
C153   C158    1.448   .     S
C153   O177    1.306   .     A
C153   O180    1.309   .     A
C154   O178    1.309   .     A
C154   C157    1.448   .     S
C154   O179    1.306   .     A
C155   C165    1.411   .     A
C155   N181    1.432   .     S
C155   C157    1.403   .     A
C156   C166    1.411   .     A
C156   C158    1.403   .     A
C156   N187    1.432   .     S
C157   C159    1.402   .     A
C158   C160    1.402   .     A
C159   C161    1.415   .     A
C159   N193    1.429   .     S
C160   C162    1.415   .     A
C160   N199    1.429   .     S
C161   C167    1.415   .     A
C161   C163    1.420   .     A
C162   C164    1.420   .     A
C162   C168    1.415   .     A
C163   C165    1.414   .     A
C163   C1406   1.412   .     S
C164   C166    1.415   .     A
C164   C1405   1.412   1_554 S
C167   N205    1.423   .     S
C167   C1383   1.405   .     S
C168   N211    1.423   .     S
C168   C1384   1.405   1_554 S
Cu169  Cu170   2.740   .     S
Cu169  N171    2.059   .     S
Cu169  O175    1.999   .     S
Cu169  O179    1.960   .     S
Cu169  O173    1.999   .     S
Cu169  O177    1.960   .     S
Cu170  O174    1.999   .     S
Cu170  O176    1.999   .     S
Cu170  N172    2.059   .     S
Cu170  O178    1.960   .     S
Cu170  O180    1.960   .     S
N181   C183    1.446   .     S
N181   H182    1.032   .     S
C183   H185    1.107   .     S
C183   H184    1.108   .     S
C183   H186    1.106   .     S
N187   C189    1.446   .     S
N187   H188    1.032   .     S
C189   H192    1.106   .     S
C189   H190    1.108   .     S
C189   H191    1.107   .     S
N193   H194    1.030   .     S
N193   C195    1.447   .     S
C195   H197    1.112   .     S
C195   H198    1.109   .     S
C195   H196    1.110   .     S
N199   H200    1.030   .     S
N199   C201    1.447   .     S
C201   H203    1.112   .     S
C201   H204    1.109   .     S
C201   H202    1.110   .     S
N205   H206    1.027   .     S
N205   C207    1.447   .     S
C207   H209    1.111   .     S
C207   H210    1.111   .     S
C207   H208    1.110   .     S
N211   H212    1.027   .     S
N211   C213    1.447   .     S
C213   H214    1.111   .     S
C213   H215    1.110   .     S
C213   H216    1.111   .     S
N217   H218    1.028   .     S
N217   C219    1.448   .     S
C219   H222    1.110   .     S
C219   H221    1.109   .     S
C219   H220    1.111   .     S
N223   H224    1.028   .     S
N223   C225    1.448   .     S
C225   H226    1.111   .     S
C225   H228    1.110   .     S
C225   H227    1.109   .     S
N229   H230    1.030   .     S
N229   C231    1.443   .     S
C231   H232    1.107   .     S
C231   H233    1.107   .     S
C231   H234    1.110   .     S
N235   H236    1.029   .     S
N235   C237    1.447   .     S
C237   H238    1.110   .     S
C237   H240    1.109   .     S
C237   H239    1.109   .     S
N241   C243    1.443   .     S
N241   H242    1.030   .     S
C243   H245    1.107   .     S
C243   H246    1.110   .     S
C243   H244    1.107   .     S
N247   C249    1.447   .     S
N247   H248    1.029   .     S
C249   H250    1.110   .     S
C249   H251    1.109   .     S
C249   H252    1.109   .     S
N253   H254    1.030   .     S
N253   C255    1.451   .     S
C255   H257    1.109   .     S
C255   H258    1.110   .     S
C255   H256    1.104   .     S
N259   H260    1.031   .     S
N259   C261    1.452   .     S
C261   H262    1.109   .     S
C261   H264    1.109   .     S
C261   H263    1.108   .     S
N265   C267    1.451   .     S
N265   H266    1.030   .     S
C267   H270    1.110   .     S
C267   H268    1.104   .     S
C267   H269    1.109   .     S
N271   H272    1.031   .     S
N271   C273    1.452   .     S
C273   H276    1.109   .     S
C273   H274    1.109   .     S
C273   H275    1.108   .     S
C277   O314    1.319   .     A
C277   O311    1.316   .     A
C277   C286    1.486   .     S
C278   O312    1.319   .     A
C278   O313    1.316   .     A
C278   C285    1.486   .     S
C279   N355    1.422   .     S
C279   C304    1.410   .     A
C279   C1547   1.405   1_554 S
C280   N361    1.422   .     S
C280   C303    1.410   .     A
C280   C1548   1.405   .     S
C281   C286    1.413   .     A
C281   N367    1.424   .     S
C282   C285    1.418   .     A
C282   N373    1.427   .     S
C282   C8      1.405   1_655 S
C283   N379    1.424   .     S
C283   C285    1.413   .     A
C283   C5      1.401   1_655 S
C284   N385    1.426   .     S
C284   C286    1.418   .     A
C287   N391    1.423   .     S
C287   N310    1.382   .     A
C287   C1118   1.429   1_545 S
C288   N397    1.418   .     S
C288   N309    1.382   .     A
C288   C703    1.429   .     S
C289   N403    1.423   .     S
C289   N310    1.382   .     A
C289   C1116   1.429   1_545 S
C290   N309    1.382   .     A
C290   N409    1.418   .     S
C290   C701    1.429   .     S
C291   C296    1.448   .     S
C291   O315    1.306   .     A
C291   O318    1.309   .     A
C292   O316    1.309   .     A
C292   C295    1.448   .     S
C292   O317    1.306   .     A
C293   C303    1.411   .     A
C293   N319    1.432   .     S
C293   C295    1.403   .     A
C294   C304    1.411   .     A
C294   C296    1.403   .     A
C294   N325    1.432   .     S
C295   C297    1.402   .     A
C296   C298    1.402   .     A
C297   C299    1.415   .     A
C297   N331    1.429   .     S
C298   C300    1.415   .     A
C298   N337    1.429   .     S
C299   C305    1.415   .     A
C299   C301    1.420   .     A
C300   C302    1.420   .     A
C300   C306    1.415   .     A
C301   C303    1.414   .     A
C301   C1544   1.412   .     S
C302   C304    1.415   .     A
C302   C1543   1.412   1_554 S
C305   N343    1.423   .     S
C305   C1521   1.405   .     S
C306   N349    1.423   .     S
C306   C1522   1.405   1_554 S
Cu307  Cu308   2.740   .     S
Cu307  N309    2.059   .     S
Cu307  O313    1.999   .     S
Cu307  O317    1.960   .     S
Cu307  O311    1.999   .     S
Cu307  O315    1.960   .     S
Cu308  O312    1.999   .     S
Cu308  O314    1.999   .     S
Cu308  N310    2.059   .     S
Cu308  O316    1.960   .     S
Cu308  O318    1.960   .     S
N319   C321    1.446   .     S
N319   H320    1.032   .     S
C321   H323    1.107   .     S
C321   H322    1.108   .     S
C321   H324    1.106   .     S
N325   C327    1.446   .     S
N325   H326    1.032   .     S
C327   H330    1.106   .     S
C327   H328    1.108   .     S
C327   H329    1.107   .     S
N331   H332    1.030   .     S
N331   C333    1.447   .     S
C333   H335    1.112   .     S
C333   H336    1.109   .     S
C333   H334    1.110   .     S
N337   H338    1.030   .     S
N337   C339    1.447   .     S
C339   H341    1.112   .     S
C339   H342    1.109   .     S
C339   H340    1.110   .     S
N343   H344    1.027   .     S
N343   C345    1.447   .     S
C345   H347    1.111   .     S
C345   H348    1.111   .     S
C345   H346    1.110   .     S
N349   H350    1.027   .     S
N349   C351    1.447   .     S
C351   H352    1.111   .     S
C351   H353    1.110   .     S
C351   H354    1.111   .     S
N355   H356    1.028   .     S
N355   C357    1.448   .     S
C357   H360    1.110   .     S
C357   H359    1.109   .     S
C357   H358    1.111   .     S
N361   H362    1.028   .     S
N361   C363    1.448   .     S
C363   H364    1.111   .     S
C363   H366    1.110   .     S
C363   H365    1.109   .     S
N367   H368    1.030   .     S
N367   C369    1.443   .     S
C369   H370    1.107   .     S
C369   H371    1.107   .     S
C369   H372    1.110   .     S
N373   H374    1.029   .     S
N373   C375    1.447   .     S
C375   H376    1.110   .     S
C375   H378    1.109   .     S
C375   H377    1.109   .     S
N379   C381    1.443   .     S
N379   H380    1.030   .     S
C381   H383    1.107   .     S
C381   H384    1.110   .     S
C381   H382    1.107   .     S
N385   C387    1.447   .     S
N385   H386    1.029   .     S
C387   H388    1.110   .     S
C387   H389    1.109   .     S
C387   H390    1.109   .     S
N391   H392    1.030   .     S
N391   C393    1.451   .     S
C393   H395    1.109   .     S
C393   H396    1.110   .     S
C393   H394    1.104   .     S
N397   H398    1.031   .     S
N397   C399    1.452   .     S
C399   H400    1.109   .     S
C399   H402    1.109   .     S
C399   H401    1.108   .     S
N403   C405    1.451   .     S
N403   H404    1.030   .     S
C405   H408    1.110   .     S
C405   H406    1.104   .     S
C405   H407    1.109   .     S
N409   H410    1.031   .     S
N409   C411    1.452   .     S
C411   H414    1.109   .     S
C411   H412    1.109   .     S
C411   H413    1.108   .     S
C415   O452    1.319   .     A
C415   O449    1.316   .     A
C415   C424    1.486   .     S
C416   O450    1.319   .     A
C416   O451    1.316   .     A
C416   C423    1.486   .     S
C417   N493    1.422   .     S
C417   C442    1.410   .     A
C417   C1685   1.405   1_554 S
C418   N499    1.422   .     S
C418   C441    1.410   .     A
C418   C1686   1.405   .     S
C419   C424    1.413   .     A
C419   N505    1.424   .     S
C419   C697    1.401   1_455 S
C420   C423    1.418   .     A
C420   N511    1.427   .     S
C420   C560    1.405   .     S
C421   N517    1.424   .     S
C421   C423    1.413   .     A
C421   C557    1.401   .     S
C422   N523    1.426   .     S
C422   C424    1.418   .     A
C422   C696    1.405   1_455 S
C425   N529    1.423   .     S
C425   N448    1.382   .     A
C426   N535    1.418   .     S
C426   N447    1.382   .     A
C426   C841    1.429   .     S
C427   N541    1.423   .     S
C427   N448    1.382   .     A
C428   N447    1.382   .     A
C428   N547    1.418   .     S
C428   C839    1.429   .     S
C429   C434    1.448   .     S
C429   O453    1.306   .     A
C429   O456    1.309   .     A
C430   O454    1.309   .     A
C430   C433    1.448   .     S
C430   O455    1.306   .     A
C431   C441    1.411   .     A
C431   N457    1.432   .     S
C431   C433    1.403   .     A
C432   C442    1.411   .     A
C432   C434    1.403   .     A
C432   N463    1.432   .     S
C433   C435    1.402   .     A
C434   C436    1.402   .     A
C435   C437    1.415   .     A
C435   N469    1.429   .     S
C436   C438    1.415   .     A
C436   N475    1.429   .     S
C437   C443    1.415   .     A
C437   C439    1.420   .     A
C438   C440    1.420   .     A
C438   C444    1.415   .     A
C439   C441    1.414   .     A
C439   C1682   1.412   .     S
C440   C442    1.415   .     A
C440   C1681   1.412   1_554 S
C443   N481    1.423   .     S
C443   C1659   1.405   .     S
C444   N487    1.423   .     S
C444   C1660   1.405   1_554 S
Cu445  Cu446   2.740   .     S
Cu445  N447    2.059   .     S
Cu445  O451    1.999   .     S
Cu445  O455    1.960   .     S
Cu445  O449    1.999   .     S
Cu445  O453    1.960   .     S
Cu446  O450    1.999   .     S
Cu446  O452    1.999   .     S
Cu446  N448    2.059   .     S
Cu446  O454    1.960   .     S
Cu446  O456    1.960   .     S
N457   C459    1.446   .     S
N457   H458    1.032   .     S
C459   H461    1.107   .     S
C459   H460    1.108   .     S
C459   H462    1.106   .     S
N463   C465    1.446   .     S
N463   H464    1.032   .     S
C465   H468    1.106   .     S
C465   H466    1.108   .     S
C465   H467    1.107   .     S
N469   H470    1.030   .     S
N469   C471    1.447   .     S
C471   H473    1.112   .     S
C471   H474    1.109   .     S
C471   H472    1.110   .     S
N475   H476    1.030   .     S
N475   C477    1.447   .     S
C477   H479    1.112   .     S
C477   H480    1.109   .     S
C477   H478    1.110   .     S
N481   H482    1.027   .     S
N481   C483    1.447   .     S
C483   H485    1.111   .     S
C483   H486    1.111   .     S
C483   H484    1.110   .     S
N487   H488    1.027   .     S
N487   C489    1.447   .     S
C489   H490    1.111   .     S
C489   H491    1.110   .     S
C489   H492    1.111   .     S
N493   H494    1.028   .     S
N493   C495    1.448   .     S
C495   H498    1.110   .     S
C495   H497    1.109   .     S
C495   H496    1.111   .     S
N499   H500    1.028   .     S
N499   C501    1.448   .     S
C501   H502    1.111   .     S
C501   H504    1.110   .     S
C501   H503    1.109   .     S
N505   H506    1.030   .     S
N505   C507    1.443   .     S
C507   H508    1.107   .     S
C507   H509    1.107   .     S
C507   H510    1.110   .     S
N511   H512    1.029   .     S
N511   C513    1.447   .     S
C513   H514    1.110   .     S
C513   H516    1.109   .     S
C513   H515    1.109   .     S
N517   C519    1.443   .     S
N517   H518    1.030   .     S
C519   H521    1.107   .     S
C519   H522    1.110   .     S
C519   H520    1.107   .     S
N523   C525    1.447   .     S
N523   H524    1.029   .     S
C525   H526    1.110   .     S
C525   H527    1.109   .     S
C525   H528    1.109   .     S
N529   H530    1.030   .     S
N529   C531    1.451   .     S
C531   H533    1.109   .     S
C531   H534    1.110   .     S
C531   H532    1.104   .     S
N535   H536    1.031   .     S
N535   C537    1.452   .     S
C537   H538    1.109   .     S
C537   H540    1.109   .     S
C537   H539    1.108   .     S
N541   C543    1.451   .     S
N541   H542    1.030   .     S
C543   H546    1.110   .     S
C543   H544    1.104   .     S
C543   H545    1.109   .     S
N547   H548    1.031   .     S
N547   C549    1.452   .     S
C549   H552    1.109   .     S
C549   H550    1.109   .     S
C549   H551    1.108   .     S
C553   O590    1.319   .     A
C553   O587    1.316   .     A
C553   C562    1.486   .     S
C554   O588    1.319   .     A
C554   O589    1.316   .     A
C554   C561    1.486   .     S
C555   N631    1.422   .     S
C555   C580    1.410   .     A
C555   C1823   1.405   1_554 S
C556   N637    1.422   .     S
C556   C579    1.410   .     A
C556   C1824   1.405   .     S
C557   C562    1.413   .     A
C557   N643    1.424   .     S
C558   C561    1.418   .     A
C558   N649    1.427   .     S
C558   C698    1.405   .     S
C559   N655    1.424   .     S
C559   C561    1.413   .     A
C559   C695    1.401   .     S
C560   N661    1.426   .     S
C560   C562    1.418   .     A
C563   N667    1.423   .     S
C563   N586    1.382   .     A
C564   N673    1.418   .     S
C564   N585    1.382   .     A
C564   C979    1.429   .     S
C565   N679    1.423   .     S
C565   N586    1.382   .     A
C566   N585    1.382   .     A
C566   N685    1.418   .     S
C566   C977    1.429   .     S
C567   C572    1.448   .     S
C567   O591    1.306   .     A
C567   O594    1.309   .     A
C568   O592    1.309   .     A
C568   C571    1.448   .     S
C568   O593    1.306   .     A
C569   C579    1.411   .     A
C569   N595    1.432   .     S
C569   C571    1.403   .     A
C570   C580    1.411   .     A
C570   C572    1.403   .     A
C570   N601    1.432   .     S
C571   C573    1.402   .     A
C572   C574    1.402   .     A
C573   C575    1.415   .     A
C573   N607    1.429   .     S
C574   C576    1.415   .     A
C574   N613    1.429   .     S
C575   C581    1.415   .     A
C575   C577    1.420   .     A
C576   C578    1.420   .     A
C576   C582    1.415   .     A
C577   C579    1.414   .     A
C577   C1820   1.412   .     S
C578   C580    1.415   .     A
C578   C1819   1.412   1_554 S
C581   N619    1.423   .     S
C581   C1797   1.405   .     S
C582   N625    1.423   .     S
C582   C1798   1.405   1_554 S
Cu583  Cu584   2.740   .     S
Cu583  N585    2.059   .     S
Cu583  O589    1.999   .     S
Cu583  O593    1.960   .     S
Cu583  O587    1.999   .     S
Cu583  O591    1.960   .     S
Cu584  O588    1.999   .     S
Cu584  O590    1.999   .     S
Cu584  N586    2.059   .     S
Cu584  O592    1.960   .     S
Cu584  O594    1.960   .     S
N595   C597    1.446   .     S
N595   H596    1.032   .     S
C597   H599    1.107   .     S
C597   H598    1.108   .     S
C597   H600    1.106   .     S
N601   C603    1.446   .     S
N601   H602    1.032   .     S
C603   H606    1.106   .     S
C603   H604    1.108   .     S
C603   H605    1.107   .     S
N607   H608    1.030   .     S
N607   C609    1.447   .     S
C609   H611    1.112   .     S
C609   H612    1.109   .     S
C609   H610    1.110   .     S
N613   H614    1.030   .     S
N613   C615    1.447   .     S
C615   H617    1.112   .     S
C615   H618    1.109   .     S
C615   H616    1.110   .     S
N619   H620    1.027   .     S
N619   C621    1.447   .     S
C621   H623    1.111   .     S
C621   H624    1.111   .     S
C621   H622    1.110   .     S
N625   H626    1.027   .     S
N625   C627    1.447   .     S
C627   H628    1.111   .     S
C627   H629    1.110   .     S
C627   H630    1.111   .     S
N631   H632    1.028   .     S
N631   C633    1.448   .     S
C633   H636    1.110   .     S
C633   H635    1.109   .     S
C633   H634    1.111   .     S
N637   H638    1.028   .     S
N637   C639    1.448   .     S
C639   H640    1.111   .     S
C639   H642    1.110   .     S
C639   H641    1.109   .     S
N643   H644    1.030   .     S
N643   C645    1.443   .     S
C645   H646    1.107   .     S
C645   H647    1.107   .     S
C645   H648    1.110   .     S
N649   H650    1.029   .     S
N649   C651    1.447   .     S
C651   H652    1.110   .     S
C651   H654    1.109   .     S
C651   H653    1.109   .     S
N655   C657    1.443   .     S
N655   H656    1.030   .     S
C657   H659    1.107   .     S
C657   H660    1.110   .     S
C657   H658    1.107   .     S
N661   C663    1.447   .     S
N661   H662    1.029   .     S
C663   H664    1.110   .     S
C663   H665    1.109   .     S
C663   H666    1.109   .     S
N667   H668    1.030   .     S
N667   C669    1.451   .     S
C669   H671    1.109   .     S
C669   H672    1.110   .     S
C669   H670    1.104   .     S
N673   H674    1.031   .     S
N673   C675    1.452   .     S
C675   H676    1.109   .     S
C675   H678    1.109   .     S
C675   H677    1.108   .     S
N679   C681    1.451   .     S
N679   H680    1.030   .     S
C681   H684    1.110   .     S
C681   H682    1.104   .     S
C681   H683    1.109   .     S
N685   H686    1.031   .     S
N685   C687    1.452   .     S
C687   H690    1.109   .     S
C687   H688    1.109   .     S
C687   H689    1.108   .     S
C691   O728    1.319   .     A
C691   O725    1.316   .     A
C691   C700    1.486   .     S
C692   O726    1.319   .     A
C692   O727    1.316   .     A
C692   C699    1.486   .     S
C693   N769    1.422   .     S
C693   C718    1.410   .     A
C693   C1961   1.405   1_554 S
C694   N775    1.422   .     S
C694   C717    1.410   .     A
C694   C1962   1.405   .     S
C695   C700    1.413   .     A
C695   N781    1.424   .     S
C696   C699    1.418   .     A
C696   N787    1.427   .     S
C696   C422    1.405   1_655 S
C697   N793    1.424   .     S
C697   C699    1.413   .     A
C697   C419    1.401   1_655 S
C698   N799    1.426   .     S
C698   C700    1.418   .     A
C701   N805    1.423   .     S
C701   N724    1.382   .     A
C702   N811    1.418   .     S
C702   N723    1.382   .     A
C702   C1117   1.429   .     S
C703   N817    1.423   .     S
C703   N724    1.382   .     A
C704   N723    1.382   .     A
C704   N823    1.418   .     S
C704   C1115   1.429   .     S
C705   C710    1.448   .     S
C705   O729    1.306   .     A
C705   O732    1.309   .     A
C706   O730    1.309   .     A
C706   C709    1.448   .     S
C706   O731    1.306   .     A
C707   C717    1.411   .     A
C707   N733    1.432   .     S
C707   C709    1.403   .     A
C708   C718    1.411   .     A
C708   C710    1.403   .     A
C708   N739    1.432   .     S
C709   C711    1.402   .     A
C710   C712    1.402   .     A
C711   C713    1.415   .     A
C711   N745    1.429   .     S
C712   C714    1.415   .     A
C712   N751    1.429   .     S
C713   C719    1.415   .     A
C713   C715    1.420   .     A
C714   C716    1.420   .     A
C714   C720    1.415   .     A
C715   C717    1.414   .     A
C715   C1958   1.412   .     S
C716   C718    1.415   .     A
C716   C1957   1.412   1_554 S
C719   N757    1.423   .     S
C719   C1935   1.405   .     S
C720   N763    1.423   .     S
C720   C1936   1.405   1_554 S
Cu721  Cu722   2.740   .     S
Cu721  N723    2.059   .     S
Cu721  O727    1.999   .     S
Cu721  O731    1.960   .     S
Cu721  O725    1.999   .     S
Cu721  O729    1.960   .     S
Cu722  O726    1.999   .     S
Cu722  O728    1.999   .     S
Cu722  N724    2.059   .     S
Cu722  O730    1.960   .     S
Cu722  O732    1.960   .     S
N733   C735    1.446   .     S
N733   H734    1.032   .     S
C735   H737    1.107   .     S
C735   H736    1.108   .     S
C735   H738    1.106   .     S
N739   C741    1.446   .     S
N739   H740    1.032   .     S
C741   H744    1.106   .     S
C741   H742    1.108   .     S
C741   H743    1.107   .     S
N745   H746    1.030   .     S
N745   C747    1.447   .     S
C747   H749    1.112   .     S
C747   H750    1.109   .     S
C747   H748    1.110   .     S
N751   H752    1.030   .     S
N751   C753    1.447   .     S
C753   H755    1.112   .     S
C753   H756    1.109   .     S
C753   H754    1.110   .     S
N757   H758    1.027   .     S
N757   C759    1.447   .     S
C759   H761    1.111   .     S
C759   H762    1.111   .     S
C759   H760    1.110   .     S
N763   H764    1.027   .     S
N763   C765    1.447   .     S
C765   H766    1.111   .     S
C765   H767    1.110   .     S
C765   H768    1.111   .     S
N769   H770    1.028   .     S
N769   C771    1.448   .     S
C771   H774    1.110   .     S
C771   H773    1.109   .     S
C771   H772    1.111   .     S
N775   H776    1.028   .     S
N775   C777    1.448   .     S
C777   H778    1.111   .     S
C777   H780    1.110   .     S
C777   H779    1.109   .     S
N781   H782    1.030   .     S
N781   C783    1.443   .     S
C783   H784    1.107   .     S
C783   H785    1.107   .     S
C783   H786    1.110   .     S
N787   H788    1.029   .     S
N787   C789    1.447   .     S
C789   H790    1.110   .     S
C789   H792    1.109   .     S
C789   H791    1.109   .     S
N793   C795    1.443   .     S
N793   H794    1.030   .     S
C795   H797    1.107   .     S
C795   H798    1.110   .     S
C795   H796    1.107   .     S
N799   C801    1.447   .     S
N799   H800    1.029   .     S
C801   H802    1.110   .     S
C801   H803    1.109   .     S
C801   H804    1.109   .     S
N805   H806    1.030   .     S
N805   C807    1.451   .     S
C807   H809    1.109   .     S
C807   H810    1.110   .     S
C807   H808    1.104   .     S
N811   H812    1.031   .     S
N811   C813    1.452   .     S
C813   H814    1.109   .     S
C813   H816    1.109   .     S
C813   H815    1.108   .     S
N817   C819    1.451   .     S
N817   H818    1.030   .     S
C819   H822    1.110   .     S
C819   H820    1.104   .     S
C819   H821    1.109   .     S
N823   H824    1.031   .     S
N823   C825    1.452   .     S
C825   H828    1.109   .     S
C825   H826    1.109   .     S
C825   H827    1.108   .     S
C829   O866    1.319   .     A
C829   O863    1.316   .     A
C829   C838    1.486   .     S
C830   O864    1.319   .     A
C830   O865    1.316   .     A
C830   C837    1.486   .     S
C831   N907    1.422   .     S
C831   C856    1.410   .     A
C831   C2099   1.405   1_554 S
C832   N913    1.422   .     S
C832   C855    1.410   .     A
C832   C2100   1.405   .     S
C833   C838    1.413   .     A
C833   N919    1.424   .     S
C833   C1111   1.401   1_455 S
C834   C837    1.418   .     A
C834   N925    1.427   .     S
C834   C974    1.405   .     S
C835   N931    1.424   .     S
C835   C837    1.413   .     A
C835   C971    1.401   .     S
C836   N937    1.426   .     S
C836   C838    1.418   .     A
C836   C1110   1.405   1_455 S
C839   N943    1.423   .     S
C839   N862    1.382   .     A
C840   N949    1.418   .     S
C840   N861    1.382   .     A
C840   C13     1.429   1_565 S
C841   N955    1.423   .     S
C841   N862    1.382   .     A
C842   N861    1.382   .     A
C842   N961    1.418   .     S
C842   C11     1.429   1_565 S
C843   C848    1.448   .     S
C843   O867    1.306   .     A
C843   O870    1.309   .     A
C844   O868    1.309   .     A
C844   C847    1.448   .     S
C844   O869    1.306   .     A
C845   C855    1.411   .     A
C845   N871    1.432   .     S
C845   C847    1.403   .     A
C846   C856    1.411   .     A
C846   C848    1.403   .     A
C846   N877    1.432   .     S
C847   C849    1.402   .     A
C848   C850    1.402   .     A
C849   C851    1.415   .     A
C849   N883    1.429   .     S
C850   C852    1.415   .     A
C850   N889    1.429   .     S
C851   C857    1.415   .     A
C851   C853    1.420   .     A
C852   C854    1.420   .     A
C852   C858    1.415   .     A
C853   C855    1.414   .     A
C853   C2096   1.412   .     S
C854   C856    1.415   .     A
C854   C2095   1.412   1_554 S
C857   N895    1.423   .     S
C857   C2073   1.405   .     S
C858   N901    1.423   .     S
C858   C2074   1.405   1_554 S
Cu859  Cu860   2.740   .     S
Cu859  N861    2.059   .     S
Cu859  O865    1.999   .     S
Cu859  O869    1.960   .     S
Cu859  O863    1.999   .     S
Cu859  O867    1.960   .     S
Cu860  O864    1.999   .     S
Cu860  O866    1.999   .     S
Cu860  N862    2.059   .     S
Cu860  O868    1.960   .     S
Cu860  O870    1.960   .     S
N871   C873    1.446   .     S
N871   H872    1.032   .     S
C873   H875    1.107   .     S
C873   H874    1.108   .     S
C873   H876    1.106   .     S
N877   C879    1.446   .     S
N877   H878    1.032   .     S
C879   H882    1.106   .     S
C879   H880    1.108   .     S
C879   H881    1.107   .     S
N883   H884    1.030   .     S
N883   C885    1.447   .     S
C885   H887    1.112   .     S
C885   H888    1.109   .     S
C885   H886    1.110   .     S
N889   H890    1.030   .     S
N889   C891    1.447   .     S
C891   H893    1.112   .     S
C891   H894    1.109   .     S
C891   H892    1.110   .     S
N895   H896    1.027   .     S
N895   C897    1.447   .     S
C897   H899    1.111   .     S
C897   H900    1.111   .     S
C897   H898    1.110   .     S
N901   H902    1.027   .     S
N901   C903    1.447   .     S
C903   H904    1.111   .     S
C903   H905    1.110   .     S
C903   H906    1.111   .     S
N907   H908    1.028   .     S
N907   C909    1.448   .     S
C909   H912    1.110   .     S
C909   H911    1.109   .     S
C909   H910    1.111   .     S
N913   H914    1.028   .     S
N913   C915    1.448   .     S
C915   H916    1.111   .     S
C915   H918    1.110   .     S
C915   H917    1.109   .     S
N919   H920    1.030   .     S
N919   C921    1.443   .     S
C921   H922    1.107   .     S
C921   H923    1.107   .     S
C921   H924    1.110   .     S
N925   H926    1.029   .     S
N925   C927    1.447   .     S
C927   H928    1.110   .     S
C927   H930    1.109   .     S
C927   H929    1.109   .     S
N931   C933    1.443   .     S
N931   H932    1.030   .     S
C933   H935    1.107   .     S
C933   H936    1.110   .     S
C933   H934    1.107   .     S
N937   C939    1.447   .     S
N937   H938    1.029   .     S
C939   H940    1.110   .     S
C939   H941    1.109   .     S
C939   H942    1.109   .     S
N943   H944    1.030   .     S
N943   C945    1.451   .     S
C945   H947    1.109   .     S
C945   H948    1.110   .     S
C945   H946    1.104   .     S
N949   H950    1.031   .     S
N949   C951    1.452   .     S
C951   H952    1.109   .     S
C951   H954    1.109   .     S
C951   H953    1.108   .     S
N955   C957    1.451   .     S
N955   H956    1.030   .     S
C957   H960    1.110   .     S
C957   H958    1.104   .     S
C957   H959    1.109   .     S
N961   H962    1.031   .     S
N961   C963    1.452   .     S
C963   H966    1.109   .     S
C963   H964    1.109   .     S
C963   H965    1.108   .     S
C967   O1004   1.319   .     A
C967   O1001   1.316   .     A
C967   C976    1.486   .     S
C968   O1002   1.319   .     A
C968   O1003   1.316   .     A
C968   C975    1.486   .     S
C969   N1045   1.422   .     S
C969   C994    1.410   .     A
C969   C2237   1.405   1_554 S
C970   N1051   1.422   .     S
C970   C993    1.410   .     A
C970   C2238   1.405   .     S
C971   C976    1.413   .     A
C971   N1057   1.424   .     S
C972   C975    1.418   .     A
C972   N1063   1.427   .     S
C972   C1112   1.405   .     S
C973   N1069   1.424   .     S
C973   C975    1.413   .     A
C973   C1109   1.401   .     S
C974   N1075   1.426   .     S
C974   C976    1.418   .     A
C977   N1081   1.423   .     S
C977   N1000   1.382   .     A
C978   N1087   1.418   .     S
C978   N999    1.382   .     A
C978   C151    1.429   1_565 S
C979   N1093   1.423   .     S
C979   N1000   1.382   .     A
C980   N999    1.382   .     A
C980   N1099   1.418   .     S
C980   C149    1.429   1_565 S
C981   C986    1.448   .     S
C981   O1005   1.306   .     A
C981   O1008   1.309   .     A
C982   O1006   1.309   .     A
C982   C985    1.448   .     S
C982   O1007   1.306   .     A
C983   C993    1.411   .     A
C983   N1009   1.432   .     S
C983   C985    1.403   .     A
C984   C994    1.411   .     A
C984   C986    1.403   .     A
C984   N1015   1.432   .     S
C985   C987    1.402   .     A
C986   C988    1.402   .     A
C987   C989    1.415   .     A
C987   N1021   1.429   .     S
C988   C990    1.415   .     A
C988   N1027   1.429   .     S
C989   C995    1.415   .     A
C989   C991    1.420   .     A
C990   C992    1.420   .     A
C990   C996    1.415   .     A
C991   C993    1.414   .     A
C991   C2234   1.412   .     S
C992   C994    1.415   .     A
C992   C2233   1.412   1_554 S
C995   N1033   1.423   .     S
C995   C2211   1.405   .     S
C996   N1039   1.423   .     S
C996   C2212   1.405   1_554 S
Cu997  Cu998   2.740   .     S
Cu997  N999    2.059   .     S
Cu997  O1003   1.999   .     S
Cu997  O1007   1.960   .     S
Cu997  O1001   1.999   .     S
Cu997  O1005   1.960   .     S
Cu998  O1002   1.999   .     S
Cu998  O1004   1.999   .     S
Cu998  N1000   2.059   .     S
Cu998  O1006   1.960   .     S
Cu998  O1008   1.960   .     S
N1009  C1011   1.446   .     S
N1009  H1010   1.032   .     S
C1011  H1013   1.107   .     S
C1011  H1012   1.108   .     S
C1011  H1014   1.106   .     S
N1015  C1017   1.446   .     S
N1015  H1016   1.032   .     S
C1017  H1020   1.106   .     S
C1017  H1018   1.108   .     S
C1017  H1019   1.107   .     S
N1021  H1022   1.030   .     S
N1021  C1023   1.447   .     S
C1023  H1025   1.112   .     S
C1023  H1026   1.109   .     S
C1023  H1024   1.110   .     S
N1027  H1028   1.030   .     S
N1027  C1029   1.447   .     S
C1029  H1031   1.112   .     S
C1029  H1032   1.109   .     S
C1029  H1030   1.110   .     S
N1033  H1034   1.027   .     S
N1033  C1035   1.447   .     S
C1035  H1037   1.111   .     S
C1035  H1038   1.111   .     S
C1035  H1036   1.110   .     S
N1039  H1040   1.027   .     S
N1039  C1041   1.447   .     S
C1041  H1042   1.111   .     S
C1041  H1043   1.110   .     S
C1041  H1044   1.111   .     S
N1045  H1046   1.028   .     S
N1045  C1047   1.448   .     S
C1047  H1050   1.110   .     S
C1047  H1049   1.109   .     S
C1047  H1048   1.111   .     S
N1051  H1052   1.028   .     S
N1051  C1053   1.448   .     S
C1053  H1054   1.111   .     S
C1053  H1056   1.110   .     S
C1053  H1055   1.109   .     S
N1057  H1058   1.030   .     S
N1057  C1059   1.443   .     S
C1059  H1060   1.107   .     S
C1059  H1061   1.107   .     S
C1059  H1062   1.110   .     S
N1063  H1064   1.029   .     S
N1063  C1065   1.447   .     S
C1065  H1066   1.110   .     S
C1065  H1068   1.109   .     S
C1065  H1067   1.109   .     S
N1069  C1071   1.443   .     S
N1069  H1070   1.030   .     S
C1071  H1073   1.107   .     S
C1071  H1074   1.110   .     S
C1071  H1072   1.107   .     S
N1075  C1077   1.447   .     S
N1075  H1076   1.029   .     S
C1077  H1078   1.110   .     S
C1077  H1079   1.109   .     S
C1077  H1080   1.109   .     S
N1081  H1082   1.030   .     S
N1081  C1083   1.451   .     S
C1083  H1085   1.109   .     S
C1083  H1086   1.110   .     S
C1083  H1084   1.104   .     S
N1087  H1088   1.031   .     S
N1087  C1089   1.452   .     S
C1089  H1090   1.109   .     S
C1089  H1092   1.109   .     S
C1089  H1091   1.108   .     S
N1093  C1095   1.451   .     S
N1093  H1094   1.030   .     S
C1095  H1098   1.110   .     S
C1095  H1096   1.104   .     S
C1095  H1097   1.109   .     S
N1099  H1100   1.031   .     S
N1099  C1101   1.452   .     S
C1101  H1104   1.109   .     S
C1101  H1102   1.109   .     S
C1101  H1103   1.108   .     S
C1105  O1142   1.319   .     A
C1105  O1139   1.316   .     A
C1105  C1114   1.486   .     S
C1106  O1140   1.319   .     A
C1106  O1141   1.316   .     A
C1106  C1113   1.486   .     S
C1107  N1183   1.422   .     S
C1107  C1132   1.410   .     A
C1107  C2375   1.405   1_554 S
C1108  N1189   1.422   .     S
C1108  C1131   1.410   .     A
C1108  C2376   1.405   .     S
C1109  C1114   1.413   .     A
C1109  N1195   1.424   .     S
C1110  C1113   1.418   .     A
C1110  N1201   1.427   .     S
C1110  C836    1.405   1_655 S
C1111  N1207   1.424   .     S
C1111  C1113   1.413   .     A
C1111  C833    1.401   1_655 S
C1112  N1213   1.426   .     S
C1112  C1114   1.418   .     A
C1115  N1219   1.423   .     S
C1115  N1138   1.382   .     A
C1116  N1225   1.418   .     S
C1116  N1137   1.382   .     A
C1116  C289    1.429   1_565 S
C1117  N1231   1.423   .     S
C1117  N1138   1.382   .     A
C1118  N1137   1.382   .     A
C1118  N1237   1.418   .     S
C1118  C287    1.429   1_565 S
C1119  C1124   1.448   .     S
C1119  O1143   1.306   .     A
C1119  O1146   1.309   .     A
C1120  O1144   1.309   .     A
C1120  C1123   1.448   .     S
C1120  O1145   1.306   .     A
C1121  C1131   1.411   .     A
C1121  N1147   1.432   .     S
C1121  C1123   1.403   .     A
C1122  C1132   1.411   .     A
C1122  C1124   1.403   .     A
C1122  N1153   1.432   .     S
C1123  C1125   1.402   .     A
C1124  C1126   1.402   .     A
C1125  C1127   1.415   .     A
C1125  N1159   1.429   .     S
C1126  C1128   1.415   .     A
C1126  N1165   1.429   .     S
C1127  C1133   1.415   .     A
C1127  C1129   1.420   .     A
C1128  C1130   1.420   .     A
C1128  C1134   1.415   .     A
C1129  C1131   1.414   .     A
C1129  C2372   1.412   .     S
C1130  C1132   1.415   .     A
C1130  C2371   1.412   1_554 S
C1133  N1171   1.423   .     S
C1133  C2349   1.405   .     S
C1134  N1177   1.423   .     S
C1134  C2350   1.405   1_554 S
Cu1135 Cu1136  2.740   .     S
Cu1135 N1137   2.059   .     S
Cu1135 O1141   1.999   .     S
Cu1135 O1145   1.960   .     S
Cu1135 O1139   1.999   .     S
Cu1135 O1143   1.960   .     S
Cu1136 O1140   1.999   .     S
Cu1136 O1142   1.999   .     S
Cu1136 N1138   2.059   .     S
Cu1136 O1144   1.960   .     S
Cu1136 O1146   1.960   .     S
N1147  C1149   1.446   .     S
N1147  H1148   1.032   .     S
C1149  H1151   1.107   .     S
C1149  H1150   1.108   .     S
C1149  H1152   1.106   .     S
N1153  C1155   1.446   .     S
N1153  H1154   1.032   .     S
C1155  H1158   1.106   .     S
C1155  H1156   1.108   .     S
C1155  H1157   1.107   .     S
N1159  H1160   1.030   .     S
N1159  C1161   1.447   .     S
C1161  H1163   1.112   .     S
C1161  H1164   1.109   .     S
C1161  H1162   1.110   .     S
N1165  H1166   1.030   .     S
N1165  C1167   1.447   .     S
C1167  H1169   1.112   .     S
C1167  H1170   1.109   .     S
C1167  H1168   1.110   .     S
N1171  H1172   1.027   .     S
N1171  C1173   1.447   .     S
C1173  H1175   1.111   .     S
C1173  H1176   1.111   .     S
C1173  H1174   1.110   .     S
N1177  H1178   1.027   .     S
N1177  C1179   1.447   .     S
C1179  H1180   1.111   .     S
C1179  H1181   1.110   .     S
C1179  H1182   1.111   .     S
N1183  H1184   1.028   .     S
N1183  C1185   1.448   .     S
C1185  H1188   1.110   .     S
C1185  H1187   1.109   .     S
C1185  H1186   1.111   .     S
N1189  H1190   1.028   .     S
N1189  C1191   1.448   .     S
C1191  H1192   1.111   .     S
C1191  H1194   1.110   .     S
C1191  H1193   1.109   .     S
N1195  H1196   1.030   .     S
N1195  C1197   1.443   .     S
C1197  H1198   1.107   .     S
C1197  H1199   1.107   .     S
C1197  H1200   1.110   .     S
N1201  H1202   1.029   .     S
N1201  C1203   1.447   .     S
C1203  H1204   1.110   .     S
C1203  H1206   1.109   .     S
C1203  H1205   1.109   .     S
N1207  C1209   1.443   .     S
N1207  H1208   1.030   .     S
C1209  H1211   1.107   .     S
C1209  H1212   1.110   .     S
C1209  H1210   1.107   .     S
N1213  C1215   1.447   .     S
N1213  H1214   1.029   .     S
C1215  H1216   1.110   .     S
C1215  H1217   1.109   .     S
C1215  H1218   1.109   .     S
N1219  H1220   1.030   .     S
N1219  C1221   1.451   .     S
C1221  H1223   1.109   .     S
C1221  H1224   1.110   .     S
C1221  H1222   1.104   .     S
N1225  H1226   1.031   .     S
N1225  C1227   1.452   .     S
C1227  H1228   1.109   .     S
C1227  H1230   1.109   .     S
C1227  H1229   1.108   .     S
N1231  C1233   1.451   .     S
N1231  H1232   1.030   .     S
C1233  H1236   1.110   .     S
C1233  H1234   1.104   .     S
C1233  H1235   1.109   .     S
N1237  H1238   1.031   .     S
N1237  C1239   1.452   .     S
C1239  H1242   1.109   .     S
C1239  H1240   1.109   .     S
C1239  H1241   1.108   .     S
C1243  O1280   1.319   .     A
C1243  O1277   1.316   .     A
C1243  C1252   1.486   .     S
C1244  O1278   1.319   .     A
C1244  O1279   1.316   .     A
C1244  C1251   1.486   .     S
C1245  N1321   1.422   .     S
C1245  C1270   1.410   .     A
C1246  N1327   1.422   .     S
C1246  C1269   1.410   .     A
C1246  C30     1.405   1_556 S
C1247  C1252   1.413   .     A
C1247  N1333   1.424   .     S
C1247  C1525   1.401   1_455 S
C1248  C1251   1.418   .     A
C1248  N1339   1.427   .     S
C1248  C1388   1.405   .     S
C1249  N1345   1.424   .     S
C1249  C1251   1.413   .     A
C1249  C1385   1.401   .     S
C1250  N1351   1.426   .     S
C1250  C1252   1.418   .     A
C1250  C1524   1.405   1_455 S
C1253  N1357   1.423   .     S
C1253  N1276   1.382   .     A
C1253  C2084   1.429   1_545 S
C1254  N1363   1.418   .     S
C1254  N1275   1.382   .     A
C1254  C1669   1.429   .     S
C1255  N1369   1.423   .     S
C1255  N1276   1.382   .     A
C1255  C2082   1.429   1_545 S
C1256  N1275   1.382   .     A
C1256  N1375   1.418   .     S
C1256  C1667   1.429   .     S
C1257  C1262   1.448   .     S
C1257  O1281   1.306   .     A
C1257  O1284   1.309   .     A
C1258  O1282   1.309   .     A
C1258  C1261   1.448   .     S
C1258  O1283   1.306   .     A
C1259  C1269   1.411   .     A
C1259  N1285   1.432   .     S
C1259  C1261   1.403   .     A
C1260  C1270   1.411   .     A
C1260  C1262   1.403   .     A
C1260  N1291   1.432   .     S
C1261  C1263   1.402   .     A
C1262  C1264   1.402   .     A
C1263  C1265   1.415   .     A
C1263  N1297   1.429   .     S
C1264  C1266   1.415   .     A
C1264  N1303   1.429   .     S
C1265  C1271   1.415   .     A
C1265  C1267   1.420   .     A
C1266  C1268   1.420   .     A
C1266  C1272   1.415   .     A
C1267  C1269   1.414   .     A
C1267  C26     1.412   1_556 S
C1268  C1270   1.415   .     A
C1271  N1309   1.423   .     S
C1271  C3      1.405   1_556 S
C1272  N1315   1.423   .     S
Cu1273 Cu1274  2.740   .     S
Cu1273 N1275   2.059   .     S
Cu1273 O1279   1.999   .     S
Cu1273 O1283   1.960   .     S
Cu1273 O1277   1.999   .     S
Cu1273 O1281   1.960   .     S
Cu1274 O1278   1.999   .     S
Cu1274 O1280   1.999   .     S
Cu1274 N1276   2.059   .     S
Cu1274 O1282   1.960   .     S
Cu1274 O1284   1.960   .     S
N1285  C1287   1.446   .     S
N1285  H1286   1.032   .     S
C1287  H1289   1.107   .     S
C1287  H1288   1.108   .     S
C1287  H1290   1.106   .     S
N1291  C1293   1.446   .     S
N1291  H1292   1.032   .     S
C1293  H1296   1.106   .     S
C1293  H1294   1.108   .     S
C1293  H1295   1.107   .     S
N1297  H1298   1.030   .     S
N1297  C1299   1.447   .     S
C1299  H1301   1.112   .     S
C1299  H1302   1.109   .     S
C1299  H1300   1.110   .     S
N1303  H1304   1.030   .     S
N1303  C1305   1.447   .     S
C1305  H1307   1.112   .     S
C1305  H1308   1.109   .     S
C1305  H1306   1.110   .     S
N1309  H1310   1.027   .     S
N1309  C1311   1.447   .     S
C1311  H1313   1.111   .     S
C1311  H1314   1.111   .     S
C1311  H1312   1.110   .     S
N1315  H1316   1.027   .     S
N1315  C1317   1.447   .     S
C1317  H1318   1.111   .     S
C1317  H1319   1.110   .     S
C1317  H1320   1.111   .     S
N1321  H1322   1.028   .     S
N1321  C1323   1.448   .     S
C1323  H1326   1.110   .     S
C1323  H1325   1.109   .     S
C1323  H1324   1.111   .     S
N1327  H1328   1.028   .     S
N1327  C1329   1.448   .     S
C1329  H1330   1.111   .     S
C1329  H1332   1.110   .     S
C1329  H1331   1.109   .     S
N1333  H1334   1.030   .     S
N1333  C1335   1.443   .     S
C1335  H1336   1.107   .     S
C1335  H1337   1.107   .     S
C1335  H1338   1.110   .     S
N1339  H1340   1.029   .     S
N1339  C1341   1.447   .     S
C1341  H1342   1.110   .     S
C1341  H1344   1.109   .     S
C1341  H1343   1.109   .     S
N1345  C1347   1.443   .     S
N1345  H1346   1.030   .     S
C1347  H1349   1.107   .     S
C1347  H1350   1.110   .     S
C1347  H1348   1.107   .     S
N1351  C1353   1.447   .     S
N1351  H1352   1.029   .     S
C1353  H1354   1.110   .     S
C1353  H1355   1.109   .     S
C1353  H1356   1.109   .     S
N1357  H1358   1.030   .     S
N1357  C1359   1.451   .     S
C1359  H1361   1.109   .     S
C1359  H1362   1.110   .     S
C1359  H1360   1.104   .     S
N1363  H1364   1.031   .     S
N1363  C1365   1.452   .     S
C1365  H1366   1.109   .     S
C1365  H1368   1.109   .     S
C1365  H1367   1.108   .     S
N1369  C1371   1.451   .     S
N1369  H1370   1.030   .     S
C1371  H1374   1.110   .     S
C1371  H1372   1.104   .     S
C1371  H1373   1.109   .     S
N1375  H1376   1.031   .     S
N1375  C1377   1.452   .     S
C1377  H1380   1.109   .     S
C1377  H1378   1.109   .     S
C1377  H1379   1.108   .     S
C1381  O1418   1.319   .     A
C1381  O1415   1.316   .     A
C1381  C1390   1.486   .     S
C1382  O1416   1.319   .     A
C1382  O1417   1.316   .     A
C1382  C1389   1.486   .     S
C1383  N1459   1.422   .     S
C1383  C1408   1.410   .     A
C1384  N1465   1.422   .     S
C1384  C1407   1.410   .     A
C1384  C168    1.405   1_556 S
C1385  C1390   1.413   .     A
C1385  N1471   1.424   .     S
C1386  C1389   1.418   .     A
C1386  N1477   1.427   .     S
C1386  C1526   1.405   .     S
C1387  N1483   1.424   .     S
C1387  C1389   1.413   .     A
C1387  C1523   1.401   .     S
C1388  N1489   1.426   .     S
C1388  C1390   1.418   .     A
C1391  N1495   1.423   .     S
C1391  N1414   1.382   .     A
C1391  C2222   1.429   1_545 S
C1392  N1501   1.418   .     S
C1392  N1413   1.382   .     A
C1392  C1807   1.429   .     S
C1393  N1507   1.423   .     S
C1393  N1414   1.382   .     A
C1393  C2220   1.429   1_545 S
C1394  N1413   1.382   .     A
C1394  N1513   1.418   .     S
C1394  C1805   1.429   .     S
C1395  C1400   1.448   .     S
C1395  O1419   1.306   .     A
C1395  O1422   1.309   .     A
C1396  O1420   1.309   .     A
C1396  C1399   1.448   .     S
C1396  O1421   1.306   .     A
C1397  C1407   1.411   .     A
C1397  N1423   1.432   .     S
C1397  C1399   1.403   .     A
C1398  C1408   1.411   .     A
C1398  C1400   1.403   .     A
C1398  N1429   1.432   .     S
C1399  C1401   1.402   .     A
C1400  C1402   1.402   .     A
C1401  C1403   1.415   .     A
C1401  N1435   1.429   .     S
C1402  C1404   1.415   .     A
C1402  N1441   1.429   .     S
C1403  C1409   1.415   .     A
C1403  C1405   1.420   .     A
C1404  C1406   1.420   .     A
C1404  C1410   1.415   .     A
C1405  C1407   1.414   .     A
C1405  C164    1.412   1_556 S
C1406  C1408   1.415   .     A
C1409  N1447   1.423   .     S
C1409  C141    1.405   1_556 S
C1410  N1453   1.423   .     S
Cu1411 Cu1412  2.740   .     S
Cu1411 N1413   2.059   .     S
Cu1411 O1417   1.999   .     S
Cu1411 O1421   1.960   .     S
Cu1411 O1415   1.999   .     S
Cu1411 O1419   1.960   .     S
Cu1412 O1416   1.999   .     S
Cu1412 O1418   1.999   .     S
Cu1412 N1414   2.059   .     S
Cu1412 O1420   1.960   .     S
Cu1412 O1422   1.960   .     S
N1423  C1425   1.446   .     S
N1423  H1424   1.032   .     S
C1425  H1427   1.107   .     S
C1425  H1426   1.108   .     S
C1425  H1428   1.106   .     S
N1429  C1431   1.446   .     S
N1429  H1430   1.032   .     S
C1431  H1434   1.106   .     S
C1431  H1432   1.108   .     S
C1431  H1433   1.107   .     S
N1435  H1436   1.030   .     S
N1435  C1437   1.447   .     S
C1437  H1439   1.112   .     S
C1437  H1440   1.109   .     S
C1437  H1438   1.110   .     S
N1441  H1442   1.030   .     S
N1441  C1443   1.447   .     S
C1443  H1445   1.112   .     S
C1443  H1446   1.109   .     S
C1443  H1444   1.110   .     S
N1447  H1448   1.027   .     S
N1447  C1449   1.447   .     S
C1449  H1451   1.111   .     S
C1449  H1452   1.111   .     S
C1449  H1450   1.110   .     S
N1453  H1454   1.027   .     S
N1453  C1455   1.447   .     S
C1455  H1456   1.111   .     S
C1455  H1457   1.110   .     S
C1455  H1458   1.111   .     S
N1459  H1460   1.028   .     S
N1459  C1461   1.448   .     S
C1461  H1464   1.110   .     S
C1461  H1463   1.109   .     S
C1461  H1462   1.111   .     S
N1465  H1466   1.028   .     S
N1465  C1467   1.448   .     S
C1467  H1468   1.111   .     S
C1467  H1470   1.110   .     S
C1467  H1469   1.109   .     S
N1471  H1472   1.030   .     S
N1471  C1473   1.443   .     S
C1473  H1474   1.107   .     S
C1473  H1475   1.107   .     S
C1473  H1476   1.110   .     S
N1477  H1478   1.029   .     S
N1477  C1479   1.447   .     S
C1479  H1480   1.110   .     S
C1479  H1482   1.109   .     S
C1479  H1481   1.109   .     S
N1483  C1485   1.443   .     S
N1483  H1484   1.030   .     S
C1485  H1487   1.107   .     S
C1485  H1488   1.110   .     S
C1485  H1486   1.107   .     S
N1489  C1491   1.447   .     S
N1489  H1490   1.029   .     S
C1491  H1492   1.110   .     S
C1491  H1493   1.109   .     S
C1491  H1494   1.109   .     S
N1495  H1496   1.030   .     S
N1495  C1497   1.451   .     S
C1497  H1499   1.109   .     S
C1497  H1500   1.110   .     S
C1497  H1498   1.104   .     S
N1501  H1502   1.031   .     S
N1501  C1503   1.452   .     S
C1503  H1504   1.109   .     S
C1503  H1506   1.109   .     S
C1503  H1505   1.108   .     S
N1507  C1509   1.451   .     S
N1507  H1508   1.030   .     S
C1509  H1512   1.110   .     S
C1509  H1510   1.104   .     S
C1509  H1511   1.109   .     S
N1513  H1514   1.031   .     S
N1513  C1515   1.452   .     S
C1515  H1518   1.109   .     S
C1515  H1516   1.109   .     S
C1515  H1517   1.108   .     S
C1519  O1556   1.319   .     A
C1519  O1553   1.316   .     A
C1519  C1528   1.486   .     S
C1520  O1554   1.319   .     A
C1520  O1555   1.316   .     A
C1520  C1527   1.486   .     S
C1521  N1597   1.422   .     S
C1521  C1546   1.410   .     A
C1522  N1603   1.422   .     S
C1522  C1545   1.410   .     A
C1522  C306    1.405   1_556 S
C1523  C1528   1.413   .     A
C1523  N1609   1.424   .     S
C1524  C1527   1.418   .     A
C1524  N1615   1.427   .     S
C1524  C1250   1.405   1_655 S
C1525  N1621   1.424   .     S
C1525  C1527   1.413   .     A
C1525  C1247   1.401   1_655 S
C1526  N1627   1.426   .     S
C1526  C1528   1.418   .     A
C1529  N1633   1.423   .     S
C1529  N1552   1.382   .     A
C1529  C2360   1.429   1_545 S
C1530  N1639   1.418   .     S
C1530  N1551   1.382   .     A
C1530  C1945   1.429   .     S
C1531  N1645   1.423   .     S
C1531  N1552   1.382   .     A
C1531  C2358   1.429   1_545 S
C1532  N1551   1.382   .     A
C1532  N1651   1.418   .     S
C1532  C1943   1.429   .     S
C1533  C1538   1.448   .     S
C1533  O1557   1.306   .     A
C1533  O1560   1.309   .     A
C1534  O1558   1.309   .     A
C1534  C1537   1.448   .     S
C1534  O1559   1.306   .     A
C1535  C1545   1.411   .     A
C1535  N1561   1.432   .     S
C1535  C1537   1.403   .     A
C1536  C1546   1.411   .     A
C1536  C1538   1.403   .     A
C1536  N1567   1.432   .     S
C1537  C1539   1.402   .     A
C1538  C1540   1.402   .     A
C1539  C1541   1.415   .     A
C1539  N1573   1.429   .     S
C1540  C1542   1.415   .     A
C1540  N1579   1.429   .     S
C1541  C1547   1.415   .     A
C1541  C1543   1.420   .     A
C1542  C1544   1.420   .     A
C1542  C1548   1.415   .     A
C1543  C1545   1.414   .     A
C1543  C302    1.412   1_556 S
C1544  C1546   1.415   .     A
C1547  N1585   1.423   .     S
C1547  C279    1.405   1_556 S
C1548  N1591   1.423   .     S
Cu1549 Cu1550  2.740   .     S
Cu1549 N1551   2.059   .     S
Cu1549 O1555   1.999   .     S
Cu1549 O1559   1.960   .     S
Cu1549 O1553   1.999   .     S
Cu1549 O1557   1.960   .     S
Cu1550 O1554   1.999   .     S
Cu1550 O1556   1.999   .     S
Cu1550 N1552   2.059   .     S
Cu1550 O1558   1.960   .     S
Cu1550 O1560   1.960   .     S
N1561  C1563   1.446   .     S
N1561  H1562   1.032   .     S
C1563  H1565   1.107   .     S
C1563  H1564   1.108   .     S
C1563  H1566   1.106   .     S
N1567  C1569   1.446   .     S
N1567  H1568   1.032   .     S
C1569  H1572   1.106   .     S
C1569  H1570   1.108   .     S
C1569  H1571   1.107   .     S
N1573  H1574   1.030   .     S
N1573  C1575   1.447   .     S
C1575  H1577   1.112   .     S
C1575  H1578   1.109   .     S
C1575  H1576   1.110   .     S
N1579  H1580   1.030   .     S
N1579  C1581   1.447   .     S
C1581  H1583   1.112   .     S
C1581  H1584   1.109   .     S
C1581  H1582   1.110   .     S
N1585  H1586   1.027   .     S
N1585  C1587   1.447   .     S
C1587  H1589   1.111   .     S
C1587  H1590   1.111   .     S
C1587  H1588   1.110   .     S
N1591  H1592   1.027   .     S
N1591  C1593   1.447   .     S
C1593  H1594   1.111   .     S
C1593  H1595   1.110   .     S
C1593  H1596   1.111   .     S
N1597  H1598   1.028   .     S
N1597  C1599   1.448   .     S
C1599  H1602   1.110   .     S
C1599  H1601   1.109   .     S
C1599  H1600   1.111   .     S
N1603  H1604   1.028   .     S
N1603  C1605   1.448   .     S
C1605  H1606   1.111   .     S
C1605  H1608   1.110   .     S
C1605  H1607   1.109   .     S
N1609  H1610   1.030   .     S
N1609  C1611   1.443   .     S
C1611  H1612   1.107   .     S
C1611  H1613   1.107   .     S
C1611  H1614   1.110   .     S
N1615  H1616   1.029   .     S
N1615  C1617   1.447   .     S
C1617  H1618   1.110   .     S
C1617  H1620   1.109   .     S
C1617  H1619   1.109   .     S
N1621  C1623   1.443   .     S
N1621  H1622   1.030   .     S
C1623  H1625   1.107   .     S
C1623  H1626   1.110   .     S
C1623  H1624   1.107   .     S
N1627  C1629   1.447   .     S
N1627  H1628   1.029   .     S
C1629  H1630   1.110   .     S
C1629  H1631   1.109   .     S
C1629  H1632   1.109   .     S
N1633  H1634   1.030   .     S
N1633  C1635   1.451   .     S
C1635  H1637   1.109   .     S
C1635  H1638   1.110   .     S
C1635  H1636   1.104   .     S
N1639  H1640   1.031   .     S
N1639  C1641   1.452   .     S
C1641  H1642   1.109   .     S
C1641  H1644   1.109   .     S
C1641  H1643   1.108   .     S
N1645  C1647   1.451   .     S
N1645  H1646   1.030   .     S
C1647  H1650   1.110   .     S
C1647  H1648   1.104   .     S
C1647  H1649   1.109   .     S
N1651  H1652   1.031   .     S
N1651  C1653   1.452   .     S
C1653  H1656   1.109   .     S
C1653  H1654   1.109   .     S
C1653  H1655   1.108   .     S
C1657  O1694   1.319   .     A
C1657  O1691   1.316   .     A
C1657  C1666   1.486   .     S
C1658  O1692   1.319   .     A
C1658  O1693   1.316   .     A
C1658  C1665   1.486   .     S
C1659  N1735   1.422   .     S
C1659  C1684   1.410   .     A
C1660  N1741   1.422   .     S
C1660  C1683   1.410   .     A
C1660  C444    1.405   1_556 S
C1661  C1666   1.413   .     A
C1661  N1747   1.424   .     S
C1661  C1939   1.401   1_455 S
C1662  C1665   1.418   .     A
C1662  N1753   1.427   .     S
C1662  C1802   1.405   .     S
C1663  N1759   1.424   .     S
C1663  C1665   1.413   .     A
C1663  C1799   1.401   .     S
C1664  N1765   1.426   .     S
C1664  C1666   1.418   .     A
C1664  C1938   1.405   1_455 S
C1667  N1771   1.423   .     S
C1667  N1690   1.382   .     A
C1668  N1777   1.418   .     S
C1668  N1689   1.382   .     A
C1668  C2083   1.429   .     S
C1669  N1783   1.423   .     S
C1669  N1690   1.382   .     A
C1670  N1689   1.382   .     A
C1670  N1789   1.418   .     S
C1670  C2081   1.429   .     S
C1671  C1676   1.448   .     S
C1671  O1695   1.306   .     A
C1671  O1698   1.309   .     A
C1672  O1696   1.309   .     A
C1672  C1675   1.448   .     S
C1672  O1697   1.306   .     A
C1673  C1683   1.411   .     A
C1673  N1699   1.432   .     S
C1673  C1675   1.403   .     A
C1674  C1684   1.411   .     A
C1674  C1676   1.403   .     A
C1674  N1705   1.432   .     S
C1675  C1677   1.402   .     A
C1676  C1678   1.402   .     A
C1677  C1679   1.415   .     A
C1677  N1711   1.429   .     S
C1678  C1680   1.415   .     A
C1678  N1717   1.429   .     S
C1679  C1685   1.415   .     A
C1679  C1681   1.420   .     A
C1680  C1682   1.420   .     A
C1680  C1686   1.415   .     A
C1681  C1683   1.414   .     A
C1681  C440    1.412   1_556 S
C1682  C1684   1.415   .     A
C1685  N1723   1.423   .     S
C1685  C417    1.405   1_556 S
C1686  N1729   1.423   .     S
Cu1687 Cu1688  2.740   .     S
Cu1687 N1689   2.059   .     S
Cu1687 O1693   1.999   .     S
Cu1687 O1697   1.960   .     S
Cu1687 O1691   1.999   .     S
Cu1687 O1695   1.960   .     S
Cu1688 O1692   1.999   .     S
Cu1688 O1694   1.999   .     S
Cu1688 N1690   2.059   .     S
Cu1688 O1696   1.960   .     S
Cu1688 O1698   1.960   .     S
N1699  C1701   1.446   .     S
N1699  H1700   1.032   .     S
C1701  H1703   1.107   .     S
C1701  H1702   1.108   .     S
C1701  H1704   1.106   .     S
N1705  C1707   1.446   .     S
N1705  H1706   1.032   .     S
C1707  H1710   1.106   .     S
C1707  H1708   1.108   .     S
C1707  H1709   1.107   .     S
N1711  H1712   1.030   .     S
N1711  C1713   1.447   .     S
C1713  H1715   1.112   .     S
C1713  H1716   1.109   .     S
C1713  H1714   1.110   .     S
N1717  H1718   1.030   .     S
N1717  C1719   1.447   .     S
C1719  H1721   1.112   .     S
C1719  H1722   1.109   .     S
C1719  H1720   1.110   .     S
N1723  H1724   1.027   .     S
N1723  C1725   1.447   .     S
C1725  H1727   1.111   .     S
C1725  H1728   1.111   .     S
C1725  H1726   1.110   .     S
N1729  H1730   1.027   .     S
N1729  C1731   1.447   .     S
C1731  H1732   1.111   .     S
C1731  H1733   1.110   .     S
C1731  H1734   1.111   .     S
N1735  H1736   1.028   .     S
N1735  C1737   1.448   .     S
C1737  H1740   1.110   .     S
C1737  H1739   1.109   .     S
C1737  H1738   1.111   .     S
N1741  H1742   1.028   .     S
N1741  C1743   1.448   .     S
C1743  H1744   1.111   .     S
C1743  H1746   1.110   .     S
C1743  H1745   1.109   .     S
N1747  H1748   1.030   .     S
N1747  C1749   1.443   .     S
C1749  H1750   1.107   .     S
C1749  H1751   1.107   .     S
C1749  H1752   1.110   .     S
N1753  H1754   1.029   .     S
N1753  C1755   1.447   .     S
C1755  H1756   1.110   .     S
C1755  H1758   1.109   .     S
C1755  H1757   1.109   .     S
N1759  C1761   1.443   .     S
N1759  H1760   1.030   .     S
C1761  H1763   1.107   .     S
C1761  H1764   1.110   .     S
C1761  H1762   1.107   .     S
N1765  C1767   1.447   .     S
N1765  H1766   1.029   .     S
C1767  H1768   1.110   .     S
C1767  H1769   1.109   .     S
C1767  H1770   1.109   .     S
N1771  H1772   1.030   .     S
N1771  C1773   1.451   .     S
C1773  H1775   1.109   .     S
C1773  H1776   1.110   .     S
C1773  H1774   1.104   .     S
N1777  H1778   1.031   .     S
N1777  C1779   1.452   .     S
C1779  H1780   1.109   .     S
C1779  H1782   1.109   .     S
C1779  H1781   1.108   .     S
N1783  C1785   1.451   .     S
N1783  H1784   1.030   .     S
C1785  H1788   1.110   .     S
C1785  H1786   1.104   .     S
C1785  H1787   1.109   .     S
N1789  H1790   1.031   .     S
N1789  C1791   1.452   .     S
C1791  H1794   1.109   .     S
C1791  H1792   1.109   .     S
C1791  H1793   1.108   .     S
C1795  O1832   1.319   .     A
C1795  O1829   1.316   .     A
C1795  C1804   1.486   .     S
C1796  O1830   1.319   .     A
C1796  O1831   1.316   .     A
C1796  C1803   1.486   .     S
C1797  N1873   1.422   .     S
C1797  C1822   1.410   .     A
C1798  N1879   1.422   .     S
C1798  C1821   1.410   .     A
C1798  C582    1.405   1_556 S
C1799  C1804   1.413   .     A
C1799  N1885   1.424   .     S
C1800  C1803   1.418   .     A
C1800  N1891   1.427   .     S
C1800  C1940   1.405   .     S
C1801  N1897   1.424   .     S
C1801  C1803   1.413   .     A
C1801  C1937   1.401   .     S
C1802  N1903   1.426   .     S
C1802  C1804   1.418   .     A
C1805  N1909   1.423   .     S
C1805  N1828   1.382   .     A
C1806  N1915   1.418   .     S
C1806  N1827   1.382   .     A
C1806  C2221   1.429   .     S
C1807  N1921   1.423   .     S
C1807  N1828   1.382   .     A
C1808  N1827   1.382   .     A
C1808  N1927   1.418   .     S
C1808  C2219   1.429   .     S
C1809  C1814   1.448   .     S
C1809  O1833   1.306   .     A
C1809  O1836   1.309   .     A
C1810  O1834   1.309   .     A
C1810  C1813   1.448   .     S
C1810  O1835   1.306   .     A
C1811  C1821   1.411   .     A
C1811  N1837   1.432   .     S
C1811  C1813   1.403   .     A
C1812  C1822   1.411   .     A
C1812  C1814   1.403   .     A
C1812  N1843   1.432   .     S
C1813  C1815   1.402   .     A
C1814  C1816   1.402   .     A
C1815  C1817   1.415   .     A
C1815  N1849   1.429   .     S
C1816  C1818   1.415   .     A
C1816  N1855   1.429   .     S
C1817  C1823   1.415   .     A
C1817  C1819   1.420   .     A
C1818  C1820   1.420   .     A
C1818  C1824   1.415   .     A
C1819  C1821   1.414   .     A
C1819  C578    1.412   1_556 S
C1820  C1822   1.415   .     A
C1823  N1861   1.423   .     S
C1823  C555    1.405   1_556 S
C1824  N1867   1.423   .     S
Cu1825 Cu1826  2.740   .     S
Cu1825 N1827   2.059   .     S
Cu1825 O1831   1.999   .     S
Cu1825 O1835   1.960   .     S
Cu1825 O1829   1.999   .     S
Cu1825 O1833   1.960   .     S
Cu1826 O1830   1.999   .     S
Cu1826 O1832   1.999   .     S
Cu1826 N1828   2.059   .     S
Cu1826 O1834   1.960   .     S
Cu1826 O1836   1.960   .     S
N1837  C1839   1.446   .     S
N1837  H1838   1.032   .     S
C1839  H1841   1.107   .     S
C1839  H1840   1.108   .     S
C1839  H1842   1.106   .     S
N1843  C1845   1.446   .     S
N1843  H1844   1.032   .     S
C1845  H1848   1.106   .     S
C1845  H1846   1.108   .     S
C1845  H1847   1.107   .     S
N1849  H1850   1.030   .     S
N1849  C1851   1.447   .     S
C1851  H1853   1.112   .     S
C1851  H1854   1.109   .     S
C1851  H1852   1.110   .     S
N1855  H1856   1.030   .     S
N1855  C1857   1.447   .     S
C1857  H1859   1.112   .     S
C1857  H1860   1.109   .     S
C1857  H1858   1.110   .     S
N1861  H1862   1.027   .     S
N1861  C1863   1.447   .     S
C1863  H1865   1.111   .     S
C1863  H1866   1.111   .     S
C1863  H1864   1.110   .     S
N1867  H1868   1.027   .     S
N1867  C1869   1.447   .     S
C1869  H1870   1.111   .     S
C1869  H1871   1.110   .     S
C1869  H1872   1.111   .     S
N1873  H1874   1.028   .     S
N1873  C1875   1.448   .     S
C1875  H1878   1.110   .     S
C1875  H1877   1.109   .     S
C1875  H1876   1.111   .     S
N1879  H1880   1.028   .     S
N1879  C1881   1.448   .     S
C1881  H1882   1.111   .     S
C1881  H1884   1.110   .     S
C1881  H1883   1.109   .     S
N1885  H1886   1.030   .     S
N1885  C1887   1.443   .     S
C1887  H1888   1.107   .     S
C1887  H1889   1.107   .     S
C1887  H1890   1.110   .     S
N1891  H1892   1.029   .     S
N1891  C1893   1.447   .     S
C1893  H1894   1.110   .     S
C1893  H1896   1.109   .     S
C1893  H1895   1.109   .     S
N1897  C1899   1.443   .     S
N1897  H1898   1.030   .     S
C1899  H1901   1.107   .     S
C1899  H1902   1.110   .     S
C1899  H1900   1.107   .     S
N1903  C1905   1.447   .     S
N1903  H1904   1.029   .     S
C1905  H1906   1.110   .     S
C1905  H1907   1.109   .     S
C1905  H1908   1.109   .     S
N1909  H1910   1.030   .     S
N1909  C1911   1.451   .     S
C1911  H1913   1.109   .     S
C1911  H1914   1.110   .     S
C1911  H1912   1.104   .     S
N1915  H1916   1.031   .     S
N1915  C1917   1.452   .     S
C1917  H1918   1.109   .     S
C1917  H1920   1.109   .     S
C1917  H1919   1.108   .     S
N1921  C1923   1.451   .     S
N1921  H1922   1.030   .     S
C1923  H1926   1.110   .     S
C1923  H1924   1.104   .     S
C1923  H1925   1.109   .     S
N1927  H1928   1.031   .     S
N1927  C1929   1.452   .     S
C1929  H1932   1.109   .     S
C1929  H1930   1.109   .     S
C1929  H1931   1.108   .     S
C1933  O1970   1.319   .     A
C1933  O1967   1.316   .     A
C1933  C1942   1.486   .     S
C1934  O1968   1.319   .     A
C1934  O1969   1.316   .     A
C1934  C1941   1.486   .     S
C1935  N2011   1.422   .     S
C1935  C1960   1.410   .     A
C1936  N2017   1.422   .     S
C1936  C1959   1.410   .     A
C1936  C720    1.405   1_556 S
C1937  C1942   1.413   .     A
C1937  N2023   1.424   .     S
C1938  C1941   1.418   .     A
C1938  N2029   1.427   .     S
C1938  C1664   1.405   1_655 S
C1939  N2035   1.424   .     S
C1939  C1941   1.413   .     A
C1939  C1661   1.401   1_655 S
C1940  N2041   1.426   .     S
C1940  C1942   1.418   .     A
C1943  N2047   1.423   .     S
C1943  N1966   1.382   .     A
C1944  N2053   1.418   .     S
C1944  N1965   1.382   .     A
C1944  C2359   1.429   .     S
C1945  N2059   1.423   .     S
C1945  N1966   1.382   .     A
C1946  N1965   1.382   .     A
C1946  N2065   1.418   .     S
C1946  C2357   1.429   .     S
C1947  C1952   1.448   .     S
C1947  O1971   1.306   .     A
C1947  O1974   1.309   .     A
C1948  O1972   1.309   .     A
C1948  C1951   1.448   .     S
C1948  O1973   1.306   .     A
C1949  C1959   1.411   .     A
C1949  N1975   1.432   .     S
C1949  C1951   1.403   .     A
C1950  C1960   1.411   .     A
C1950  C1952   1.403   .     A
C1950  N1981   1.432   .     S
C1951  C1953   1.402   .     A
C1952  C1954   1.402   .     A
C1953  C1955   1.415   .     A
C1953  N1987   1.429   .     S
C1954  C1956   1.415   .     A
C1954  N1993   1.429   .     S
C1955  C1961   1.415   .     A
C1955  C1957   1.420   .     A
C1956  C1958   1.420   .     A
C1956  C1962   1.415   .     A
C1957  C1959   1.414   .     A
C1957  C716    1.412   1_556 S
C1958  C1960   1.415   .     A
C1961  N1999   1.423   .     S
C1961  C693    1.405   1_556 S
C1962  N2005   1.423   .     S
Cu1963 Cu1964  2.740   .     S
Cu1963 N1965   2.059   .     S
Cu1963 O1969   1.999   .     S
Cu1963 O1973   1.960   .     S
Cu1963 O1967   1.999   .     S
Cu1963 O1971   1.960   .     S
Cu1964 O1968   1.999   .     S
Cu1964 O1970   1.999   .     S
Cu1964 N1966   2.059   .     S
Cu1964 O1972   1.960   .     S
Cu1964 O1974   1.960   .     S
N1975  C1977   1.446   .     S
N1975  H1976   1.032   .     S
C1977  H1979   1.107   .     S
C1977  H1978   1.108   .     S
C1977  H1980   1.106   .     S
N1981  C1983   1.446   .     S
N1981  H1982   1.032   .     S
C1983  H1986   1.106   .     S
C1983  H1984   1.108   .     S
C1983  H1985   1.107   .     S
N1987  H1988   1.030   .     S
N1987  C1989   1.447   .     S
C1989  H1991   1.112   .     S
C1989  H1992   1.109   .     S
C1989  H1990   1.110   .     S
N1993  H1994   1.030   .     S
N1993  C1995   1.447   .     S
C1995  H1997   1.112   .     S
C1995  H1998   1.109   .     S
C1995  H1996   1.110   .     S
N1999  H2000   1.027   .     S
N1999  C2001   1.447   .     S
C2001  H2003   1.111   .     S
C2001  H2004   1.111   .     S
C2001  H2002   1.110   .     S
N2005  H2006   1.027   .     S
N2005  C2007   1.447   .     S
C2007  H2008   1.111   .     S
C2007  H2009   1.110   .     S
C2007  H2010   1.111   .     S
N2011  H2012   1.028   .     S
N2011  C2013   1.448   .     S
C2013  H2016   1.110   .     S
C2013  H2015   1.109   .     S
C2013  H2014   1.111   .     S
N2017  H2018   1.028   .     S
N2017  C2019   1.448   .     S
C2019  H2020   1.111   .     S
C2019  H2022   1.110   .     S
C2019  H2021   1.109   .     S
N2023  H2024   1.030   .     S
N2023  C2025   1.443   .     S
C2025  H2026   1.107   .     S
C2025  H2027   1.107   .     S
C2025  H2028   1.110   .     S
N2029  H2030   1.029   .     S
N2029  C2031   1.447   .     S
C2031  H2032   1.110   .     S
C2031  H2034   1.109   .     S
C2031  H2033   1.109   .     S
N2035  C2037   1.443   .     S
N2035  H2036   1.030   .     S
C2037  H2039   1.107   .     S
C2037  H2040   1.110   .     S
C2037  H2038   1.107   .     S
N2041  C2043   1.447   .     S
N2041  H2042   1.029   .     S
C2043  H2044   1.110   .     S
C2043  H2045   1.109   .     S
C2043  H2046   1.109   .     S
N2047  H2048   1.030   .     S
N2047  C2049   1.451   .     S
C2049  H2051   1.109   .     S
C2049  H2052   1.110   .     S
C2049  H2050   1.104   .     S
N2053  H2054   1.031   .     S
N2053  C2055   1.452   .     S
C2055  H2056   1.109   .     S
C2055  H2058   1.109   .     S
C2055  H2057   1.108   .     S
N2059  C2061   1.451   .     S
N2059  H2060   1.030   .     S
C2061  H2064   1.110   .     S
C2061  H2062   1.104   .     S
C2061  H2063   1.109   .     S
N2065  H2066   1.031   .     S
N2065  C2067   1.452   .     S
C2067  H2070   1.109   .     S
C2067  H2068   1.109   .     S
C2067  H2069   1.108   .     S
C2071  O2108   1.319   .     A
C2071  O2105   1.316   .     A
C2071  C2080   1.486   .     S
C2072  O2106   1.319   .     A
C2072  O2107   1.316   .     A
C2072  C2079   1.486   .     S
C2073  N2149   1.422   .     S
C2073  C2098   1.410   .     A
C2074  N2155   1.422   .     S
C2074  C2097   1.410   .     A
C2074  C858    1.405   1_556 S
C2075  C2080   1.413   .     A
C2075  N2161   1.424   .     S
C2075  C2353   1.401   1_455 S
C2076  C2079   1.418   .     A
C2076  N2167   1.427   .     S
C2076  C2216   1.405   .     S
C2077  N2173   1.424   .     S
C2077  C2079   1.413   .     A
C2077  C2213   1.401   .     S
C2078  N2179   1.426   .     S
C2078  C2080   1.418   .     A
C2078  C2352   1.405   1_455 S
C2081  N2185   1.423   .     S
C2081  N2104   1.382   .     A
C2082  N2191   1.418   .     S
C2082  N2103   1.382   .     A
C2082  C1255   1.429   1_565 S
C2083  N2197   1.423   .     S
C2083  N2104   1.382   .     A
C2084  N2103   1.382   .     A
C2084  N2203   1.418   .     S
C2084  C1253   1.429   1_565 S
C2085  C2090   1.448   .     S
C2085  O2109   1.306   .     A
C2085  O2112   1.309   .     A
C2086  O2110   1.309   .     A
C2086  C2089   1.448   .     S
C2086  O2111   1.306   .     A
C2087  C2097   1.411   .     A
C2087  N2113   1.432   .     S
C2087  C2089   1.403   .     A
C2088  C2098   1.411   .     A
C2088  C2090   1.403   .     A
C2088  N2119   1.432   .     S
C2089  C2091   1.402   .     A
C2090  C2092   1.402   .     A
C2091  C2093   1.415   .     A
C2091  N2125   1.429   .     S
C2092  C2094   1.415   .     A
C2092  N2131   1.429   .     S
C2093  C2099   1.415   .     A
C2093  C2095   1.420   .     A
C2094  C2096   1.420   .     A
C2094  C2100   1.415   .     A
C2095  C2097   1.414   .     A
C2095  C854    1.412   1_556 S
C2096  C2098   1.415   .     A
C2099  N2137   1.423   .     S
C2099  C831    1.405   1_556 S
C2100  N2143   1.423   .     S
Cu2101 Cu2102  2.740   .     S
Cu2101 N2103   2.059   .     S
Cu2101 O2107   1.999   .     S
Cu2101 O2111   1.960   .     S
Cu2101 O2105   1.999   .     S
Cu2101 O2109   1.960   .     S
Cu2102 O2106   1.999   .     S
Cu2102 O2108   1.999   .     S
Cu2102 N2104   2.059   .     S
Cu2102 O2110   1.960   .     S
Cu2102 O2112   1.960   .     S
N2113  C2115   1.446   .     S
N2113  H2114   1.032   .     S
C2115  H2117   1.107   .     S
C2115  H2116   1.108   .     S
C2115  H2118   1.106   .     S
N2119  C2121   1.446   .     S
N2119  H2120   1.032   .     S
C2121  H2124   1.106   .     S
C2121  H2122   1.108   .     S
C2121  H2123   1.107   .     S
N2125  H2126   1.030   .     S
N2125  C2127   1.447   .     S
C2127  H2129   1.112   .     S
C2127  H2130   1.109   .     S
C2127  H2128   1.110   .     S
N2131  H2132   1.030   .     S
N2131  C2133   1.447   .     S
C2133  H2135   1.112   .     S
C2133  H2136   1.109   .     S
C2133  H2134   1.110   .     S
N2137  H2138   1.027   .     S
N2137  C2139   1.447   .     S
C2139  H2141   1.111   .     S
C2139  H2142   1.111   .     S
C2139  H2140   1.110   .     S
N2143  H2144   1.027   .     S
N2143  C2145   1.447   .     S
C2145  H2146   1.111   .     S
C2145  H2147   1.110   .     S
C2145  H2148   1.111   .     S
N2149  H2150   1.028   .     S
N2149  C2151   1.448   .     S
C2151  H2154   1.110   .     S
C2151  H2153   1.109   .     S
C2151  H2152   1.111   .     S
N2155  H2156   1.028   .     S
N2155  C2157   1.448   .     S
C2157  H2158   1.111   .     S
C2157  H2160   1.110   .     S
C2157  H2159   1.109   .     S
N2161  H2162   1.030   .     S
N2161  C2163   1.443   .     S
C2163  H2164   1.107   .     S
C2163  H2165   1.107   .     S
C2163  H2166   1.110   .     S
N2167  H2168   1.029   .     S
N2167  C2169   1.447   .     S
C2169  H2170   1.110   .     S
C2169  H2172   1.109   .     S
C2169  H2171   1.109   .     S
N2173  C2175   1.443   .     S
N2173  H2174   1.030   .     S
C2175  H2177   1.107   .     S
C2175  H2178   1.110   .     S
C2175  H2176   1.107   .     S
N2179  C2181   1.447   .     S
N2179  H2180   1.029   .     S
C2181  H2182   1.110   .     S
C2181  H2183   1.109   .     S
C2181  H2184   1.109   .     S
N2185  H2186   1.030   .     S
N2185  C2187   1.451   .     S
C2187  H2189   1.109   .     S
C2187  H2190   1.110   .     S
C2187  H2188   1.104   .     S
N2191  H2192   1.031   .     S
N2191  C2193   1.452   .     S
C2193  H2194   1.109   .     S
C2193  H2196   1.109   .     S
C2193  H2195   1.108   .     S
N2197  C2199   1.451   .     S
N2197  H2198   1.030   .     S
C2199  H2202   1.110   .     S
C2199  H2200   1.104   .     S
C2199  H2201   1.109   .     S
N2203  H2204   1.031   .     S
N2203  C2205   1.452   .     S
C2205  H2208   1.109   .     S
C2205  H2206   1.109   .     S
C2205  H2207   1.108   .     S
C2209  O2246   1.319   .     A
C2209  O2243   1.316   .     A
C2209  C2218   1.486   .     S
C2210  O2244   1.319   .     A
C2210  O2245   1.316   .     A
C2210  C2217   1.486   .     S
C2211  N2287   1.422   .     S
C2211  C2236   1.410   .     A
C2212  N2293   1.422   .     S
C2212  C2235   1.410   .     A
C2212  C996    1.405   1_556 S
C2213  C2218   1.413   .     A
C2213  N2299   1.424   .     S
C2214  C2217   1.418   .     A
C2214  N2305   1.427   .     S
C2214  C2354   1.405   .     S
C2215  N2311   1.424   .     S
C2215  C2217   1.413   .     A
C2215  C2351   1.401   .     S
C2216  N2317   1.426   .     S
C2216  C2218   1.418   .     A
C2219  N2323   1.423   .     S
C2219  N2242   1.382   .     A
C2220  N2329   1.418   .     S
C2220  N2241   1.382   .     A
C2220  C1393   1.429   1_565 S
C2221  N2335   1.423   .     S
C2221  N2242   1.382   .     A
C2222  N2241   1.382   .     A
C2222  N2341   1.418   .     S
C2222  C1391   1.429   1_565 S
C2223  C2228   1.448   .     S
C2223  O2247   1.306   .     A
C2223  O2250   1.309   .     A
C2224  O2248   1.309   .     A
C2224  C2227   1.448   .     S
C2224  O2249   1.306   .     A
C2225  C2235   1.411   .     A
C2225  N2251   1.432   .     S
C2225  C2227   1.403   .     A
C2226  C2236   1.411   .     A
C2226  C2228   1.403   .     A
C2226  N2257   1.432   .     S
C2227  C2229   1.402   .     A
C2228  C2230   1.402   .     A
C2229  C2231   1.415   .     A
C2229  N2263   1.429   .     S
C2230  C2232   1.415   .     A
C2230  N2269   1.429   .     S
C2231  C2237   1.415   .     A
C2231  C2233   1.420   .     A
C2232  C2234   1.420   .     A
C2232  C2238   1.415   .     A
C2233  C2235   1.414   .     A
C2233  C992    1.412   1_556 S
C2234  C2236   1.415   .     A
C2237  N2275   1.423   .     S
C2237  C969    1.405   1_556 S
C2238  N2281   1.423   .     S
Cu2239 Cu2240  2.740   .     S
Cu2239 N2241   2.059   .     S
Cu2239 O2245   1.999   .     S
Cu2239 O2249   1.960   .     S
Cu2239 O2243   1.999   .     S
Cu2239 O2247   1.960   .     S
Cu2240 O2244   1.999   .     S
Cu2240 O2246   1.999   .     S
Cu2240 N2242   2.059   .     S
Cu2240 O2248   1.960   .     S
Cu2240 O2250   1.960   .     S
N2251  C2253   1.446   .     S
N2251  H2252   1.032   .     S
C2253  H2255   1.107   .     S
C2253  H2254   1.108   .     S
C2253  H2256   1.106   .     S
N2257  C2259   1.446   .     S
N2257  H2258   1.032   .     S
C2259  H2262   1.106   .     S
C2259  H2260   1.108   .     S
C2259  H2261   1.107   .     S
N2263  H2264   1.030   .     S
N2263  C2265   1.447   .     S
C2265  H2267   1.112   .     S
C2265  H2268   1.109   .     S
C2265  H2266   1.110   .     S
N2269  H2270   1.030   .     S
N2269  C2271   1.447   .     S
C2271  H2273   1.112   .     S
C2271  H2274   1.109   .     S
C2271  H2272   1.110   .     S
N2275  H2276   1.027   .     S
N2275  C2277   1.447   .     S
C2277  H2279   1.111   .     S
C2277  H2280   1.111   .     S
C2277  H2278   1.110   .     S
N2281  H2282   1.027   .     S
N2281  C2283   1.447   .     S
C2283  H2284   1.111   .     S
C2283  H2285   1.110   .     S
C2283  H2286   1.111   .     S
N2287  H2288   1.028   .     S
N2287  C2289   1.448   .     S
C2289  H2292   1.110   .     S
C2289  H2291   1.109   .     S
C2289  H2290   1.111   .     S
N2293  H2294   1.028   .     S
N2293  C2295   1.448   .     S
C2295  H2296   1.111   .     S
C2295  H2298   1.110   .     S
C2295  H2297   1.109   .     S
N2299  H2300   1.030   .     S
N2299  C2301   1.443   .     S
C2301  H2302   1.107   .     S
C2301  H2303   1.107   .     S
C2301  H2304   1.110   .     S
N2305  H2306   1.029   .     S
N2305  C2307   1.447   .     S
C2307  H2308   1.110   .     S
C2307  H2310   1.109   .     S
C2307  H2309   1.109   .     S
N2311  C2313   1.443   .     S
N2311  H2312   1.030   .     S
C2313  H2315   1.107   .     S
C2313  H2316   1.110   .     S
C2313  H2314   1.107   .     S
N2317  C2319   1.447   .     S
N2317  H2318   1.029   .     S
C2319  H2320   1.110   .     S
C2319  H2321   1.109   .     S
C2319  H2322   1.109   .     S
N2323  H2324   1.030   .     S
N2323  C2325   1.451   .     S
C2325  H2327   1.109   .     S
C2325  H2328   1.110   .     S
C2325  H2326   1.104   .     S
N2329  H2330   1.031   .     S
N2329  C2331   1.452   .     S
C2331  H2332   1.109   .     S
C2331  H2334   1.109   .     S
C2331  H2333   1.108   .     S
N2335  C2337   1.451   .     S
N2335  H2336   1.030   .     S
C2337  H2340   1.110   .     S
C2337  H2338   1.104   .     S
C2337  H2339   1.109   .     S
N2341  H2342   1.031   .     S
N2341  C2343   1.452   .     S
C2343  H2346   1.109   .     S
C2343  H2344   1.109   .     S
C2343  H2345   1.108   .     S
C2347  O2384   1.319   .     A
C2347  O2381   1.316   .     A
C2347  C2356   1.486   .     S
C2348  O2382   1.319   .     A
C2348  O2383   1.316   .     A
C2348  C2355   1.486   .     S
C2349  N2425   1.422   .     S
C2349  C2374   1.410   .     A
C2350  N2431   1.422   .     S
C2350  C2373   1.410   .     A
C2350  C1134   1.405   1_556 S
C2351  C2356   1.413   .     A
C2351  N2437   1.424   .     S
C2352  C2355   1.418   .     A
C2352  N2443   1.427   .     S
C2352  C2078   1.405   1_655 S
C2353  N2449   1.424   .     S
C2353  C2355   1.413   .     A
C2353  C2075   1.401   1_655 S
C2354  N2455   1.426   .     S
C2354  C2356   1.418   .     A
C2357  N2461   1.423   .     S
C2357  N2380   1.382   .     A
C2358  N2467   1.418   .     S
C2358  N2379   1.382   .     A
C2358  C1531   1.429   1_565 S
C2359  N2473   1.423   .     S
C2359  N2380   1.382   .     A
C2360  N2379   1.382   .     A
C2360  N2479   1.418   .     S
C2360  C1529   1.429   1_565 S
C2361  C2366   1.448   .     S
C2361  O2385   1.306   .     A
C2361  O2388   1.309   .     A
C2362  O2386   1.309   .     A
C2362  C2365   1.448   .     S
C2362  O2387   1.306   .     A
C2363  C2373   1.411   .     A
C2363  N2389   1.432   .     S
C2363  C2365   1.403   .     A
C2364  C2374   1.411   .     A
C2364  C2366   1.403   .     A
C2364  N2395   1.432   .     S
C2365  C2367   1.402   .     A
C2366  C2368   1.402   .     A
C2367  C2369   1.415   .     A
C2367  N2401   1.429   .     S
C2368  C2370   1.415   .     A
C2368  N2407   1.429   .     S
C2369  C2375   1.415   .     A
C2369  C2371   1.420   .     A
C2370  C2372   1.420   .     A
C2370  C2376   1.415   .     A
C2371  C2373   1.414   .     A
C2371  C1130   1.412   1_556 S
C2372  C2374   1.415   .     A
C2375  N2413   1.423   .     S
C2375  C1107   1.405   1_556 S
C2376  N2419   1.423   .     S
Cu2377 Cu2378  2.740   .     S
Cu2377 N2379   2.059   .     S
Cu2377 O2383   1.999   .     S
Cu2377 O2387   1.960   .     S
Cu2377 O2381   1.999   .     S
Cu2377 O2385   1.960   .     S
Cu2378 O2382   1.999   .     S
Cu2378 O2384   1.999   .     S
Cu2378 N2380   2.059   .     S
Cu2378 O2386   1.960   .     S
Cu2378 O2388   1.960   .     S
N2389  C2391   1.446   .     S
N2389  H2390   1.032   .     S
C2391  H2393   1.107   .     S
C2391  H2392   1.108   .     S
C2391  H2394   1.106   .     S
N2395  C2397   1.446   .     S
N2395  H2396   1.032   .     S
C2397  H2400   1.106   .     S
C2397  H2398   1.108   .     S
C2397  H2399   1.107   .     S
N2401  H2402   1.030   .     S
N2401  C2403   1.447   .     S
C2403  H2405   1.112   .     S
C2403  H2406   1.109   .     S
C2403  H2404   1.110   .     S
N2407  H2408   1.030   .     S
N2407  C2409   1.447   .     S
C2409  H2411   1.112   .     S
C2409  H2412   1.109   .     S
C2409  H2410   1.110   .     S
N2413  H2414   1.027   .     S
N2413  C2415   1.447   .     S
C2415  H2417   1.111   .     S
C2415  H2418   1.111   .     S
C2415  H2416   1.110   .     S
N2419  H2420   1.027   .     S
N2419  C2421   1.447   .     S
C2421  H2422   1.111   .     S
C2421  H2423   1.110   .     S
C2421  H2424   1.111   .     S
N2425  H2426   1.028   .     S
N2425  C2427   1.448   .     S
C2427  H2430   1.110   .     S
C2427  H2429   1.109   .     S
C2427  H2428   1.111   .     S
N2431  H2432   1.028   .     S
N2431  C2433   1.448   .     S
C2433  H2434   1.111   .     S
C2433  H2436   1.110   .     S
C2433  H2435   1.109   .     S
N2437  H2438   1.030   .     S
N2437  C2439   1.443   .     S
C2439  H2440   1.107   .     S
C2439  H2441   1.107   .     S
C2439  H2442   1.110   .     S
N2443  H2444   1.029   .     S
N2443  C2445   1.447   .     S
C2445  H2446   1.110   .     S
C2445  H2448   1.109   .     S
C2445  H2447   1.109   .     S
N2449  C2451   1.443   .     S
N2449  H2450   1.030   .     S
C2451  H2453   1.107   .     S
C2451  H2454   1.110   .     S
C2451  H2452   1.107   .     S
N2455  C2457   1.447   .     S
N2455  H2456   1.029   .     S
C2457  H2458   1.110   .     S
C2457  H2459   1.109   .     S
C2457  H2460   1.109   .     S
N2461  H2462   1.030   .     S
N2461  C2463   1.451   .     S
C2463  H2465   1.109   .     S
C2463  H2466   1.110   .     S
C2463  H2464   1.104   .     S
N2467  H2468   1.031   .     S
N2467  C2469   1.452   .     S
C2469  H2470   1.109   .     S
C2469  H2472   1.109   .     S
C2469  H2471   1.108   .     S
N2473  C2475   1.451   .     S
N2473  H2474   1.030   .     S
C2475  H2478   1.110   .     S
C2475  H2476   1.104   .     S
C2475  H2477   1.109   .     S
N2479  H2480   1.031   .     S
N2479  C2481   1.452   .     S
C2481  H2484   1.109   .     S
C2481  H2482   1.109   .     S
C2481  H2483   1.108   .     S
