data_str_m2_o2_o10_pcu_sym.131
_audit_creation_date              2020-01-03
_audit_creation_method            'Materials Studio'
_symmetry_space_group_name_H-M    'P1'
_symmetry_Int_Tables_number       1
_symmetry_cell_setting            triclinic
loop_
_symmetry_equiv_pos_as_xyz
  x,y,z
_cell_length_a                    26.3072
_cell_length_b                    30.2270
_cell_length_c                    27.7171
_cell_angle_alpha                 89.8825
_cell_angle_beta                  97.3926
_cell_angle_gamma                 90.1737
loop_
_atom_site_label
_atom_site_type_symbol
_atom_site_fract_x
_atom_site_fract_y
_atom_site_fract_z
_atom_site_U_iso_or_equiv
_atom_site_adp_type
_atom_site_occupancy
C1     C     0.16632   0.16494   0.25002   0.00000  Uiso   1.00
C2     C     0.16639   0.33506   0.24991   0.00000  Uiso   1.00
C3     C     0.21028   0.26592   0.05940   0.00000  Uiso   1.00
C4     C     0.15178   0.21124   0.44423   0.00000  Uiso   1.00
C5     C     0.20788   0.26667   0.11003   0.00000  Uiso   1.00
C6     C     0.15087   0.21316   0.39318   0.00000  Uiso   1.00
C7     C     0.12592   0.23350   0.09931   0.00000  Uiso   1.00
C8     C     0.18276   0.28626   0.39766   0.00000  Uiso   1.00
C9     C     0.12555   0.23353   0.04855   0.00000  Uiso   1.00
C10    C     0.18282   0.28655   0.44837   0.00000  Uiso   1.00
C11    C     0.16805   0.24939   0.02750   0.00000  Uiso   1.00
C12    C     0.16763   0.24885   0.47284   0.00000  Uiso   1.00
C13    C     0.06813   0.25277   0.23797   0.00000  Uiso   1.00
C14    C     0.26520   0.24971   0.26221   0.00000  Uiso   1.00
C15    C     0.01362   0.26200   0.23368   0.00000  Uiso   1.00
C16    C     0.32001   0.24512   0.26821   0.00000  Uiso   1.00
C17    C     0.13953   0.04814   0.28649   0.00000  Uiso   1.00
C18    C     0.14008   0.45178   0.20683   0.00000  Uiso   1.00
C19    C     0.14303   0.09428   0.28686   0.00000  Uiso   1.00
C20    C     0.14365   0.40566   0.20727   0.00000  Uiso   1.00
C21    C     0.16453   0.11672   0.25007   0.00000  Uiso   1.00
C22    C     0.16461   0.38328   0.24947   0.00000  Uiso   1.00
C23    C     0.18362   0.09294   0.21311   0.00000  Uiso   1.00
C24    C     0.18312   0.40712   0.29129   0.00000  Uiso   1.00
C25    C     0.18187   0.04704   0.21322   0.00000  Uiso   1.00
C26    C     0.18132   0.45301   0.29080   0.00000  Uiso   1.00
C27    C     0.15970   0.02429   0.24947   0.00000  Uiso   1.00
C28    C     0.15969   0.47569   0.24897   0.00000  Uiso   1.00
Cu29   Cu    0.16667   0.25000   0.29821   0.00000  Uiso   1.00
Cu30   Cu    0.16667   0.25001   0.20178   0.00000  Uiso   1.00
H31    H     0.12761   0.11267   0.31518   0.00000  Uiso   1.00
H32    H     0.12874   0.38726   0.17499   0.00000  Uiso   1.00
H33    H     0.20074   0.10981   0.18466   0.00000  Uiso   1.00
H34    H     0.19983   0.39030   0.32406   0.00000  Uiso   1.00
N35    N     0.16667   0.25001   0.12934   0.00000  Uiso   1.00
N36    N     0.16667   0.24999   0.37065   0.00000  Uiso   1.00
O37    O     0.16667   0.18573   0.29071   0.00000  Uiso   1.00
O38    O     0.16666   0.31428   0.20928   0.00000  Uiso   1.00
O39    O     0.16667   0.18573   0.20928   0.00000  Uiso   1.00
O40    O     0.16666   0.31427   0.29072   0.00000  Uiso   1.00
O41    O     0.09161   0.25000   0.28132   0.00000  Uiso   1.00
O42    O     0.24172   0.25001   0.21868   0.00000  Uiso   1.00
O43    O     0.09161   0.25000   0.19988   0.00000  Uiso   1.00
O44    O     0.24172   0.25000   0.30011   0.00000  Uiso   1.00
N45    N     0.32372   0.29369   0.19865   0.00000  Uiso   1.00
H46    H     0.30028   0.31642   0.21255   0.00000  Uiso   1.00
C47    C     0.01890   0.31230   0.16210   0.00000  Uiso   1.00
H48    H     0.32782   0.33646   0.13958   0.00000  Uiso   1.00
H49    H     0.02936   0.28595   0.13737   0.00000  Uiso   1.00
H50    H     0.05351   0.32998   0.17957   0.00000  Uiso   1.00
N51    N     0.00930   0.21658   0.30626   0.00000  Uiso   1.00
H52    H     0.32373   0.18670   0.30723   0.00000  Uiso   1.00
C53    C     0.01830   0.23686   0.35395   0.00000  Uiso   1.00
H54    H     0.04036   0.21373   0.37976   0.00000  Uiso   1.00
H55    H     0.31487   0.24415   0.36792   0.00000  Uiso   1.00
H56    H     0.04067   0.26798   0.35270   0.00000  Uiso   1.00
N57    N     0.11615   0.02616   0.32354   0.00000  Uiso   1.00
H58    H     0.11858   0.04348   0.35581   0.00000  Uiso   1.00
C59    C     0.06474   0.01010   0.30828   0.00000  Uiso   1.00
H60    H     0.04972   0.49365   0.33942   0.00000  Uiso   1.00
H61    H     0.06461   0.48539   0.27873   0.00000  Uiso   1.00
H62    H     0.03903   0.03804   0.29560   0.00000  Uiso   1.00
N63    N     0.11716   0.47369   0.16392   0.00000  Uiso   1.00
H64    H     0.12009   0.45647   0.13228   0.00000  Uiso   1.00
C65    C     0.06557   0.48930   0.16606   0.00000  Uiso   1.00
H66    H     0.05093   0.00575   0.13119   0.00000  Uiso   1.00
H67    H     0.06495   0.01390   0.19562   0.00000  Uiso   1.00
H68    H     0.03986   0.46111   0.17204   0.00000  Uiso   1.00
H69    H     0.19830   0.02917   0.18516   0.00000  Uiso   1.00
H70    H     0.19732   0.47093   0.32306   0.00000  Uiso   1.00
N71    N     0.25544   0.28130   0.04135   0.00000  Uiso   1.00
H72    H     0.27439   0.30598   0.06218   0.00000  Uiso   1.00
C73    C     0.28985   0.24659   0.03028   0.00000  Uiso   1.00
H74    H     0.32306   0.26141   0.01509   0.00000  Uiso   1.00
H75    H     0.27018   0.22353   0.00280   0.00000  Uiso   1.00
H76    H     0.30424   0.22795   0.06387   0.00000  Uiso   1.00
N77    N     0.13729   0.17127   0.46611   0.00000  Uiso   1.00
H78    H     0.11104   0.15260   0.44388   0.00000  Uiso   1.00
C79    C     0.17991   0.14495   0.48824   0.00000  Uiso   1.00
H80    H     0.16514   0.11523   0.00558   0.00000  Uiso   1.00
H81    H     0.20395   0.16406   0.01683   0.00000  Uiso   1.00
H82    H     0.20379   0.13406   0.46019   0.00000  Uiso   1.00
H83    H     0.23973   0.28007   0.13398   0.00000  Uiso   1.00
H84    H     0.13789   0.18457   0.37167   0.00000  Uiso   1.00
H85    H     0.09320   0.22029   0.11450   0.00000  Uiso   1.00
H86    H     0.19561   0.31542   0.38010   0.00000  Uiso   1.00
H87    H     0.09190   0.22128   0.02586   0.00000  Uiso   1.00
H88    H     0.19450   0.31642   0.46832   0.00000  Uiso   1.00
C89    C     0.49965   0.16494   0.25002   0.00000  Uiso   1.00
C90    C     0.49972   0.33506   0.24991   0.00000  Uiso   1.00
C91    C     0.54362   0.26592   0.05940   0.00000  Uiso   1.00
C92    C     0.48511   0.21124   0.44423   0.00000  Uiso   1.00
C93    C     0.54121   0.26667   0.11003   0.00000  Uiso   1.00
C94    C     0.48420   0.21316   0.39318   0.00000  Uiso   1.00
C95    C     0.45925   0.23350   0.09931   0.00000  Uiso   1.00
C96    C     0.51610   0.28626   0.39766   0.00000  Uiso   1.00
C97    C     0.45888   0.23353   0.04855   0.00000  Uiso   1.00
C98    C     0.51615   0.28655   0.44837   0.00000  Uiso   1.00
C99    C     0.50139   0.24939   0.02750   0.00000  Uiso   1.00
C100   C     0.50096   0.24885   0.47284   0.00000  Uiso   1.00
C101   C     0.40146   0.25277   0.23797   0.00000  Uiso   1.00
C102   C     0.59854   0.24971   0.26221   0.00000  Uiso   1.00
C103   C     0.34696   0.26200   0.23368   0.00000  Uiso   1.00
C104   C     0.65334   0.24512   0.26821   0.00000  Uiso   1.00
C105   C     0.47286   0.04814   0.28649   0.00000  Uiso   1.00
C106   C     0.47342   0.45178   0.20683   0.00000  Uiso   1.00
C107   C     0.47636   0.09428   0.28686   0.00000  Uiso   1.00
C108   C     0.47699   0.40566   0.20727   0.00000  Uiso   1.00
C109   C     0.49787   0.11672   0.25007   0.00000  Uiso   1.00
C110   C     0.49794   0.38328   0.24947   0.00000  Uiso   1.00
C111   C     0.51695   0.09294   0.21311   0.00000  Uiso   1.00
C112   C     0.51645   0.40712   0.29129   0.00000  Uiso   1.00
C113   C     0.51520   0.04704   0.21322   0.00000  Uiso   1.00
C114   C     0.51466   0.45301   0.29080   0.00000  Uiso   1.00
C115   C     0.49303   0.02429   0.24947   0.00000  Uiso   1.00
C116   C     0.49302   0.47569   0.24897   0.00000  Uiso   1.00
Cu117  Cu    0.50000   0.25000   0.29821   0.00000  Uiso   1.00
Cu118  Cu    0.50000   0.25001   0.20178   0.00000  Uiso   1.00
H119   H     0.46094   0.11267   0.31518   0.00000  Uiso   1.00
H120   H     0.46208   0.38726   0.17499   0.00000  Uiso   1.00
H121   H     0.53408   0.10981   0.18466   0.00000  Uiso   1.00
H122   H     0.53316   0.39030   0.32406   0.00000  Uiso   1.00
N123   N     0.50000   0.25001   0.12934   0.00000  Uiso   1.00
N124   N     0.50000   0.24999   0.37065   0.00000  Uiso   1.00
O125   O     0.50000   0.18573   0.29071   0.00000  Uiso   1.00
O126   O     0.50000   0.31428   0.20928   0.00000  Uiso   1.00
O127   O     0.50000   0.18573   0.20928   0.00000  Uiso   1.00
O128   O     0.50000   0.31427   0.29072   0.00000  Uiso   1.00
O129   O     0.42495   0.25000   0.28132   0.00000  Uiso   1.00
O130   O     0.57505   0.25001   0.21868   0.00000  Uiso   1.00
O131   O     0.42495   0.25000   0.19988   0.00000  Uiso   1.00
O132   O     0.57505   0.25000   0.30011   0.00000  Uiso   1.00
N133   N     0.65705   0.29369   0.19865   0.00000  Uiso   1.00
H134   H     0.63361   0.31642   0.21255   0.00000  Uiso   1.00
C135   C     0.35223   0.31230   0.16210   0.00000  Uiso   1.00
H136   H     0.66115   0.33646   0.13958   0.00000  Uiso   1.00
H137   H     0.36270   0.28595   0.13737   0.00000  Uiso   1.00
H138   H     0.38684   0.32998   0.17957   0.00000  Uiso   1.00
N139   N     0.34263   0.21658   0.30626   0.00000  Uiso   1.00
H140   H     0.65706   0.18670   0.30723   0.00000  Uiso   1.00
C141   C     0.35164   0.23686   0.35395   0.00000  Uiso   1.00
H142   H     0.37370   0.21373   0.37976   0.00000  Uiso   1.00
H143   H     0.64821   0.24415   0.36792   0.00000  Uiso   1.00
H144   H     0.37401   0.26798   0.35270   0.00000  Uiso   1.00
N145   N     0.44948   0.02616   0.32354   0.00000  Uiso   1.00
H146   H     0.45191   0.04348   0.35581   0.00000  Uiso   1.00
C147   C     0.39807   0.01010   0.30828   0.00000  Uiso   1.00
H148   H     0.38306   0.49365   0.33942   0.00000  Uiso   1.00
H149   H     0.39794   0.48539   0.27873   0.00000  Uiso   1.00
H150   H     0.37236   0.03804   0.29560   0.00000  Uiso   1.00
N151   N     0.45049   0.47369   0.16392   0.00000  Uiso   1.00
H152   H     0.45342   0.45647   0.13228   0.00000  Uiso   1.00
C153   C     0.39891   0.48930   0.16606   0.00000  Uiso   1.00
H154   H     0.38426   0.00575   0.13119   0.00000  Uiso   1.00
H155   H     0.39828   0.01390   0.19562   0.00000  Uiso   1.00
H156   H     0.37319   0.46111   0.17204   0.00000  Uiso   1.00
H157   H     0.53163   0.02917   0.18516   0.00000  Uiso   1.00
H158   H     0.53065   0.47093   0.32306   0.00000  Uiso   1.00
N159   N     0.58877   0.28130   0.04135   0.00000  Uiso   1.00
H160   H     0.60773   0.30598   0.06218   0.00000  Uiso   1.00
C161   C     0.62318   0.24659   0.03028   0.00000  Uiso   1.00
H162   H     0.65640   0.26141   0.01509   0.00000  Uiso   1.00
H163   H     0.60351   0.22353   0.00280   0.00000  Uiso   1.00
H164   H     0.63757   0.22795   0.06387   0.00000  Uiso   1.00
N165   N     0.47062   0.17127   0.46611   0.00000  Uiso   1.00
H166   H     0.44437   0.15260   0.44388   0.00000  Uiso   1.00
C167   C     0.51324   0.14495   0.48824   0.00000  Uiso   1.00
H168   H     0.49847   0.11523   0.00558   0.00000  Uiso   1.00
H169   H     0.53728   0.16406   0.01683   0.00000  Uiso   1.00
H170   H     0.53713   0.13406   0.46019   0.00000  Uiso   1.00
H171   H     0.57307   0.28007   0.13398   0.00000  Uiso   1.00
H172   H     0.47123   0.18457   0.37167   0.00000  Uiso   1.00
H173   H     0.42653   0.22029   0.11450   0.00000  Uiso   1.00
H174   H     0.52895   0.31542   0.38010   0.00000  Uiso   1.00
H175   H     0.42523   0.22128   0.02586   0.00000  Uiso   1.00
H176   H     0.52783   0.31642   0.46832   0.00000  Uiso   1.00
C177   C     0.83299   0.16494   0.25002   0.00000  Uiso   1.00
C178   C     0.83305   0.33506   0.24991   0.00000  Uiso   1.00
C179   C     0.87695   0.26592   0.05940   0.00000  Uiso   1.00
C180   C     0.81845   0.21124   0.44423   0.00000  Uiso   1.00
C181   C     0.87454   0.26667   0.11003   0.00000  Uiso   1.00
C182   C     0.81754   0.21316   0.39318   0.00000  Uiso   1.00
C183   C     0.79258   0.23350   0.09931   0.00000  Uiso   1.00
C184   C     0.84943   0.28626   0.39766   0.00000  Uiso   1.00
C185   C     0.79221   0.23353   0.04855   0.00000  Uiso   1.00
C186   C     0.84948   0.28655   0.44837   0.00000  Uiso   1.00
C187   C     0.83472   0.24939   0.02750   0.00000  Uiso   1.00
C188   C     0.83429   0.24885   0.47284   0.00000  Uiso   1.00
C189   C     0.73479   0.25277   0.23797   0.00000  Uiso   1.00
C190   C     0.93187   0.24971   0.26221   0.00000  Uiso   1.00
C191   C     0.68029   0.26200   0.23368   0.00000  Uiso   1.00
C192   C     0.98667   0.24512   0.26821   0.00000  Uiso   1.00
C193   C     0.80620   0.04814   0.28649   0.00000  Uiso   1.00
C194   C     0.80675   0.45178   0.20683   0.00000  Uiso   1.00
C195   C     0.80970   0.09428   0.28686   0.00000  Uiso   1.00
C196   C     0.81032   0.40566   0.20727   0.00000  Uiso   1.00
C197   C     0.83120   0.11672   0.25007   0.00000  Uiso   1.00
C198   C     0.83127   0.38328   0.24947   0.00000  Uiso   1.00
C199   C     0.85029   0.09294   0.21311   0.00000  Uiso   1.00
C200   C     0.84978   0.40712   0.29129   0.00000  Uiso   1.00
C201   C     0.84853   0.04704   0.21322   0.00000  Uiso   1.00
C202   C     0.84799   0.45301   0.29080   0.00000  Uiso   1.00
C203   C     0.82637   0.02429   0.24947   0.00000  Uiso   1.00
C204   C     0.82636   0.47569   0.24897   0.00000  Uiso   1.00
Cu205  Cu    0.83333   0.25000   0.29821   0.00000  Uiso   1.00
Cu206  Cu    0.83333   0.25001   0.20178   0.00000  Uiso   1.00
H207   H     0.79428   0.11267   0.31518   0.00000  Uiso   1.00
H208   H     0.79541   0.38726   0.17499   0.00000  Uiso   1.00
H209   H     0.86741   0.10981   0.18466   0.00000  Uiso   1.00
H210   H     0.86649   0.39030   0.32406   0.00000  Uiso   1.00
N211   N     0.83333   0.25001   0.12934   0.00000  Uiso   1.00
N212   N     0.83333   0.24999   0.37065   0.00000  Uiso   1.00
O213   O     0.83334   0.18573   0.29071   0.00000  Uiso   1.00
O214   O     0.83333   0.31428   0.20928   0.00000  Uiso   1.00
O215   O     0.83334   0.18573   0.20928   0.00000  Uiso   1.00
O216   O     0.83333   0.31427   0.29072   0.00000  Uiso   1.00
O217   O     0.75828   0.25000   0.28132   0.00000  Uiso   1.00
O218   O     0.90839   0.25001   0.21868   0.00000  Uiso   1.00
O219   O     0.75828   0.25000   0.19988   0.00000  Uiso   1.00
O220   O     0.90839   0.25000   0.30011   0.00000  Uiso   1.00
N221   N     0.99038   0.29369   0.19865   0.00000  Uiso   1.00
H222   H     0.96694   0.31642   0.21255   0.00000  Uiso   1.00
C223   C     0.68557   0.31230   0.16210   0.00000  Uiso   1.00
H224   H     0.99449   0.33646   0.13958   0.00000  Uiso   1.00
H225   H     0.69603   0.28595   0.13737   0.00000  Uiso   1.00
H226   H     0.72017   0.32998   0.17957   0.00000  Uiso   1.00
N227   N     0.67597   0.21658   0.30626   0.00000  Uiso   1.00
H228   H     0.99039   0.18670   0.30723   0.00000  Uiso   1.00
C229   C     0.68497   0.23686   0.35395   0.00000  Uiso   1.00
H230   H     0.70703   0.21373   0.37976   0.00000  Uiso   1.00
H231   H     0.98154   0.24415   0.36792   0.00000  Uiso   1.00
H232   H     0.70734   0.26798   0.35270   0.00000  Uiso   1.00
N233   N     0.78281   0.02616   0.32354   0.00000  Uiso   1.00
H234   H     0.78525   0.04348   0.35581   0.00000  Uiso   1.00
C235   C     0.73141   0.01010   0.30828   0.00000  Uiso   1.00
H236   H     0.71639   0.49365   0.33942   0.00000  Uiso   1.00
H237   H     0.73128   0.48539   0.27873   0.00000  Uiso   1.00
H238   H     0.70569   0.03804   0.29560   0.00000  Uiso   1.00
N239   N     0.78383   0.47369   0.16392   0.00000  Uiso   1.00
H240   H     0.78675   0.45647   0.13228   0.00000  Uiso   1.00
C241   C     0.73224   0.48930   0.16606   0.00000  Uiso   1.00
H242   H     0.71760   0.00575   0.13119   0.00000  Uiso   1.00
H243   H     0.73161   0.01390   0.19562   0.00000  Uiso   1.00
H244   H     0.70653   0.46111   0.17204   0.00000  Uiso   1.00
H245   H     0.86496   0.02917   0.18516   0.00000  Uiso   1.00
H246   H     0.86399   0.47093   0.32306   0.00000  Uiso   1.00
N247   N     0.92211   0.28130   0.04135   0.00000  Uiso   1.00
H248   H     0.94106   0.30598   0.06218   0.00000  Uiso   1.00
C249   C     0.95651   0.24659   0.03028   0.00000  Uiso   1.00
H250   H     0.98973   0.26141   0.01509   0.00000  Uiso   1.00
H251   H     0.93684   0.22353   0.00280   0.00000  Uiso   1.00
H252   H     0.97090   0.22795   0.06387   0.00000  Uiso   1.00
N253   N     0.80396   0.17127   0.46611   0.00000  Uiso   1.00
H254   H     0.77770   0.15260   0.44388   0.00000  Uiso   1.00
C255   C     0.84658   0.14495   0.48824   0.00000  Uiso   1.00
H256   H     0.83181   0.11523   0.00558   0.00000  Uiso   1.00
H257   H     0.87061   0.16406   0.01683   0.00000  Uiso   1.00
H258   H     0.87046   0.13406   0.46019   0.00000  Uiso   1.00
H259   H     0.90640   0.28007   0.13398   0.00000  Uiso   1.00
H260   H     0.80456   0.18457   0.37167   0.00000  Uiso   1.00
H261   H     0.75986   0.22029   0.11450   0.00000  Uiso   1.00
H262   H     0.86228   0.31542   0.38010   0.00000  Uiso   1.00
H263   H     0.75857   0.22128   0.02586   0.00000  Uiso   1.00
H264   H     0.86116   0.31642   0.46832   0.00000  Uiso   1.00
C265   C     0.16632   0.66494   0.25002   0.00000  Uiso   1.00
C266   C     0.16639   0.83506   0.24991   0.00000  Uiso   1.00
C267   C     0.21028   0.76592   0.05940   0.00000  Uiso   1.00
C268   C     0.15178   0.71124   0.44423   0.00000  Uiso   1.00
C269   C     0.20788   0.76667   0.11003   0.00000  Uiso   1.00
C270   C     0.15087   0.71316   0.39318   0.00000  Uiso   1.00
C271   C     0.12592   0.73350   0.09931   0.00000  Uiso   1.00
C272   C     0.18276   0.78626   0.39766   0.00000  Uiso   1.00
C273   C     0.12555   0.73353   0.04855   0.00000  Uiso   1.00
C274   C     0.18282   0.78655   0.44837   0.00000  Uiso   1.00
C275   C     0.16805   0.74939   0.02750   0.00000  Uiso   1.00
C276   C     0.16763   0.74885   0.47284   0.00000  Uiso   1.00
C277   C     0.06813   0.75277   0.23797   0.00000  Uiso   1.00
C278   C     0.26520   0.74971   0.26221   0.00000  Uiso   1.00
C279   C     0.01362   0.76200   0.23368   0.00000  Uiso   1.00
C280   C     0.32001   0.74512   0.26821   0.00000  Uiso   1.00
C281   C     0.13953   0.54814   0.28649   0.00000  Uiso   1.00
C282   C     0.14008   0.95178   0.20683   0.00000  Uiso   1.00
C283   C     0.14303   0.59428   0.28686   0.00000  Uiso   1.00
C284   C     0.14365   0.90566   0.20727   0.00000  Uiso   1.00
C285   C     0.16453   0.61672   0.25007   0.00000  Uiso   1.00
C286   C     0.16461   0.88328   0.24947   0.00000  Uiso   1.00
C287   C     0.18362   0.59294   0.21311   0.00000  Uiso   1.00
C288   C     0.18312   0.90712   0.29129   0.00000  Uiso   1.00
C289   C     0.18187   0.54704   0.21322   0.00000  Uiso   1.00
C290   C     0.18132   0.95301   0.29080   0.00000  Uiso   1.00
C291   C     0.15970   0.52429   0.24947   0.00000  Uiso   1.00
C292   C     0.15969   0.97569   0.24897   0.00000  Uiso   1.00
Cu293  Cu    0.16667   0.75000   0.29821   0.00000  Uiso   1.00
Cu294  Cu    0.16667   0.75001   0.20178   0.00000  Uiso   1.00
H295   H     0.12761   0.61267   0.31518   0.00000  Uiso   1.00
H296   H     0.12874   0.88726   0.17499   0.00000  Uiso   1.00
H297   H     0.20074   0.60981   0.18466   0.00000  Uiso   1.00
H298   H     0.19983   0.89030   0.32406   0.00000  Uiso   1.00
N299   N     0.16667   0.75001   0.12934   0.00000  Uiso   1.00
N300   N     0.16667   0.74999   0.37065   0.00000  Uiso   1.00
O301   O     0.16667   0.68573   0.29071   0.00000  Uiso   1.00
O302   O     0.16666   0.81428   0.20928   0.00000  Uiso   1.00
O303   O     0.16667   0.68573   0.20928   0.00000  Uiso   1.00
O304   O     0.16666   0.81427   0.29072   0.00000  Uiso   1.00
O305   O     0.09161   0.75000   0.28132   0.00000  Uiso   1.00
O306   O     0.24172   0.75001   0.21868   0.00000  Uiso   1.00
O307   O     0.09161   0.75000   0.19988   0.00000  Uiso   1.00
O308   O     0.24172   0.75000   0.30011   0.00000  Uiso   1.00
N309   N     0.32372   0.79369   0.19865   0.00000  Uiso   1.00
H310   H     0.30028   0.81642   0.21255   0.00000  Uiso   1.00
C311   C     0.01890   0.81230   0.16210   0.00000  Uiso   1.00
H312   H     0.32782   0.83646   0.13958   0.00000  Uiso   1.00
H313   H     0.02936   0.78595   0.13737   0.00000  Uiso   1.00
H314   H     0.05351   0.82998   0.17957   0.00000  Uiso   1.00
N315   N     0.00930   0.71658   0.30626   0.00000  Uiso   1.00
H316   H     0.32373   0.68670   0.30723   0.00000  Uiso   1.00
C317   C     0.01830   0.73686   0.35395   0.00000  Uiso   1.00
H318   H     0.04036   0.71373   0.37976   0.00000  Uiso   1.00
H319   H     0.31487   0.74415   0.36792   0.00000  Uiso   1.00
H320   H     0.04067   0.76798   0.35270   0.00000  Uiso   1.00
N321   N     0.11615   0.52616   0.32354   0.00000  Uiso   1.00
H322   H     0.11858   0.54348   0.35581   0.00000  Uiso   1.00
C323   C     0.06474   0.51010   0.30828   0.00000  Uiso   1.00
H324   H     0.04972   0.99365   0.33942   0.00000  Uiso   1.00
H325   H     0.06461   0.98539   0.27873   0.00000  Uiso   1.00
H326   H     0.03903   0.53804   0.29560   0.00000  Uiso   1.00
N327   N     0.11716   0.97369   0.16392   0.00000  Uiso   1.00
H328   H     0.12009   0.95647   0.13228   0.00000  Uiso   1.00
C329   C     0.06557   0.98930   0.16606   0.00000  Uiso   1.00
H330   H     0.05093   0.50575   0.13119   0.00000  Uiso   1.00
H331   H     0.06495   0.51390   0.19562   0.00000  Uiso   1.00
H332   H     0.03986   0.96111   0.17204   0.00000  Uiso   1.00
H333   H     0.19830   0.52917   0.18516   0.00000  Uiso   1.00
H334   H     0.19732   0.97093   0.32306   0.00000  Uiso   1.00
N335   N     0.25544   0.78130   0.04135   0.00000  Uiso   1.00
H336   H     0.27439   0.80598   0.06218   0.00000  Uiso   1.00
C337   C     0.28985   0.74659   0.03028   0.00000  Uiso   1.00
H338   H     0.32306   0.76141   0.01509   0.00000  Uiso   1.00
H339   H     0.27018   0.72353   0.00280   0.00000  Uiso   1.00
H340   H     0.30424   0.72795   0.06387   0.00000  Uiso   1.00
N341   N     0.13729   0.67127   0.46611   0.00000  Uiso   1.00
H342   H     0.11104   0.65260   0.44388   0.00000  Uiso   1.00
C343   C     0.17991   0.64495   0.48824   0.00000  Uiso   1.00
H344   H     0.16514   0.61523   0.00558   0.00000  Uiso   1.00
H345   H     0.20395   0.66406   0.01683   0.00000  Uiso   1.00
H346   H     0.20379   0.63406   0.46019   0.00000  Uiso   1.00
H347   H     0.23973   0.78007   0.13398   0.00000  Uiso   1.00
H348   H     0.13789   0.68457   0.37167   0.00000  Uiso   1.00
H349   H     0.09320   0.72029   0.11450   0.00000  Uiso   1.00
H350   H     0.19561   0.81542   0.38010   0.00000  Uiso   1.00
H351   H     0.09190   0.72128   0.02586   0.00000  Uiso   1.00
H352   H     0.19450   0.81642   0.46832   0.00000  Uiso   1.00
C353   C     0.49965   0.66494   0.25002   0.00000  Uiso   1.00
C354   C     0.49972   0.83506   0.24991   0.00000  Uiso   1.00
C355   C     0.54362   0.76592   0.05940   0.00000  Uiso   1.00
C356   C     0.48511   0.71124   0.44423   0.00000  Uiso   1.00
C357   C     0.54121   0.76667   0.11003   0.00000  Uiso   1.00
C358   C     0.48420   0.71316   0.39318   0.00000  Uiso   1.00
C359   C     0.45925   0.73350   0.09931   0.00000  Uiso   1.00
C360   C     0.51610   0.78626   0.39766   0.00000  Uiso   1.00
C361   C     0.45888   0.73353   0.04855   0.00000  Uiso   1.00
C362   C     0.51615   0.78655   0.44837   0.00000  Uiso   1.00
C363   C     0.50139   0.74939   0.02750   0.00000  Uiso   1.00
C364   C     0.50096   0.74885   0.47284   0.00000  Uiso   1.00
C365   C     0.40146   0.75277   0.23797   0.00000  Uiso   1.00
C366   C     0.59854   0.74971   0.26221   0.00000  Uiso   1.00
C367   C     0.34696   0.76200   0.23368   0.00000  Uiso   1.00
C368   C     0.65334   0.74512   0.26821   0.00000  Uiso   1.00
C369   C     0.47286   0.54814   0.28649   0.00000  Uiso   1.00
C370   C     0.47342   0.95178   0.20683   0.00000  Uiso   1.00
C371   C     0.47636   0.59428   0.28686   0.00000  Uiso   1.00
C372   C     0.47699   0.90566   0.20727   0.00000  Uiso   1.00
C373   C     0.49787   0.61672   0.25007   0.00000  Uiso   1.00
C374   C     0.49794   0.88328   0.24947   0.00000  Uiso   1.00
C375   C     0.51695   0.59294   0.21311   0.00000  Uiso   1.00
C376   C     0.51645   0.90712   0.29129   0.00000  Uiso   1.00
C377   C     0.51520   0.54704   0.21322   0.00000  Uiso   1.00
C378   C     0.51466   0.95301   0.29080   0.00000  Uiso   1.00
C379   C     0.49303   0.52429   0.24947   0.00000  Uiso   1.00
C380   C     0.49302   0.97569   0.24897   0.00000  Uiso   1.00
Cu381  Cu    0.50000   0.75000   0.29821   0.00000  Uiso   1.00
Cu382  Cu    0.50000   0.75001   0.20178   0.00000  Uiso   1.00
H383   H     0.46094   0.61267   0.31518   0.00000  Uiso   1.00
H384   H     0.46208   0.88726   0.17499   0.00000  Uiso   1.00
H385   H     0.53408   0.60981   0.18466   0.00000  Uiso   1.00
H386   H     0.53316   0.89030   0.32406   0.00000  Uiso   1.00
N387   N     0.50000   0.75001   0.12934   0.00000  Uiso   1.00
N388   N     0.50000   0.74999   0.37065   0.00000  Uiso   1.00
O389   O     0.50000   0.68573   0.29071   0.00000  Uiso   1.00
O390   O     0.50000   0.81428   0.20928   0.00000  Uiso   1.00
O391   O     0.50000   0.68573   0.20928   0.00000  Uiso   1.00
O392   O     0.50000   0.81427   0.29072   0.00000  Uiso   1.00
O393   O     0.42495   0.75000   0.28132   0.00000  Uiso   1.00
O394   O     0.57505   0.75001   0.21868   0.00000  Uiso   1.00
O395   O     0.42495   0.75000   0.19988   0.00000  Uiso   1.00
O396   O     0.57505   0.75000   0.30011   0.00000  Uiso   1.00
N397   N     0.65705   0.79369   0.19865   0.00000  Uiso   1.00
H398   H     0.63361   0.81642   0.21255   0.00000  Uiso   1.00
C399   C     0.35223   0.81230   0.16210   0.00000  Uiso   1.00
H400   H     0.66115   0.83646   0.13958   0.00000  Uiso   1.00
H401   H     0.36270   0.78595   0.13737   0.00000  Uiso   1.00
H402   H     0.38684   0.82998   0.17957   0.00000  Uiso   1.00
N403   N     0.34263   0.71658   0.30626   0.00000  Uiso   1.00
H404   H     0.65706   0.68670   0.30723   0.00000  Uiso   1.00
C405   C     0.35164   0.73686   0.35395   0.00000  Uiso   1.00
H406   H     0.37370   0.71373   0.37976   0.00000  Uiso   1.00
H407   H     0.64821   0.74415   0.36792   0.00000  Uiso   1.00
H408   H     0.37401   0.76798   0.35270   0.00000  Uiso   1.00
N409   N     0.44948   0.52616   0.32354   0.00000  Uiso   1.00
H410   H     0.45191   0.54348   0.35581   0.00000  Uiso   1.00
C411   C     0.39807   0.51010   0.30828   0.00000  Uiso   1.00
H412   H     0.38306   0.99365   0.33942   0.00000  Uiso   1.00
H413   H     0.39794   0.98539   0.27873   0.00000  Uiso   1.00
H414   H     0.37236   0.53804   0.29560   0.00000  Uiso   1.00
N415   N     0.45049   0.97369   0.16392   0.00000  Uiso   1.00
H416   H     0.45342   0.95647   0.13228   0.00000  Uiso   1.00
C417   C     0.39891   0.98930   0.16606   0.00000  Uiso   1.00
H418   H     0.38426   0.50575   0.13119   0.00000  Uiso   1.00
H419   H     0.39828   0.51390   0.19562   0.00000  Uiso   1.00
H420   H     0.37319   0.96111   0.17204   0.00000  Uiso   1.00
H421   H     0.53163   0.52917   0.18516   0.00000  Uiso   1.00
H422   H     0.53065   0.97093   0.32306   0.00000  Uiso   1.00
N423   N     0.58877   0.78130   0.04135   0.00000  Uiso   1.00
H424   H     0.60773   0.80598   0.06218   0.00000  Uiso   1.00
C425   C     0.62318   0.74659   0.03028   0.00000  Uiso   1.00
H426   H     0.65640   0.76141   0.01509   0.00000  Uiso   1.00
H427   H     0.60351   0.72353   0.00280   0.00000  Uiso   1.00
H428   H     0.63757   0.72795   0.06387   0.00000  Uiso   1.00
N429   N     0.47062   0.67127   0.46611   0.00000  Uiso   1.00
H430   H     0.44437   0.65260   0.44388   0.00000  Uiso   1.00
C431   C     0.51324   0.64495   0.48824   0.00000  Uiso   1.00
H432   H     0.49847   0.61523   0.00558   0.00000  Uiso   1.00
H433   H     0.53728   0.66406   0.01683   0.00000  Uiso   1.00
H434   H     0.53713   0.63406   0.46019   0.00000  Uiso   1.00
H435   H     0.57307   0.78007   0.13398   0.00000  Uiso   1.00
H436   H     0.47123   0.68457   0.37167   0.00000  Uiso   1.00
H437   H     0.42653   0.72029   0.11450   0.00000  Uiso   1.00
H438   H     0.52895   0.81542   0.38010   0.00000  Uiso   1.00
H439   H     0.42523   0.72128   0.02586   0.00000  Uiso   1.00
H440   H     0.52783   0.81642   0.46832   0.00000  Uiso   1.00
C441   C     0.83299   0.66494   0.25002   0.00000  Uiso   1.00
C442   C     0.83305   0.83506   0.24991   0.00000  Uiso   1.00
C443   C     0.87695   0.76592   0.05940   0.00000  Uiso   1.00
C444   C     0.81845   0.71124   0.44423   0.00000  Uiso   1.00
C445   C     0.87454   0.76667   0.11003   0.00000  Uiso   1.00
C446   C     0.81754   0.71316   0.39318   0.00000  Uiso   1.00
C447   C     0.79258   0.73350   0.09931   0.00000  Uiso   1.00
C448   C     0.84943   0.78626   0.39766   0.00000  Uiso   1.00
C449   C     0.79221   0.73353   0.04855   0.00000  Uiso   1.00
C450   C     0.84948   0.78655   0.44837   0.00000  Uiso   1.00
C451   C     0.83472   0.74939   0.02750   0.00000  Uiso   1.00
C452   C     0.83429   0.74885   0.47284   0.00000  Uiso   1.00
C453   C     0.73479   0.75277   0.23797   0.00000  Uiso   1.00
C454   C     0.93187   0.74971   0.26221   0.00000  Uiso   1.00
C455   C     0.68029   0.76200   0.23368   0.00000  Uiso   1.00
C456   C     0.98667   0.74512   0.26821   0.00000  Uiso   1.00
C457   C     0.80620   0.54814   0.28649   0.00000  Uiso   1.00
C458   C     0.80675   0.95178   0.20683   0.00000  Uiso   1.00
C459   C     0.80970   0.59428   0.28686   0.00000  Uiso   1.00
C460   C     0.81032   0.90566   0.20727   0.00000  Uiso   1.00
C461   C     0.83120   0.61672   0.25007   0.00000  Uiso   1.00
C462   C     0.83127   0.88328   0.24947   0.00000  Uiso   1.00
C463   C     0.85029   0.59294   0.21311   0.00000  Uiso   1.00
C464   C     0.84978   0.90712   0.29129   0.00000  Uiso   1.00
C465   C     0.84853   0.54704   0.21322   0.00000  Uiso   1.00
C466   C     0.84799   0.95301   0.29080   0.00000  Uiso   1.00
C467   C     0.82637   0.52429   0.24947   0.00000  Uiso   1.00
C468   C     0.82636   0.97569   0.24897   0.00000  Uiso   1.00
Cu469  Cu    0.83333   0.75000   0.29821   0.00000  Uiso   1.00
Cu470  Cu    0.83333   0.75001   0.20178   0.00000  Uiso   1.00
H471   H     0.79428   0.61267   0.31518   0.00000  Uiso   1.00
H472   H     0.79541   0.88726   0.17499   0.00000  Uiso   1.00
H473   H     0.86741   0.60981   0.18466   0.00000  Uiso   1.00
H474   H     0.86649   0.89030   0.32406   0.00000  Uiso   1.00
N475   N     0.83333   0.75001   0.12934   0.00000  Uiso   1.00
N476   N     0.83333   0.74999   0.37065   0.00000  Uiso   1.00
O477   O     0.83334   0.68573   0.29071   0.00000  Uiso   1.00
O478   O     0.83333   0.81428   0.20928   0.00000  Uiso   1.00
O479   O     0.83334   0.68573   0.20928   0.00000  Uiso   1.00
O480   O     0.83333   0.81427   0.29072   0.00000  Uiso   1.00
O481   O     0.75828   0.75000   0.28132   0.00000  Uiso   1.00
O482   O     0.90839   0.75001   0.21868   0.00000  Uiso   1.00
O483   O     0.75828   0.75000   0.19988   0.00000  Uiso   1.00
O484   O     0.90839   0.75000   0.30011   0.00000  Uiso   1.00
N485   N     0.99038   0.79369   0.19865   0.00000  Uiso   1.00
H486   H     0.96694   0.81642   0.21255   0.00000  Uiso   1.00
C487   C     0.68557   0.81230   0.16210   0.00000  Uiso   1.00
H488   H     0.99449   0.83646   0.13958   0.00000  Uiso   1.00
H489   H     0.69603   0.78595   0.13737   0.00000  Uiso   1.00
H490   H     0.72017   0.82998   0.17957   0.00000  Uiso   1.00
N491   N     0.67597   0.71658   0.30626   0.00000  Uiso   1.00
H492   H     0.99039   0.68670   0.30723   0.00000  Uiso   1.00
C493   C     0.68497   0.73686   0.35395   0.00000  Uiso   1.00
H494   H     0.70703   0.71373   0.37976   0.00000  Uiso   1.00
H495   H     0.98154   0.74415   0.36792   0.00000  Uiso   1.00
H496   H     0.70734   0.76798   0.35270   0.00000  Uiso   1.00
N497   N     0.78281   0.52616   0.32354   0.00000  Uiso   1.00
H498   H     0.78525   0.54348   0.35581   0.00000  Uiso   1.00
C499   C     0.73141   0.51010   0.30828   0.00000  Uiso   1.00
H500   H     0.71639   0.99365   0.33942   0.00000  Uiso   1.00
H501   H     0.73128   0.98539   0.27873   0.00000  Uiso   1.00
H502   H     0.70569   0.53804   0.29560   0.00000  Uiso   1.00
N503   N     0.78383   0.97369   0.16392   0.00000  Uiso   1.00
H504   H     0.78675   0.95647   0.13228   0.00000  Uiso   1.00
C505   C     0.73224   0.98930   0.16606   0.00000  Uiso   1.00
H506   H     0.71760   0.50575   0.13119   0.00000  Uiso   1.00
H507   H     0.73161   0.51390   0.19562   0.00000  Uiso   1.00
H508   H     0.70653   0.96111   0.17204   0.00000  Uiso   1.00
H509   H     0.86496   0.52917   0.18516   0.00000  Uiso   1.00
H510   H     0.86399   0.97093   0.32306   0.00000  Uiso   1.00
N511   N     0.92211   0.78130   0.04135   0.00000  Uiso   1.00
H512   H     0.94106   0.80598   0.06218   0.00000  Uiso   1.00
C513   C     0.95651   0.74659   0.03028   0.00000  Uiso   1.00
H514   H     0.98973   0.76141   0.01509   0.00000  Uiso   1.00
H515   H     0.93684   0.72353   0.00280   0.00000  Uiso   1.00
H516   H     0.97090   0.72795   0.06387   0.00000  Uiso   1.00
N517   N     0.80396   0.67127   0.46611   0.00000  Uiso   1.00
H518   H     0.77770   0.65260   0.44388   0.00000  Uiso   1.00
C519   C     0.84658   0.64495   0.48824   0.00000  Uiso   1.00
H520   H     0.83181   0.61523   0.00558   0.00000  Uiso   1.00
H521   H     0.87061   0.66406   0.01683   0.00000  Uiso   1.00
H522   H     0.87046   0.63406   0.46019   0.00000  Uiso   1.00
H523   H     0.90640   0.78007   0.13398   0.00000  Uiso   1.00
H524   H     0.80456   0.68457   0.37167   0.00000  Uiso   1.00
H525   H     0.75986   0.72029   0.11450   0.00000  Uiso   1.00
H526   H     0.86228   0.81542   0.38010   0.00000  Uiso   1.00
H527   H     0.75857   0.72128   0.02586   0.00000  Uiso   1.00
H528   H     0.86116   0.81642   0.46832   0.00000  Uiso   1.00
C529   C     0.16632   0.16494   0.75002   0.00000  Uiso   1.00
C530   C     0.16639   0.33506   0.74991   0.00000  Uiso   1.00
C531   C     0.21028   0.26592   0.55940   0.00000  Uiso   1.00
C532   C     0.15178   0.21124   0.94423   0.00000  Uiso   1.00
C533   C     0.20788   0.26667   0.61003   0.00000  Uiso   1.00
C534   C     0.15087   0.21316   0.89318   0.00000  Uiso   1.00
C535   C     0.12592   0.23350   0.59931   0.00000  Uiso   1.00
C536   C     0.18276   0.28626   0.89766   0.00000  Uiso   1.00
C537   C     0.12555   0.23353   0.54855   0.00000  Uiso   1.00
C538   C     0.18282   0.28655   0.94837   0.00000  Uiso   1.00
C539   C     0.16805   0.24939   0.52750   0.00000  Uiso   1.00
C540   C     0.16763   0.24885   0.97284   0.00000  Uiso   1.00
C541   C     0.06813   0.25277   0.73797   0.00000  Uiso   1.00
C542   C     0.26520   0.24971   0.76221   0.00000  Uiso   1.00
C543   C     0.01362   0.26200   0.73368   0.00000  Uiso   1.00
C544   C     0.32001   0.24512   0.76821   0.00000  Uiso   1.00
C545   C     0.13953   0.04814   0.78649   0.00000  Uiso   1.00
C546   C     0.14008   0.45178   0.70683   0.00000  Uiso   1.00
C547   C     0.14303   0.09428   0.78686   0.00000  Uiso   1.00
C548   C     0.14365   0.40566   0.70727   0.00000  Uiso   1.00
C549   C     0.16453   0.11672   0.75007   0.00000  Uiso   1.00
C550   C     0.16461   0.38328   0.74947   0.00000  Uiso   1.00
C551   C     0.18362   0.09294   0.71311   0.00000  Uiso   1.00
C552   C     0.18312   0.40712   0.79129   0.00000  Uiso   1.00
C553   C     0.18187   0.04704   0.71322   0.00000  Uiso   1.00
C554   C     0.18132   0.45301   0.79080   0.00000  Uiso   1.00
C555   C     0.15970   0.02429   0.74947   0.00000  Uiso   1.00
C556   C     0.15969   0.47569   0.74897   0.00000  Uiso   1.00
Cu557  Cu    0.16667   0.25000   0.79821   0.00000  Uiso   1.00
Cu558  Cu    0.16667   0.25001   0.70178   0.00000  Uiso   1.00
H559   H     0.12761   0.11267   0.81518   0.00000  Uiso   1.00
H560   H     0.12874   0.38726   0.67499   0.00000  Uiso   1.00
H561   H     0.20074   0.10981   0.68466   0.00000  Uiso   1.00
H562   H     0.19983   0.39030   0.82406   0.00000  Uiso   1.00
N563   N     0.16667   0.25001   0.62934   0.00000  Uiso   1.00
N564   N     0.16667   0.24999   0.87065   0.00000  Uiso   1.00
O565   O     0.16667   0.18573   0.79071   0.00000  Uiso   1.00
O566   O     0.16666   0.31428   0.70928   0.00000  Uiso   1.00
O567   O     0.16667   0.18573   0.70928   0.00000  Uiso   1.00
O568   O     0.16666   0.31427   0.79072   0.00000  Uiso   1.00
O569   O     0.09161   0.25000   0.78132   0.00000  Uiso   1.00
O570   O     0.24172   0.25001   0.71868   0.00000  Uiso   1.00
O571   O     0.09161   0.25000   0.69988   0.00000  Uiso   1.00
O572   O     0.24172   0.25000   0.80011   0.00000  Uiso   1.00
N573   N     0.32372   0.29369   0.69865   0.00000  Uiso   1.00
H574   H     0.30028   0.31642   0.71255   0.00000  Uiso   1.00
C575   C     0.01890   0.31230   0.66210   0.00000  Uiso   1.00
H576   H     0.32782   0.33646   0.63958   0.00000  Uiso   1.00
H577   H     0.02936   0.28595   0.63737   0.00000  Uiso   1.00
H578   H     0.05351   0.32998   0.67957   0.00000  Uiso   1.00
N579   N     0.00930   0.21658   0.80626   0.00000  Uiso   1.00
H580   H     0.32373   0.18670   0.80723   0.00000  Uiso   1.00
C581   C     0.01830   0.23686   0.85395   0.00000  Uiso   1.00
H582   H     0.04036   0.21373   0.87976   0.00000  Uiso   1.00
H583   H     0.31487   0.24415   0.86792   0.00000  Uiso   1.00
H584   H     0.04067   0.26798   0.85270   0.00000  Uiso   1.00
N585   N     0.11615   0.02616   0.82354   0.00000  Uiso   1.00
H586   H     0.11858   0.04348   0.85581   0.00000  Uiso   1.00
C587   C     0.06474   0.01010   0.80828   0.00000  Uiso   1.00
H588   H     0.04972   0.49365   0.83942   0.00000  Uiso   1.00
H589   H     0.06461   0.48539   0.77873   0.00000  Uiso   1.00
H590   H     0.03903   0.03804   0.79560   0.00000  Uiso   1.00
N591   N     0.11716   0.47369   0.66392   0.00000  Uiso   1.00
H592   H     0.12009   0.45647   0.63228   0.00000  Uiso   1.00
C593   C     0.06557   0.48930   0.66606   0.00000  Uiso   1.00
H594   H     0.05093   0.00575   0.63119   0.00000  Uiso   1.00
H595   H     0.06495   0.01390   0.69562   0.00000  Uiso   1.00
H596   H     0.03986   0.46111   0.67204   0.00000  Uiso   1.00
H597   H     0.19830   0.02917   0.68516   0.00000  Uiso   1.00
H598   H     0.19732   0.47093   0.82306   0.00000  Uiso   1.00
N599   N     0.25544   0.28130   0.54135   0.00000  Uiso   1.00
H600   H     0.27439   0.30598   0.56218   0.00000  Uiso   1.00
C601   C     0.28985   0.24659   0.53028   0.00000  Uiso   1.00
H602   H     0.32306   0.26141   0.51509   0.00000  Uiso   1.00
H603   H     0.27018   0.22353   0.50280   0.00000  Uiso   1.00
H604   H     0.30424   0.22795   0.56387   0.00000  Uiso   1.00
N605   N     0.13729   0.17127   0.96611   0.00000  Uiso   1.00
H606   H     0.11104   0.15260   0.94388   0.00000  Uiso   1.00
C607   C     0.17991   0.14495   0.98824   0.00000  Uiso   1.00
H608   H     0.16514   0.11523   0.50558   0.00000  Uiso   1.00
H609   H     0.20395   0.16406   0.51683   0.00000  Uiso   1.00
H610   H     0.20379   0.13406   0.96019   0.00000  Uiso   1.00
H611   H     0.23973   0.28007   0.63398   0.00000  Uiso   1.00
H612   H     0.13789   0.18457   0.87167   0.00000  Uiso   1.00
H613   H     0.09320   0.22029   0.61450   0.00000  Uiso   1.00
H614   H     0.19561   0.31542   0.88010   0.00000  Uiso   1.00
H615   H     0.09190   0.22128   0.52586   0.00000  Uiso   1.00
H616   H     0.19450   0.31642   0.96832   0.00000  Uiso   1.00
C617   C     0.49965   0.16494   0.75002   0.00000  Uiso   1.00
C618   C     0.49972   0.33506   0.74991   0.00000  Uiso   1.00
C619   C     0.54362   0.26592   0.55940   0.00000  Uiso   1.00
C620   C     0.48511   0.21124   0.94423   0.00000  Uiso   1.00
C621   C     0.54121   0.26667   0.61003   0.00000  Uiso   1.00
C622   C     0.48420   0.21316   0.89318   0.00000  Uiso   1.00
C623   C     0.45925   0.23350   0.59931   0.00000  Uiso   1.00
C624   C     0.51610   0.28626   0.89766   0.00000  Uiso   1.00
C625   C     0.45888   0.23353   0.54855   0.00000  Uiso   1.00
C626   C     0.51615   0.28655   0.94837   0.00000  Uiso   1.00
C627   C     0.50139   0.24939   0.52750   0.00000  Uiso   1.00
C628   C     0.50096   0.24885   0.97284   0.00000  Uiso   1.00
C629   C     0.40146   0.25277   0.73797   0.00000  Uiso   1.00
C630   C     0.59854   0.24971   0.76221   0.00000  Uiso   1.00
C631   C     0.34696   0.26200   0.73368   0.00000  Uiso   1.00
C632   C     0.65334   0.24512   0.76821   0.00000  Uiso   1.00
C633   C     0.47286   0.04814   0.78649   0.00000  Uiso   1.00
C634   C     0.47342   0.45178   0.70683   0.00000  Uiso   1.00
C635   C     0.47636   0.09428   0.78686   0.00000  Uiso   1.00
C636   C     0.47699   0.40566   0.70727   0.00000  Uiso   1.00
C637   C     0.49787   0.11672   0.75007   0.00000  Uiso   1.00
C638   C     0.49794   0.38328   0.74947   0.00000  Uiso   1.00
C639   C     0.51695   0.09294   0.71311   0.00000  Uiso   1.00
C640   C     0.51645   0.40712   0.79129   0.00000  Uiso   1.00
C641   C     0.51520   0.04704   0.71322   0.00000  Uiso   1.00
C642   C     0.51466   0.45301   0.79080   0.00000  Uiso   1.00
C643   C     0.49303   0.02429   0.74947   0.00000  Uiso   1.00
C644   C     0.49302   0.47569   0.74897   0.00000  Uiso   1.00
Cu645  Cu    0.50000   0.25000   0.79821   0.00000  Uiso   1.00
Cu646  Cu    0.50000   0.25001   0.70178   0.00000  Uiso   1.00
H647   H     0.46094   0.11267   0.81518   0.00000  Uiso   1.00
H648   H     0.46208   0.38726   0.67499   0.00000  Uiso   1.00
H649   H     0.53408   0.10981   0.68466   0.00000  Uiso   1.00
H650   H     0.53316   0.39030   0.82406   0.00000  Uiso   1.00
N651   N     0.50000   0.25001   0.62934   0.00000  Uiso   1.00
N652   N     0.50000   0.24999   0.87065   0.00000  Uiso   1.00
O653   O     0.50000   0.18573   0.79071   0.00000  Uiso   1.00
O654   O     0.50000   0.31428   0.70928   0.00000  Uiso   1.00
O655   O     0.50000   0.18573   0.70928   0.00000  Uiso   1.00
O656   O     0.50000   0.31427   0.79072   0.00000  Uiso   1.00
O657   O     0.42495   0.25000   0.78132   0.00000  Uiso   1.00
O658   O     0.57505   0.25001   0.71868   0.00000  Uiso   1.00
O659   O     0.42495   0.25000   0.69988   0.00000  Uiso   1.00
O660   O     0.57505   0.25000   0.80011   0.00000  Uiso   1.00
N661   N     0.65705   0.29369   0.69865   0.00000  Uiso   1.00
H662   H     0.63361   0.31642   0.71255   0.00000  Uiso   1.00
C663   C     0.35223   0.31230   0.66210   0.00000  Uiso   1.00
H664   H     0.66115   0.33646   0.63958   0.00000  Uiso   1.00
H665   H     0.36270   0.28595   0.63737   0.00000  Uiso   1.00
H666   H     0.38684   0.32998   0.67957   0.00000  Uiso   1.00
N667   N     0.34263   0.21658   0.80626   0.00000  Uiso   1.00
H668   H     0.65706   0.18670   0.80723   0.00000  Uiso   1.00
C669   C     0.35164   0.23686   0.85395   0.00000  Uiso   1.00
H670   H     0.37370   0.21373   0.87976   0.00000  Uiso   1.00
H671   H     0.64821   0.24415   0.86792   0.00000  Uiso   1.00
H672   H     0.37401   0.26798   0.85270   0.00000  Uiso   1.00
N673   N     0.44948   0.02616   0.82354   0.00000  Uiso   1.00
H674   H     0.45191   0.04348   0.85581   0.00000  Uiso   1.00
C675   C     0.39807   0.01010   0.80828   0.00000  Uiso   1.00
H676   H     0.38306   0.49365   0.83942   0.00000  Uiso   1.00
H677   H     0.39794   0.48539   0.77873   0.00000  Uiso   1.00
H678   H     0.37236   0.03804   0.79560   0.00000  Uiso   1.00
N679   N     0.45049   0.47369   0.66392   0.00000  Uiso   1.00
H680   H     0.45342   0.45647   0.63228   0.00000  Uiso   1.00
C681   C     0.39891   0.48930   0.66606   0.00000  Uiso   1.00
H682   H     0.38426   0.00575   0.63119   0.00000  Uiso   1.00
H683   H     0.39828   0.01390   0.69562   0.00000  Uiso   1.00
H684   H     0.37319   0.46111   0.67204   0.00000  Uiso   1.00
H685   H     0.53163   0.02917   0.68516   0.00000  Uiso   1.00
H686   H     0.53065   0.47093   0.82306   0.00000  Uiso   1.00
N687   N     0.58877   0.28130   0.54135   0.00000  Uiso   1.00
H688   H     0.60773   0.30598   0.56218   0.00000  Uiso   1.00
C689   C     0.62318   0.24659   0.53028   0.00000  Uiso   1.00
H690   H     0.65640   0.26141   0.51509   0.00000  Uiso   1.00
H691   H     0.60351   0.22353   0.50280   0.00000  Uiso   1.00
H692   H     0.63757   0.22795   0.56387   0.00000  Uiso   1.00
N693   N     0.47062   0.17127   0.96611   0.00000  Uiso   1.00
H694   H     0.44437   0.15260   0.94388   0.00000  Uiso   1.00
C695   C     0.51324   0.14495   0.98824   0.00000  Uiso   1.00
H696   H     0.49847   0.11523   0.50558   0.00000  Uiso   1.00
H697   H     0.53728   0.16406   0.51683   0.00000  Uiso   1.00
H698   H     0.53713   0.13406   0.96019   0.00000  Uiso   1.00
H699   H     0.57307   0.28007   0.63398   0.00000  Uiso   1.00
H700   H     0.47123   0.18457   0.87167   0.00000  Uiso   1.00
H701   H     0.42653   0.22029   0.61450   0.00000  Uiso   1.00
H702   H     0.52895   0.31542   0.88010   0.00000  Uiso   1.00
H703   H     0.42523   0.22128   0.52586   0.00000  Uiso   1.00
H704   H     0.52783   0.31642   0.96832   0.00000  Uiso   1.00
C705   C     0.83299   0.16494   0.75002   0.00000  Uiso   1.00
C706   C     0.83305   0.33506   0.74991   0.00000  Uiso   1.00
C707   C     0.87695   0.26592   0.55940   0.00000  Uiso   1.00
C708   C     0.81845   0.21124   0.94423   0.00000  Uiso   1.00
C709   C     0.87454   0.26667   0.61003   0.00000  Uiso   1.00
C710   C     0.81754   0.21316   0.89318   0.00000  Uiso   1.00
C711   C     0.79258   0.23350   0.59931   0.00000  Uiso   1.00
C712   C     0.84943   0.28626   0.89766   0.00000  Uiso   1.00
C713   C     0.79221   0.23353   0.54855   0.00000  Uiso   1.00
C714   C     0.84948   0.28655   0.94837   0.00000  Uiso   1.00
C715   C     0.83472   0.24939   0.52750   0.00000  Uiso   1.00
C716   C     0.83429   0.24885   0.97284   0.00000  Uiso   1.00
C717   C     0.73479   0.25277   0.73797   0.00000  Uiso   1.00
C718   C     0.93187   0.24971   0.76221   0.00000  Uiso   1.00
C719   C     0.68029   0.26200   0.73368   0.00000  Uiso   1.00
C720   C     0.98667   0.24512   0.76821   0.00000  Uiso   1.00
C721   C     0.80620   0.04814   0.78649   0.00000  Uiso   1.00
C722   C     0.80675   0.45178   0.70683   0.00000  Uiso   1.00
C723   C     0.80970   0.09428   0.78686   0.00000  Uiso   1.00
C724   C     0.81032   0.40566   0.70727   0.00000  Uiso   1.00
C725   C     0.83120   0.11672   0.75007   0.00000  Uiso   1.00
C726   C     0.83127   0.38328   0.74947   0.00000  Uiso   1.00
C727   C     0.85029   0.09294   0.71311   0.00000  Uiso   1.00
C728   C     0.84978   0.40712   0.79129   0.00000  Uiso   1.00
C729   C     0.84853   0.04704   0.71322   0.00000  Uiso   1.00
C730   C     0.84799   0.45301   0.79080   0.00000  Uiso   1.00
C731   C     0.82637   0.02429   0.74947   0.00000  Uiso   1.00
C732   C     0.82636   0.47569   0.74897   0.00000  Uiso   1.00
Cu733  Cu    0.83333   0.25000   0.79821   0.00000  Uiso   1.00
Cu734  Cu    0.83333   0.25001   0.70178   0.00000  Uiso   1.00
H735   H     0.79428   0.11267   0.81518   0.00000  Uiso   1.00
H736   H     0.79541   0.38726   0.67499   0.00000  Uiso   1.00
H737   H     0.86741   0.10981   0.68466   0.00000  Uiso   1.00
H738   H     0.86649   0.39030   0.82406   0.00000  Uiso   1.00
N739   N     0.83333   0.25001   0.62934   0.00000  Uiso   1.00
N740   N     0.83333   0.24999   0.87065   0.00000  Uiso   1.00
O741   O     0.83334   0.18573   0.79071   0.00000  Uiso   1.00
O742   O     0.83333   0.31428   0.70928   0.00000  Uiso   1.00
O743   O     0.83334   0.18573   0.70928   0.00000  Uiso   1.00
O744   O     0.83333   0.31427   0.79072   0.00000  Uiso   1.00
O745   O     0.75828   0.25000   0.78132   0.00000  Uiso   1.00
O746   O     0.90839   0.25001   0.71868   0.00000  Uiso   1.00
O747   O     0.75828   0.25000   0.69988   0.00000  Uiso   1.00
O748   O     0.90839   0.25000   0.80011   0.00000  Uiso   1.00
N749   N     0.99038   0.29369   0.69865   0.00000  Uiso   1.00
H750   H     0.96694   0.31642   0.71255   0.00000  Uiso   1.00
C751   C     0.68557   0.31230   0.66210   0.00000  Uiso   1.00
H752   H     0.99449   0.33646   0.63958   0.00000  Uiso   1.00
H753   H     0.69603   0.28595   0.63737   0.00000  Uiso   1.00
H754   H     0.72017   0.32998   0.67957   0.00000  Uiso   1.00
N755   N     0.67597   0.21658   0.80626   0.00000  Uiso   1.00
H756   H     0.99039   0.18670   0.80723   0.00000  Uiso   1.00
C757   C     0.68497   0.23686   0.85395   0.00000  Uiso   1.00
H758   H     0.70703   0.21373   0.87976   0.00000  Uiso   1.00
H759   H     0.98154   0.24415   0.86792   0.00000  Uiso   1.00
H760   H     0.70734   0.26798   0.85270   0.00000  Uiso   1.00
N761   N     0.78281   0.02616   0.82354   0.00000  Uiso   1.00
H762   H     0.78525   0.04348   0.85581   0.00000  Uiso   1.00
C763   C     0.73141   0.01010   0.80828   0.00000  Uiso   1.00
H764   H     0.71639   0.49365   0.83942   0.00000  Uiso   1.00
H765   H     0.73128   0.48539   0.77873   0.00000  Uiso   1.00
H766   H     0.70569   0.03804   0.79560   0.00000  Uiso   1.00
N767   N     0.78383   0.47369   0.66392   0.00000  Uiso   1.00
H768   H     0.78675   0.45647   0.63228   0.00000  Uiso   1.00
C769   C     0.73224   0.48930   0.66606   0.00000  Uiso   1.00
H770   H     0.71760   0.00575   0.63119   0.00000  Uiso   1.00
H771   H     0.73161   0.01390   0.69562   0.00000  Uiso   1.00
H772   H     0.70653   0.46111   0.67204   0.00000  Uiso   1.00
H773   H     0.86496   0.02917   0.68516   0.00000  Uiso   1.00
H774   H     0.86399   0.47093   0.82306   0.00000  Uiso   1.00
N775   N     0.92211   0.28130   0.54135   0.00000  Uiso   1.00
H776   H     0.94106   0.30598   0.56218   0.00000  Uiso   1.00
C777   C     0.95651   0.24659   0.53028   0.00000  Uiso   1.00
H778   H     0.98973   0.26141   0.51509   0.00000  Uiso   1.00
H779   H     0.93684   0.22353   0.50280   0.00000  Uiso   1.00
H780   H     0.97090   0.22795   0.56387   0.00000  Uiso   1.00
N781   N     0.80396   0.17127   0.96611   0.00000  Uiso   1.00
H782   H     0.77770   0.15260   0.94388   0.00000  Uiso   1.00
C783   C     0.84658   0.14495   0.98824   0.00000  Uiso   1.00
H784   H     0.83181   0.11523   0.50558   0.00000  Uiso   1.00
H785   H     0.87061   0.16406   0.51683   0.00000  Uiso   1.00
H786   H     0.87046   0.13406   0.96019   0.00000  Uiso   1.00
H787   H     0.90640   0.28007   0.63398   0.00000  Uiso   1.00
H788   H     0.80456   0.18457   0.87167   0.00000  Uiso   1.00
H789   H     0.75986   0.22029   0.61450   0.00000  Uiso   1.00
H790   H     0.86228   0.31542   0.88010   0.00000  Uiso   1.00
H791   H     0.75857   0.22128   0.52586   0.00000  Uiso   1.00
H792   H     0.86116   0.31642   0.96832   0.00000  Uiso   1.00
C793   C     0.16632   0.66494   0.75002   0.00000  Uiso   1.00
C794   C     0.16639   0.83506   0.74991   0.00000  Uiso   1.00
C795   C     0.21028   0.76592   0.55940   0.00000  Uiso   1.00
C796   C     0.15178   0.71124   0.94423   0.00000  Uiso   1.00
C797   C     0.20788   0.76667   0.61003   0.00000  Uiso   1.00
C798   C     0.15087   0.71316   0.89318   0.00000  Uiso   1.00
C799   C     0.12592   0.73350   0.59931   0.00000  Uiso   1.00
C800   C     0.18276   0.78626   0.89766   0.00000  Uiso   1.00
C801   C     0.12555   0.73353   0.54855   0.00000  Uiso   1.00
C802   C     0.18282   0.78655   0.94837   0.00000  Uiso   1.00
C803   C     0.16805   0.74939   0.52750   0.00000  Uiso   1.00
C804   C     0.16763   0.74885   0.97284   0.00000  Uiso   1.00
C805   C     0.06813   0.75277   0.73797   0.00000  Uiso   1.00
C806   C     0.26520   0.74971   0.76221   0.00000  Uiso   1.00
C807   C     0.01362   0.76200   0.73368   0.00000  Uiso   1.00
C808   C     0.32001   0.74512   0.76821   0.00000  Uiso   1.00
C809   C     0.13953   0.54814   0.78649   0.00000  Uiso   1.00
C810   C     0.14008   0.95178   0.70683   0.00000  Uiso   1.00
C811   C     0.14303   0.59428   0.78686   0.00000  Uiso   1.00
C812   C     0.14365   0.90566   0.70727   0.00000  Uiso   1.00
C813   C     0.16453   0.61672   0.75007   0.00000  Uiso   1.00
C814   C     0.16461   0.88328   0.74947   0.00000  Uiso   1.00
C815   C     0.18362   0.59294   0.71311   0.00000  Uiso   1.00
C816   C     0.18312   0.90712   0.79129   0.00000  Uiso   1.00
C817   C     0.18187   0.54704   0.71322   0.00000  Uiso   1.00
C818   C     0.18132   0.95301   0.79080   0.00000  Uiso   1.00
C819   C     0.15970   0.52429   0.74947   0.00000  Uiso   1.00
C820   C     0.15969   0.97569   0.74897   0.00000  Uiso   1.00
Cu821  Cu    0.16667   0.75000   0.79821   0.00000  Uiso   1.00
Cu822  Cu    0.16667   0.75001   0.70178   0.00000  Uiso   1.00
H823   H     0.12761   0.61267   0.81518   0.00000  Uiso   1.00
H824   H     0.12874   0.88726   0.67499   0.00000  Uiso   1.00
H825   H     0.20074   0.60981   0.68466   0.00000  Uiso   1.00
H826   H     0.19983   0.89030   0.82406   0.00000  Uiso   1.00
N827   N     0.16667   0.75001   0.62934   0.00000  Uiso   1.00
N828   N     0.16667   0.74999   0.87065   0.00000  Uiso   1.00
O829   O     0.16667   0.68573   0.79071   0.00000  Uiso   1.00
O830   O     0.16666   0.81428   0.70928   0.00000  Uiso   1.00
O831   O     0.16667   0.68573   0.70928   0.00000  Uiso   1.00
O832   O     0.16666   0.81427   0.79072   0.00000  Uiso   1.00
O833   O     0.09161   0.75000   0.78132   0.00000  Uiso   1.00
O834   O     0.24172   0.75001   0.71868   0.00000  Uiso   1.00
O835   O     0.09161   0.75000   0.69988   0.00000  Uiso   1.00
O836   O     0.24172   0.75000   0.80011   0.00000  Uiso   1.00
N837   N     0.32372   0.79369   0.69865   0.00000  Uiso   1.00
H838   H     0.30028   0.81642   0.71255   0.00000  Uiso   1.00
C839   C     0.01890   0.81230   0.66210   0.00000  Uiso   1.00
H840   H     0.32782   0.83646   0.63958   0.00000  Uiso   1.00
H841   H     0.02936   0.78595   0.63737   0.00000  Uiso   1.00
H842   H     0.05351   0.82998   0.67957   0.00000  Uiso   1.00
N843   N     0.00930   0.71658   0.80626   0.00000  Uiso   1.00
H844   H     0.32373   0.68670   0.80723   0.00000  Uiso   1.00
C845   C     0.01830   0.73686   0.85395   0.00000  Uiso   1.00
H846   H     0.04036   0.71373   0.87976   0.00000  Uiso   1.00
H847   H     0.31487   0.74415   0.86792   0.00000  Uiso   1.00
H848   H     0.04067   0.76798   0.85270   0.00000  Uiso   1.00
N849   N     0.11615   0.52616   0.82354   0.00000  Uiso   1.00
H850   H     0.11858   0.54348   0.85581   0.00000  Uiso   1.00
C851   C     0.06474   0.51010   0.80828   0.00000  Uiso   1.00
H852   H     0.04972   0.99365   0.83942   0.00000  Uiso   1.00
H853   H     0.06461   0.98539   0.77873   0.00000  Uiso   1.00
H854   H     0.03903   0.53804   0.79560   0.00000  Uiso   1.00
N855   N     0.11716   0.97369   0.66392   0.00000  Uiso   1.00
H856   H     0.12009   0.95647   0.63228   0.00000  Uiso   1.00
C857   C     0.06557   0.98930   0.66606   0.00000  Uiso   1.00
H858   H     0.05093   0.50575   0.63119   0.00000  Uiso   1.00
H859   H     0.06495   0.51390   0.69562   0.00000  Uiso   1.00
H860   H     0.03986   0.96111   0.67204   0.00000  Uiso   1.00
H861   H     0.19830   0.52917   0.68516   0.00000  Uiso   1.00
H862   H     0.19732   0.97093   0.82306   0.00000  Uiso   1.00
N863   N     0.25544   0.78130   0.54135   0.00000  Uiso   1.00
H864   H     0.27439   0.80598   0.56218   0.00000  Uiso   1.00
C865   C     0.28985   0.74659   0.53028   0.00000  Uiso   1.00
H866   H     0.32306   0.76141   0.51509   0.00000  Uiso   1.00
H867   H     0.27018   0.72353   0.50280   0.00000  Uiso   1.00
H868   H     0.30424   0.72795   0.56387   0.00000  Uiso   1.00
N869   N     0.13729   0.67127   0.96611   0.00000  Uiso   1.00
H870   H     0.11104   0.65260   0.94388   0.00000  Uiso   1.00
C871   C     0.17991   0.64495   0.98824   0.00000  Uiso   1.00
H872   H     0.16514   0.61523   0.50558   0.00000  Uiso   1.00
H873   H     0.20395   0.66406   0.51683   0.00000  Uiso   1.00
H874   H     0.20379   0.63406   0.96019   0.00000  Uiso   1.00
H875   H     0.23973   0.78007   0.63398   0.00000  Uiso   1.00
H876   H     0.13789   0.68457   0.87167   0.00000  Uiso   1.00
H877   H     0.09320   0.72029   0.61450   0.00000  Uiso   1.00
H878   H     0.19561   0.81542   0.88010   0.00000  Uiso   1.00
H879   H     0.09190   0.72128   0.52586   0.00000  Uiso   1.00
H880   H     0.19450   0.81642   0.96832   0.00000  Uiso   1.00
C881   C     0.49965   0.66494   0.75002   0.00000  Uiso   1.00
C882   C     0.49972   0.83506   0.74991   0.00000  Uiso   1.00
C883   C     0.54362   0.76592   0.55940   0.00000  Uiso   1.00
C884   C     0.48511   0.71124   0.94423   0.00000  Uiso   1.00
C885   C     0.54121   0.76667   0.61003   0.00000  Uiso   1.00
C886   C     0.48420   0.71316   0.89318   0.00000  Uiso   1.00
C887   C     0.45925   0.73350   0.59931   0.00000  Uiso   1.00
C888   C     0.51610   0.78626   0.89766   0.00000  Uiso   1.00
C889   C     0.45888   0.73353   0.54855   0.00000  Uiso   1.00
C890   C     0.51615   0.78655   0.94837   0.00000  Uiso   1.00
C891   C     0.50139   0.74939   0.52750   0.00000  Uiso   1.00
C892   C     0.50096   0.74885   0.97284   0.00000  Uiso   1.00
C893   C     0.40146   0.75277   0.73797   0.00000  Uiso   1.00
C894   C     0.59854   0.74971   0.76221   0.00000  Uiso   1.00
C895   C     0.34696   0.76200   0.73368   0.00000  Uiso   1.00
C896   C     0.65334   0.74512   0.76821   0.00000  Uiso   1.00
C897   C     0.47286   0.54814   0.78649   0.00000  Uiso   1.00
C898   C     0.47342   0.95178   0.70683   0.00000  Uiso   1.00
C899   C     0.47636   0.59428   0.78686   0.00000  Uiso   1.00
C900   C     0.47699   0.90566   0.70727   0.00000  Uiso   1.00
C901   C     0.49787   0.61672   0.75007   0.00000  Uiso   1.00
C902   C     0.49794   0.88328   0.74947   0.00000  Uiso   1.00
C903   C     0.51695   0.59294   0.71311   0.00000  Uiso   1.00
C904   C     0.51645   0.90712   0.79129   0.00000  Uiso   1.00
C905   C     0.51520   0.54704   0.71322   0.00000  Uiso   1.00
C906   C     0.51466   0.95301   0.79080   0.00000  Uiso   1.00
C907   C     0.49303   0.52429   0.74947   0.00000  Uiso   1.00
C908   C     0.49302   0.97569   0.74897   0.00000  Uiso   1.00
Cu909  Cu    0.50000   0.75000   0.79821   0.00000  Uiso   1.00
Cu910  Cu    0.50000   0.75001   0.70178   0.00000  Uiso   1.00
H911   H     0.46094   0.61267   0.81518   0.00000  Uiso   1.00
H912   H     0.46208   0.88726   0.67499   0.00000  Uiso   1.00
H913   H     0.53408   0.60981   0.68466   0.00000  Uiso   1.00
H914   H     0.53316   0.89030   0.82406   0.00000  Uiso   1.00
N915   N     0.50000   0.75001   0.62934   0.00000  Uiso   1.00
N916   N     0.50000   0.74999   0.87065   0.00000  Uiso   1.00
O917   O     0.50000   0.68573   0.79071   0.00000  Uiso   1.00
O918   O     0.50000   0.81428   0.70928   0.00000  Uiso   1.00
O919   O     0.50000   0.68573   0.70928   0.00000  Uiso   1.00
O920   O     0.50000   0.81427   0.79072   0.00000  Uiso   1.00
O921   O     0.42495   0.75000   0.78132   0.00000  Uiso   1.00
O922   O     0.57505   0.75001   0.71868   0.00000  Uiso   1.00
O923   O     0.42495   0.75000   0.69988   0.00000  Uiso   1.00
O924   O     0.57505   0.75000   0.80011   0.00000  Uiso   1.00
N925   N     0.65705   0.79369   0.69865   0.00000  Uiso   1.00
H926   H     0.63361   0.81642   0.71255   0.00000  Uiso   1.00
C927   C     0.35223   0.81230   0.66210   0.00000  Uiso   1.00
H928   H     0.66115   0.83646   0.63958   0.00000  Uiso   1.00
H929   H     0.36270   0.78595   0.63737   0.00000  Uiso   1.00
H930   H     0.38684   0.82998   0.67957   0.00000  Uiso   1.00
N931   N     0.34263   0.71658   0.80626   0.00000  Uiso   1.00
H932   H     0.65706   0.68670   0.80723   0.00000  Uiso   1.00
C933   C     0.35164   0.73686   0.85395   0.00000  Uiso   1.00
H934   H     0.37370   0.71373   0.87976   0.00000  Uiso   1.00
H935   H     0.64821   0.74415   0.86792   0.00000  Uiso   1.00
H936   H     0.37401   0.76798   0.85270   0.00000  Uiso   1.00
N937   N     0.44948   0.52616   0.82354   0.00000  Uiso   1.00
H938   H     0.45191   0.54348   0.85581   0.00000  Uiso   1.00
C939   C     0.39807   0.51010   0.80828   0.00000  Uiso   1.00
H940   H     0.38306   0.99365   0.83942   0.00000  Uiso   1.00
H941   H     0.39794   0.98539   0.77873   0.00000  Uiso   1.00
H942   H     0.37236   0.53804   0.79560   0.00000  Uiso   1.00
N943   N     0.45049   0.97369   0.66392   0.00000  Uiso   1.00
H944   H     0.45342   0.95647   0.63228   0.00000  Uiso   1.00
C945   C     0.39891   0.98930   0.66606   0.00000  Uiso   1.00
H946   H     0.38426   0.50575   0.63119   0.00000  Uiso   1.00
H947   H     0.39828   0.51390   0.69562   0.00000  Uiso   1.00
H948   H     0.37319   0.96111   0.67204   0.00000  Uiso   1.00
H949   H     0.53163   0.52917   0.68516   0.00000  Uiso   1.00
H950   H     0.53065   0.97093   0.82306   0.00000  Uiso   1.00
N951   N     0.58877   0.78130   0.54135   0.00000  Uiso   1.00
H952   H     0.60773   0.80598   0.56218   0.00000  Uiso   1.00
C953   C     0.62318   0.74659   0.53028   0.00000  Uiso   1.00
H954   H     0.65640   0.76141   0.51509   0.00000  Uiso   1.00
H955   H     0.60351   0.72353   0.50280   0.00000  Uiso   1.00
H956   H     0.63757   0.72795   0.56387   0.00000  Uiso   1.00
N957   N     0.47062   0.67127   0.96611   0.00000  Uiso   1.00
H958   H     0.44437   0.65260   0.94388   0.00000  Uiso   1.00
C959   C     0.51324   0.64495   0.98824   0.00000  Uiso   1.00
H960   H     0.49847   0.61523   0.50558   0.00000  Uiso   1.00
H961   H     0.53728   0.66406   0.51683   0.00000  Uiso   1.00
H962   H     0.53713   0.63406   0.96019   0.00000  Uiso   1.00
H963   H     0.57307   0.78007   0.63398   0.00000  Uiso   1.00
H964   H     0.47123   0.68457   0.87167   0.00000  Uiso   1.00
H965   H     0.42653   0.72029   0.61450   0.00000  Uiso   1.00
H966   H     0.52895   0.81542   0.88010   0.00000  Uiso   1.00
H967   H     0.42523   0.72128   0.52586   0.00000  Uiso   1.00
H968   H     0.52783   0.81642   0.96832   0.00000  Uiso   1.00
C969   C     0.83299   0.66494   0.75002   0.00000  Uiso   1.00
C970   C     0.83305   0.83506   0.74991   0.00000  Uiso   1.00
C971   C     0.87695   0.76592   0.55940   0.00000  Uiso   1.00
C972   C     0.81845   0.71124   0.94423   0.00000  Uiso   1.00
C973   C     0.87454   0.76667   0.61003   0.00000  Uiso   1.00
C974   C     0.81754   0.71316   0.89318   0.00000  Uiso   1.00
C975   C     0.79258   0.73350   0.59931   0.00000  Uiso   1.00
C976   C     0.84943   0.78626   0.89766   0.00000  Uiso   1.00
C977   C     0.79221   0.73353   0.54855   0.00000  Uiso   1.00
C978   C     0.84948   0.78655   0.94837   0.00000  Uiso   1.00
C979   C     0.83472   0.74939   0.52750   0.00000  Uiso   1.00
C980   C     0.83429   0.74885   0.97284   0.00000  Uiso   1.00
C981   C     0.73479   0.75277   0.73797   0.00000  Uiso   1.00
C982   C     0.93187   0.74971   0.76221   0.00000  Uiso   1.00
C983   C     0.68029   0.76200   0.73368   0.00000  Uiso   1.00
C984   C     0.98667   0.74512   0.76821   0.00000  Uiso   1.00
C985   C     0.80620   0.54814   0.78649   0.00000  Uiso   1.00
C986   C     0.80675   0.95178   0.70683   0.00000  Uiso   1.00
C987   C     0.80970   0.59428   0.78686   0.00000  Uiso   1.00
C988   C     0.81032   0.90566   0.70727   0.00000  Uiso   1.00
C989   C     0.83120   0.61672   0.75007   0.00000  Uiso   1.00
C990   C     0.83127   0.88328   0.74947   0.00000  Uiso   1.00
C991   C     0.85029   0.59294   0.71311   0.00000  Uiso   1.00
C992   C     0.84978   0.90712   0.79129   0.00000  Uiso   1.00
C993   C     0.84853   0.54704   0.71322   0.00000  Uiso   1.00
C994   C     0.84799   0.95301   0.79080   0.00000  Uiso   1.00
C995   C     0.82637   0.52429   0.74947   0.00000  Uiso   1.00
C996   C     0.82636   0.97569   0.74897   0.00000  Uiso   1.00
Cu997  Cu    0.83333   0.75000   0.79821   0.00000  Uiso   1.00
Cu998  Cu    0.83333   0.75001   0.70178   0.00000  Uiso   1.00
H999   H     0.79428   0.61267   0.81518   0.00000  Uiso   1.00
H1000  H     0.79541   0.88726   0.67499   0.00000  Uiso   1.00
H1001  H     0.86741   0.60981   0.68466   0.00000  Uiso   1.00
H1002  H     0.86649   0.89030   0.82406   0.00000  Uiso   1.00
N1003  N     0.83333   0.75001   0.62934   0.00000  Uiso   1.00
N1004  N     0.83333   0.74999   0.87065   0.00000  Uiso   1.00
O1005  O     0.83334   0.68573   0.79071   0.00000  Uiso   1.00
O1006  O     0.83333   0.81428   0.70928   0.00000  Uiso   1.00
O1007  O     0.83334   0.68573   0.70928   0.00000  Uiso   1.00
O1008  O     0.83333   0.81427   0.79072   0.00000  Uiso   1.00
O1009  O     0.75828   0.75000   0.78132   0.00000  Uiso   1.00
O1010  O     0.90839   0.75001   0.71868   0.00000  Uiso   1.00
O1011  O     0.75828   0.75000   0.69988   0.00000  Uiso   1.00
O1012  O     0.90839   0.75000   0.80011   0.00000  Uiso   1.00
N1013  N     0.99038   0.79369   0.69865   0.00000  Uiso   1.00
H1014  H     0.96694   0.81642   0.71255   0.00000  Uiso   1.00
C1015  C     0.68557   0.81230   0.66210   0.00000  Uiso   1.00
H1016  H     0.99449   0.83646   0.63958   0.00000  Uiso   1.00
H1017  H     0.69603   0.78595   0.63737   0.00000  Uiso   1.00
H1018  H     0.72017   0.82998   0.67957   0.00000  Uiso   1.00
N1019  N     0.67597   0.71658   0.80626   0.00000  Uiso   1.00
H1020  H     0.99039   0.68670   0.80723   0.00000  Uiso   1.00
C1021  C     0.68497   0.73686   0.85395   0.00000  Uiso   1.00
H1022  H     0.70703   0.71373   0.87976   0.00000  Uiso   1.00
H1023  H     0.98154   0.74415   0.86792   0.00000  Uiso   1.00
H1024  H     0.70734   0.76798   0.85270   0.00000  Uiso   1.00
N1025  N     0.78281   0.52616   0.82354   0.00000  Uiso   1.00
H1026  H     0.78525   0.54348   0.85581   0.00000  Uiso   1.00
C1027  C     0.73141   0.51010   0.80828   0.00000  Uiso   1.00
H1028  H     0.71639   0.99365   0.83942   0.00000  Uiso   1.00
H1029  H     0.73128   0.98539   0.77873   0.00000  Uiso   1.00
H1030  H     0.70569   0.53804   0.79560   0.00000  Uiso   1.00
N1031  N     0.78383   0.97369   0.66392   0.00000  Uiso   1.00
H1032  H     0.78675   0.95647   0.63228   0.00000  Uiso   1.00
C1033  C     0.73224   0.98930   0.66606   0.00000  Uiso   1.00
H1034  H     0.71760   0.50575   0.63119   0.00000  Uiso   1.00
H1035  H     0.73161   0.51390   0.69562   0.00000  Uiso   1.00
H1036  H     0.70653   0.96111   0.67204   0.00000  Uiso   1.00
H1037  H     0.86496   0.52917   0.68516   0.00000  Uiso   1.00
H1038  H     0.86399   0.97093   0.82306   0.00000  Uiso   1.00
N1039  N     0.92211   0.78130   0.54135   0.00000  Uiso   1.00
H1040  H     0.94106   0.80598   0.56218   0.00000  Uiso   1.00
C1041  C     0.95651   0.74659   0.53028   0.00000  Uiso   1.00
H1042  H     0.98973   0.76141   0.51509   0.00000  Uiso   1.00
H1043  H     0.93684   0.72353   0.50280   0.00000  Uiso   1.00
H1044  H     0.97090   0.72795   0.56387   0.00000  Uiso   1.00
N1045  N     0.80396   0.67127   0.96611   0.00000  Uiso   1.00
H1046  H     0.77770   0.65260   0.94388   0.00000  Uiso   1.00
C1047  C     0.84658   0.64495   0.98824   0.00000  Uiso   1.00
H1048  H     0.83181   0.61523   0.50558   0.00000  Uiso   1.00
H1049  H     0.87061   0.66406   0.51683   0.00000  Uiso   1.00
H1050  H     0.87046   0.63406   0.96019   0.00000  Uiso   1.00
H1051  H     0.90640   0.78007   0.63398   0.00000  Uiso   1.00
H1052  H     0.80456   0.68457   0.87167   0.00000  Uiso   1.00
H1053  H     0.75986   0.72029   0.61450   0.00000  Uiso   1.00
H1054  H     0.86228   0.81542   0.88010   0.00000  Uiso   1.00
H1055  H     0.75857   0.72128   0.52586   0.00000  Uiso   1.00
H1056  H     0.86116   0.81642   0.96832   0.00000  Uiso   1.00
loop_
_geom_bond_atom_site_label_1
_geom_bond_atom_site_label_2
_geom_bond_distance
_geom_bond_site_symmetry_2
_ccdc_geom_bond_type
C1     C21     1.458   .     S
C1     O37     1.291   .     A
C1     O39     1.292   .     A
C2     C22     1.458   .     S
C2     O38     1.291   .     A
C2     O40     1.292   .     A
C3     N71     1.423   .     S
C3     C5      1.413   .     A
C3     C11     1.418   .     A
C4     C12     1.418   .     A
C4     C6      1.413   .     A
C4     N77     1.423   .     S
C5     H83     1.078   .     S
C5     N35     1.364   .     A
C6     H84     1.080   .     S
C6     N36     1.365   .     A
C7     C9      1.406   .     A
C7     N35     1.364   .     A
C7     H85     1.081   .     S
C8     N36     1.364   .     A
C8     H86     1.080   .     S
C8     C10     1.405   .     A
C9     C11     1.409   .     A
C9     H87     1.083   .     S
C10    H88     1.082   .     S
C10    C12     1.408   .     A
C11    C540    1.514   1_554 S
C12    C539    1.514   .     S
C13    O41     1.281   .     A
C13    C15     1.451   .     S
C13    O43     1.293   .     A
C14    O42     1.283   .     A
C14    C16     1.437   .     S
C14    O44     1.285   .     A
C15    C192    1.360   1_455 S
C15    N221    1.443   1_455 S
C16    C103    1.360   .     S
C16    N139    1.431   .     S
C17    C27     1.414   .     A
C17    C19     1.398   .     A
C17    N57     1.425   .     S
C18    N63     1.425   .     S
C18    C20     1.397   .     A
C18    C28     1.414   .     A
C19    H31     1.084   .     S
C19    C21     1.401   .     A
C20    C22     1.401   .     A
C20    H32     1.084   .     S
C21    C23     1.398   .     A
C22    C24     1.399   .     A
C23    H33     1.083   .     S
C23    C25     1.388   .     A
C24    C26     1.388   .     A
C24    H34     1.083   .     S
C25    H69     1.083   .     S
C25    C27     1.403   .     A
C26    H70     1.083   .     S
C26    C28     1.403   .     A
C27    C292    1.469   1_545 S
C28    C291    1.469   .     S
Cu29   N36     2.008   .     S
Cu29   Cu30    2.673   .     S
Cu29   O44     1.968   .     S
Cu29   O37     1.954   .     S
Cu29   O41     1.970   .     S
Cu29   O40     1.953   .     S
Cu30   N35     2.008   .     S
Cu30   O38     1.954   .     S
Cu30   O43     1.968   .     S
Cu30   O39     1.953   .     S
Cu30   O42     1.970   .     S
N45    H46     1.032   .     S
N45    C103    1.443   .     S
N45    C135    1.448   .     S
C47    H49     1.110   .     S
C47    H50     1.111   .     S
C47    N221    1.448   1_455 S
C47    H224    1.110   1_455 S
H48    C135    1.110   .     S
N51    C53     1.449   .     S
N51    C192    1.431   1_455 S
N51    H228    1.032   1_455 S
H52    N139    1.032   .     S
C53    H56     1.111   .     S
C53    H54     1.110   .     S
C53    H231    1.110   1_455 S
H55    C141    1.110   .     S
N57    C59     1.447   .     S
N57    H58     1.032   .     S
C59    H62     1.112   .     S
C59    H324    1.110   1_545 S
C59    H325    1.109   1_545 S
H60    C323    1.110   .     S
H61    C323    1.109   .     S
N63    C65     1.447   .     S
N63    H64     1.032   .     S
C65    H68     1.112   .     S
C65    H330    1.110   .     S
C65    H331    1.109   .     S
H66    C329    1.110   1_545 S
H67    C329    1.109   1_545 S
N71    H72     1.031   .     S
N71    C73     1.447   .     S
C73    H74     1.111   .     S
C73    H75     1.110   .     S
C73    H76     1.112   .     S
N77    H78     1.032   .     S
N77    C79     1.447   .     S
C79    H82     1.112   .     S
C79    H608    1.110   .     S
C79    H609    1.110   .     S
H80    C607    1.110   1_554 S
H81    C607    1.110   1_554 S
C89    C109    1.458   .     S
C89    O125    1.291   .     A
C89    O127    1.292   .     A
C90    C110    1.458   .     S
C90    O126    1.291   .     A
C90    O128    1.292   .     A
C91    N159    1.423   .     S
C91    C93     1.413   .     A
C91    C99     1.418   .     A
C92    C100    1.418   .     A
C92    C94     1.413   .     A
C92    N165    1.423   .     S
C93    H171    1.078   .     S
C93    N123    1.364   .     A
C94    H172    1.080   .     S
C94    N124    1.365   .     A
C95    C97     1.406   .     A
C95    N123    1.364   .     A
C95    H173    1.081   .     S
C96    N124    1.364   .     A
C96    H174    1.080   .     S
C96    C98     1.405   .     A
C97    C99     1.409   .     A
C97    H175    1.083   .     S
C98    H176    1.082   .     S
C98    C100    1.408   .     A
C99    C628    1.514   1_554 S
C100   C627    1.514   .     S
C101   O129    1.281   .     A
C101   C103    1.451   .     S
C101   O131    1.293   .     A
C102   O130    1.283   .     A
C102   C104    1.437   .     S
C102   O132    1.285   .     A
C104   C191    1.360   .     S
C104   N227    1.431   .     S
C105   C115    1.414   .     A
C105   C107    1.398   .     A
C105   N145    1.425   .     S
C106   N151    1.425   .     S
C106   C108    1.397   .     A
C106   C116    1.414   .     A
C107   H119    1.084   .     S
C107   C109    1.401   .     A
C108   C110    1.401   .     A
C108   H120    1.084   .     S
C109   C111    1.398   .     A
C110   C112    1.399   .     A
C111   H121    1.083   .     S
C111   C113    1.388   .     A
C112   C114    1.388   .     A
C112   H122    1.083   .     S
C113   H157    1.083   .     S
C113   C115    1.403   .     A
C114   H158    1.083   .     S
C114   C116    1.403   .     A
C115   C380    1.469   1_545 S
C116   C379    1.469   .     S
Cu117  N124    2.008   .     S
Cu117  Cu118   2.673   .     S
Cu117  O132    1.968   .     S
Cu117  O125    1.954   .     S
Cu117  O129    1.970   .     S
Cu117  O128    1.953   .     S
Cu118  N123    2.008   .     S
Cu118  O126    1.954   .     S
Cu118  O131    1.968   .     S
Cu118  O127    1.953   .     S
Cu118  O130    1.970   .     S
N133   H134    1.032   .     S
N133   C191    1.443   .     S
N133   C223    1.448   .     S
C135   H137    1.110   .     S
C135   H138    1.111   .     S
H136   C223    1.110   .     S
N139   C141    1.449   .     S
H140   N227    1.032   .     S
C141   H144    1.111   .     S
C141   H142    1.110   .     S
H143   C229    1.110   .     S
N145   C147    1.447   .     S
N145   H146    1.032   .     S
C147   H150    1.112   .     S
C147   H412    1.110   1_545 S
C147   H413    1.109   1_545 S
H148   C411    1.110   .     S
H149   C411    1.109   .     S
N151   C153    1.447   .     S
N151   H152    1.032   .     S
C153   H156    1.112   .     S
C153   H418    1.110   .     S
C153   H419    1.109   .     S
H154   C417    1.110   1_545 S
H155   C417    1.109   1_545 S
N159   H160    1.031   .     S
N159   C161    1.447   .     S
C161   H162    1.111   .     S
C161   H163    1.110   .     S
C161   H164    1.112   .     S
N165   H166    1.032   .     S
N165   C167    1.447   .     S
C167   H170    1.112   .     S
C167   H696    1.110   .     S
C167   H697    1.110   .     S
H168   C695    1.110   1_554 S
H169   C695    1.110   1_554 S
C177   C197    1.458   .     S
C177   O213    1.291   .     A
C177   O215    1.292   .     A
C178   C198    1.458   .     S
C178   O214    1.291   .     A
C178   O216    1.292   .     A
C179   N247    1.423   .     S
C179   C181    1.413   .     A
C179   C187    1.418   .     A
C180   C188    1.418   .     A
C180   C182    1.413   .     A
C180   N253    1.423   .     S
C181   H259    1.078   .     S
C181   N211    1.364   .     A
C182   H260    1.080   .     S
C182   N212    1.365   .     A
C183   C185    1.406   .     A
C183   N211    1.364   .     A
C183   H261    1.081   .     S
C184   N212    1.364   .     A
C184   H262    1.080   .     S
C184   C186    1.405   .     A
C185   C187    1.409   .     A
C185   H263    1.083   .     S
C186   H264    1.082   .     S
C186   C188    1.408   .     A
C187   C716    1.514   1_554 S
C188   C715    1.514   .     S
C189   O217    1.281   .     A
C189   C191    1.451   .     S
C189   O219    1.293   .     A
C190   O218    1.283   .     A
C190   C192    1.437   .     S
C190   O220    1.285   .     A
C192   C15     1.360   1_655 S
C192   N51     1.431   1_655 S
C193   C203    1.414   .     A
C193   C195    1.398   .     A
C193   N233    1.425   .     S
C194   N239    1.425   .     S
C194   C196    1.397   .     A
C194   C204    1.414   .     A
C195   H207    1.084   .     S
C195   C197    1.401   .     A
C196   C198    1.401   .     A
C196   H208    1.084   .     S
C197   C199    1.398   .     A
C198   C200    1.399   .     A
C199   H209    1.083   .     S
C199   C201    1.388   .     A
C200   C202    1.388   .     A
C200   H210    1.083   .     S
C201   H245    1.083   .     S
C201   C203    1.403   .     A
C202   H246    1.083   .     S
C202   C204    1.403   .     A
C203   C468    1.469   1_545 S
C204   C467    1.469   .     S
Cu205  N212    2.008   .     S
Cu205  Cu206   2.673   .     S
Cu205  O220    1.968   .     S
Cu205  O213    1.954   .     S
Cu205  O217    1.970   .     S
Cu205  O216    1.953   .     S
Cu206  N211    2.008   .     S
Cu206  O214    1.954   .     S
Cu206  O219    1.968   .     S
Cu206  O215    1.953   .     S
Cu206  O218    1.970   .     S
N221   H222    1.032   .     S
N221   C15     1.443   1_655 S
N221   C47     1.448   1_655 S
C223   H225    1.110   .     S
C223   H226    1.111   .     S
H224   C47     1.110   1_655 S
N227   C229    1.449   .     S
H228   N51     1.032   1_655 S
C229   H232    1.111   .     S
C229   H230    1.110   .     S
H231   C53     1.110   1_655 S
N233   C235    1.447   .     S
N233   H234    1.032   .     S
C235   H238    1.112   .     S
C235   H500    1.110   1_545 S
C235   H501    1.109   1_545 S
H236   C499    1.110   .     S
H237   C499    1.109   .     S
N239   C241    1.447   .     S
N239   H240    1.032   .     S
C241   H244    1.112   .     S
C241   H506    1.110   .     S
C241   H507    1.109   .     S
H242   C505    1.110   1_545 S
H243   C505    1.109   1_545 S
N247   H248    1.031   .     S
N247   C249    1.447   .     S
C249   H250    1.111   .     S
C249   H251    1.110   .     S
C249   H252    1.112   .     S
N253   H254    1.032   .     S
N253   C255    1.447   .     S
C255   H258    1.112   .     S
C255   H784    1.110   .     S
C255   H785    1.110   .     S
H256   C783    1.110   1_554 S
H257   C783    1.110   1_554 S
C265   C285    1.458   .     S
C265   O301    1.291   .     A
C265   O303    1.292   .     A
C266   C286    1.458   .     S
C266   O302    1.291   .     A
C266   O304    1.292   .     A
C267   N335    1.423   .     S
C267   C269    1.413   .     A
C267   C275    1.418   .     A
C268   C276    1.418   .     A
C268   C270    1.413   .     A
C268   N341    1.423   .     S
C269   H347    1.078   .     S
C269   N299    1.364   .     A
C270   H348    1.080   .     S
C270   N300    1.365   .     A
C271   C273    1.406   .     A
C271   N299    1.364   .     A
C271   H349    1.081   .     S
C272   N300    1.364   .     A
C272   H350    1.080   .     S
C272   C274    1.405   .     A
C273   C275    1.409   .     A
C273   H351    1.083   .     S
C274   H352    1.082   .     S
C274   C276    1.408   .     A
C275   C804    1.514   1_554 S
C276   C803    1.514   .     S
C277   O305    1.281   .     A
C277   C279    1.451   .     S
C277   O307    1.293   .     A
C278   O306    1.283   .     A
C278   C280    1.437   .     S
C278   O308    1.285   .     A
C279   C456    1.360   1_455 S
C279   N485    1.443   1_455 S
C280   C367    1.360   .     S
C280   N403    1.431   .     S
C281   C291    1.414   .     A
C281   C283    1.398   .     A
C281   N321    1.425   .     S
C282   N327    1.425   .     S
C282   C284    1.397   .     A
C282   C292    1.414   .     A
C283   H295    1.084   .     S
C283   C285    1.401   .     A
C284   C286    1.401   .     A
C284   H296    1.084   .     S
C285   C287    1.398   .     A
C286   C288    1.399   .     A
C287   H297    1.083   .     S
C287   C289    1.388   .     A
C288   C290    1.388   .     A
C288   H298    1.083   .     S
C289   H333    1.083   .     S
C289   C291    1.403   .     A
C290   H334    1.083   .     S
C290   C292    1.403   .     A
C292   C27     1.469   1_565 S
Cu293  N300    2.008   .     S
Cu293  Cu294   2.673   .     S
Cu293  O308    1.968   .     S
Cu293  O301    1.954   .     S
Cu293  O305    1.970   .     S
Cu293  O304    1.953   .     S
Cu294  N299    2.008   .     S
Cu294  O302    1.954   .     S
Cu294  O307    1.968   .     S
Cu294  O303    1.953   .     S
Cu294  O306    1.970   .     S
N309   H310    1.032   .     S
N309   C367    1.443   .     S
N309   C399    1.448   .     S
C311   H313    1.110   .     S
C311   H314    1.111   .     S
C311   N485    1.448   1_455 S
C311   H488    1.110   1_455 S
H312   C399    1.110   .     S
N315   C317    1.449   .     S
N315   C456    1.431   1_455 S
N315   H492    1.032   1_455 S
H316   N403    1.032   .     S
C317   H320    1.111   .     S
C317   H318    1.110   .     S
C317   H495    1.110   1_455 S
H319   C405    1.110   .     S
N321   C323    1.447   .     S
N321   H322    1.032   .     S
C323   H326    1.112   .     S
H324   C59     1.110   1_565 S
H325   C59     1.109   1_565 S
N327   C329    1.447   .     S
N327   H328    1.032   .     S
C329   H332    1.112   .     S
C329   H66     1.110   1_565 S
C329   H67     1.109   1_565 S
N335   H336    1.031   .     S
N335   C337    1.447   .     S
C337   H338    1.111   .     S
C337   H339    1.110   .     S
C337   H340    1.112   .     S
N341   H342    1.032   .     S
N341   C343    1.447   .     S
C343   H346    1.112   .     S
C343   H872    1.110   .     S
C343   H873    1.110   .     S
H344   C871    1.110   1_554 S
H345   C871    1.110   1_554 S
C353   C373    1.458   .     S
C353   O389    1.291   .     A
C353   O391    1.292   .     A
C354   C374    1.458   .     S
C354   O390    1.291   .     A
C354   O392    1.292   .     A
C355   N423    1.423   .     S
C355   C357    1.413   .     A
C355   C363    1.418   .     A
C356   C364    1.418   .     A
C356   C358    1.413   .     A
C356   N429    1.423   .     S
C357   H435    1.078   .     S
C357   N387    1.364   .     A
C358   H436    1.080   .     S
C358   N388    1.365   .     A
C359   C361    1.406   .     A
C359   N387    1.364   .     A
C359   H437    1.081   .     S
C360   N388    1.364   .     A
C360   H438    1.080   .     S
C360   C362    1.405   .     A
C361   C363    1.409   .     A
C361   H439    1.083   .     S
C362   H440    1.082   .     S
C362   C364    1.408   .     A
C363   C892    1.514   1_554 S
C364   C891    1.514   .     S
C365   O393    1.281   .     A
C365   C367    1.451   .     S
C365   O395    1.293   .     A
C366   O394    1.283   .     A
C366   C368    1.437   .     S
C366   O396    1.285   .     A
C368   C455    1.360   .     S
C368   N491    1.431   .     S
C369   C379    1.414   .     A
C369   C371    1.398   .     A
C369   N409    1.425   .     S
C370   N415    1.425   .     S
C370   C372    1.397   .     A
C370   C380    1.414   .     A
C371   H383    1.084   .     S
C371   C373    1.401   .     A
C372   C374    1.401   .     A
C372   H384    1.084   .     S
C373   C375    1.398   .     A
C374   C376    1.399   .     A
C375   H385    1.083   .     S
C375   C377    1.388   .     A
C376   C378    1.388   .     A
C376   H386    1.083   .     S
C377   H421    1.083   .     S
C377   C379    1.403   .     A
C378   H422    1.083   .     S
C378   C380    1.403   .     A
C380   C115    1.469   1_565 S
Cu381  N388    2.008   .     S
Cu381  Cu382   2.673   .     S
Cu381  O396    1.968   .     S
Cu381  O389    1.954   .     S
Cu381  O393    1.970   .     S
Cu381  O392    1.953   .     S
Cu382  N387    2.008   .     S
Cu382  O390    1.954   .     S
Cu382  O395    1.968   .     S
Cu382  O391    1.953   .     S
Cu382  O394    1.970   .     S
N397   H398    1.032   .     S
N397   C455    1.443   .     S
N397   C487    1.448   .     S
C399   H401    1.110   .     S
C399   H402    1.111   .     S
H400   C487    1.110   .     S
N403   C405    1.449   .     S
H404   N491    1.032   .     S
C405   H408    1.111   .     S
C405   H406    1.110   .     S
H407   C493    1.110   .     S
N409   C411    1.447   .     S
N409   H410    1.032   .     S
C411   H414    1.112   .     S
H412   C147    1.110   1_565 S
H413   C147    1.109   1_565 S
N415   C417    1.447   .     S
N415   H416    1.032   .     S
C417   H420    1.112   .     S
C417   H154    1.110   1_565 S
C417   H155    1.109   1_565 S
N423   H424    1.031   .     S
N423   C425    1.447   .     S
C425   H426    1.111   .     S
C425   H427    1.110   .     S
C425   H428    1.112   .     S
N429   H430    1.032   .     S
N429   C431    1.447   .     S
C431   H434    1.112   .     S
C431   H960    1.110   .     S
C431   H961    1.110   .     S
H432   C959    1.110   1_554 S
H433   C959    1.110   1_554 S
C441   C461    1.458   .     S
C441   O477    1.291   .     A
C441   O479    1.292   .     A
C442   C462    1.458   .     S
C442   O478    1.291   .     A
C442   O480    1.292   .     A
C443   N511    1.423   .     S
C443   C445    1.413   .     A
C443   C451    1.418   .     A
C444   C452    1.418   .     A
C444   C446    1.413   .     A
C444   N517    1.423   .     S
C445   H523    1.078   .     S
C445   N475    1.364   .     A
C446   H524    1.080   .     S
C446   N476    1.365   .     A
C447   C449    1.406   .     A
C447   N475    1.364   .     A
C447   H525    1.081   .     S
C448   N476    1.364   .     A
C448   H526    1.080   .     S
C448   C450    1.405   .     A
C449   C451    1.409   .     A
C449   H527    1.083   .     S
C450   H528    1.082   .     S
C450   C452    1.408   .     A
C451   C980    1.514   1_554 S
C452   C979    1.514   .     S
C453   O481    1.281   .     A
C453   C455    1.451   .     S
C453   O483    1.293   .     A
C454   O482    1.283   .     A
C454   C456    1.437   .     S
C454   O484    1.285   .     A
C456   C279    1.360   1_655 S
C456   N315    1.431   1_655 S
C457   C467    1.414   .     A
C457   C459    1.398   .     A
C457   N497    1.425   .     S
C458   N503    1.425   .     S
C458   C460    1.397   .     A
C458   C468    1.414   .     A
C459   H471    1.084   .     S
C459   C461    1.401   .     A
C460   C462    1.401   .     A
C460   H472    1.084   .     S
C461   C463    1.398   .     A
C462   C464    1.399   .     A
C463   H473    1.083   .     S
C463   C465    1.388   .     A
C464   C466    1.388   .     A
C464   H474    1.083   .     S
C465   H509    1.083   .     S
C465   C467    1.403   .     A
C466   H510    1.083   .     S
C466   C468    1.403   .     A
C468   C203    1.469   1_565 S
Cu469  N476    2.008   .     S
Cu469  Cu470   2.673   .     S
Cu469  O484    1.968   .     S
Cu469  O477    1.954   .     S
Cu469  O481    1.970   .     S
Cu469  O480    1.953   .     S
Cu470  N475    2.008   .     S
Cu470  O478    1.954   .     S
Cu470  O483    1.968   .     S
Cu470  O479    1.953   .     S
Cu470  O482    1.970   .     S
N485   H486    1.032   .     S
N485   C279    1.443   1_655 S
N485   C311    1.448   1_655 S
C487   H489    1.110   .     S
C487   H490    1.111   .     S
H488   C311    1.110   1_655 S
N491   C493    1.449   .     S
H492   N315    1.032   1_655 S
C493   H496    1.111   .     S
C493   H494    1.110   .     S
H495   C317    1.110   1_655 S
N497   C499    1.447   .     S
N497   H498    1.032   .     S
C499   H502    1.112   .     S
H500   C235    1.110   1_565 S
H501   C235    1.109   1_565 S
N503   C505    1.447   .     S
N503   H504    1.032   .     S
C505   H508    1.112   .     S
C505   H242    1.110   1_565 S
C505   H243    1.109   1_565 S
N511   H512    1.031   .     S
N511   C513    1.447   .     S
C513   H514    1.111   .     S
C513   H515    1.110   .     S
C513   H516    1.112   .     S
N517   H518    1.032   .     S
N517   C519    1.447   .     S
C519   H522    1.112   .     S
C519   H1048   1.110   .     S
C519   H1049   1.110   .     S
H520   C1047   1.110   1_554 S
H521   C1047   1.110   1_554 S
C529   C549    1.458   .     S
C529   O565    1.291   .     A
C529   O567    1.292   .     A
C530   C550    1.458   .     S
C530   O566    1.291   .     A
C530   O568    1.292   .     A
C531   N599    1.423   .     S
C531   C533    1.413   .     A
C531   C539    1.418   .     A
C532   C540    1.418   .     A
C532   C534    1.413   .     A
C532   N605    1.423   .     S
C533   H611    1.078   .     S
C533   N563    1.364   .     A
C534   H612    1.080   .     S
C534   N564    1.365   .     A
C535   C537    1.406   .     A
C535   N563    1.364   .     A
C535   H613    1.081   .     S
C536   N564    1.364   .     A
C536   H614    1.080   .     S
C536   C538    1.405   .     A
C537   C539    1.409   .     A
C537   H615    1.083   .     S
C538   H616    1.082   .     S
C538   C540    1.408   .     A
C540   C11     1.514   1_556 S
C541   O569    1.281   .     A
C541   C543    1.451   .     S
C541   O571    1.293   .     A
C542   O570    1.283   .     A
C542   C544    1.437   .     S
C542   O572    1.285   .     A
C543   C720    1.360   1_455 S
C543   N749    1.443   1_455 S
C544   C631    1.360   .     S
C544   N667    1.431   .     S
C545   C555    1.414   .     A
C545   C547    1.398   .     A
C545   N585    1.425   .     S
C546   N591    1.425   .     S
C546   C548    1.397   .     A
C546   C556    1.414   .     A
C547   H559    1.084   .     S
C547   C549    1.401   .     A
C548   C550    1.401   .     A
C548   H560    1.084   .     S
C549   C551    1.398   .     A
C550   C552    1.399   .     A
C551   H561    1.083   .     S
C551   C553    1.388   .     A
C552   C554    1.388   .     A
C552   H562    1.083   .     S
C553   H597    1.083   .     S
C553   C555    1.403   .     A
C554   H598    1.083   .     S
C554   C556    1.403   .     A
C555   C820    1.469   1_545 S
C556   C819    1.469   .     S
Cu557  N564    2.008   .     S
Cu557  Cu558   2.673   .     S
Cu557  O572    1.968   .     S
Cu557  O565    1.954   .     S
Cu557  O569    1.970   .     S
Cu557  O568    1.953   .     S
Cu558  N563    2.008   .     S
Cu558  O566    1.954   .     S
Cu558  O571    1.968   .     S
Cu558  O567    1.953   .     S
Cu558  O570    1.970   .     S
N573   H574    1.032   .     S
N573   C631    1.443   .     S
N573   C663    1.448   .     S
C575   H577    1.110   .     S
C575   H578    1.111   .     S
C575   N749    1.448   1_455 S
C575   H752    1.110   1_455 S
H576   C663    1.110   .     S
N579   C581    1.449   .     S
N579   C720    1.431   1_455 S
N579   H756    1.032   1_455 S
H580   N667    1.032   .     S
C581   H584    1.111   .     S
C581   H582    1.110   .     S
C581   H759    1.110   1_455 S
H583   C669    1.110   .     S
N585   C587    1.447   .     S
N585   H586    1.032   .     S
C587   H590    1.112   .     S
C587   H852    1.110   1_545 S
C587   H853    1.109   1_545 S
H588   C851    1.110   .     S
H589   C851    1.109   .     S
N591   C593    1.447   .     S
N591   H592    1.032   .     S
C593   H596    1.112   .     S
C593   H858    1.110   .     S
C593   H859    1.109   .     S
H594   C857    1.110   1_545 S
H595   C857    1.109   1_545 S
N599   H600    1.031   .     S
N599   C601    1.447   .     S
C601   H602    1.111   .     S
C601   H603    1.110   .     S
C601   H604    1.112   .     S
N605   H606    1.032   .     S
N605   C607    1.447   .     S
C607   H610    1.112   .     S
C607   H80     1.110   1_556 S
C607   H81     1.110   1_556 S
C617   C637    1.458   .     S
C617   O653    1.291   .     A
C617   O655    1.292   .     A
C618   C638    1.458   .     S
C618   O654    1.291   .     A
C618   O656    1.292   .     A
C619   N687    1.423   .     S
C619   C621    1.413   .     A
C619   C627    1.418   .     A
C620   C628    1.418   .     A
C620   C622    1.413   .     A
C620   N693    1.423   .     S
C621   H699    1.078   .     S
C621   N651    1.364   .     A
C622   H700    1.080   .     S
C622   N652    1.365   .     A
C623   C625    1.406   .     A
C623   N651    1.364   .     A
C623   H701    1.081   .     S
C624   N652    1.364   .     A
C624   H702    1.080   .     S
C624   C626    1.405   .     A
C625   C627    1.409   .     A
C625   H703    1.083   .     S
C626   H704    1.082   .     S
C626   C628    1.408   .     A
C628   C99     1.514   1_556 S
C629   O657    1.281   .     A
C629   C631    1.451   .     S
C629   O659    1.293   .     A
C630   O658    1.283   .     A
C630   C632    1.437   .     S
C630   O660    1.285   .     A
C632   C719    1.360   .     S
C632   N755    1.431   .     S
C633   C643    1.414   .     A
C633   C635    1.398   .     A
C633   N673    1.425   .     S
C634   N679    1.425   .     S
C634   C636    1.397   .     A
C634   C644    1.414   .     A
C635   H647    1.084   .     S
C635   C637    1.401   .     A
C636   C638    1.401   .     A
C636   H648    1.084   .     S
C637   C639    1.398   .     A
C638   C640    1.399   .     A
C639   H649    1.083   .     S
C639   C641    1.388   .     A
C640   C642    1.388   .     A
C640   H650    1.083   .     S
C641   H685    1.083   .     S
C641   C643    1.403   .     A
C642   H686    1.083   .     S
C642   C644    1.403   .     A
C643   C908    1.469   1_545 S
C644   C907    1.469   .     S
Cu645  N652    2.008   .     S
Cu645  Cu646   2.673   .     S
Cu645  O660    1.968   .     S
Cu645  O653    1.954   .     S
Cu645  O657    1.970   .     S
Cu645  O656    1.953   .     S
Cu646  N651    2.008   .     S
Cu646  O654    1.954   .     S
Cu646  O659    1.968   .     S
Cu646  O655    1.953   .     S
Cu646  O658    1.970   .     S
N661   H662    1.032   .     S
N661   C719    1.443   .     S
N661   C751    1.448   .     S
C663   H665    1.110   .     S
C663   H666    1.111   .     S
H664   C751    1.110   .     S
N667   C669    1.449   .     S
H668   N755    1.032   .     S
C669   H672    1.111   .     S
C669   H670    1.110   .     S
H671   C757    1.110   .     S
N673   C675    1.447   .     S
N673   H674    1.032   .     S
C675   H678    1.112   .     S
C675   H940    1.110   1_545 S
C675   H941    1.109   1_545 S
H676   C939    1.110   .     S
H677   C939    1.109   .     S
N679   C681    1.447   .     S
N679   H680    1.032   .     S
C681   H684    1.112   .     S
C681   H946    1.110   .     S
C681   H947    1.109   .     S
H682   C945    1.110   1_545 S
H683   C945    1.109   1_545 S
N687   H688    1.031   .     S
N687   C689    1.447   .     S
C689   H690    1.111   .     S
C689   H691    1.110   .     S
C689   H692    1.112   .     S
N693   H694    1.032   .     S
N693   C695    1.447   .     S
C695   H698    1.112   .     S
C695   H168    1.110   1_556 S
C695   H169    1.110   1_556 S
C705   C725    1.458   .     S
C705   O741    1.291   .     A
C705   O743    1.292   .     A
C706   C726    1.458   .     S
C706   O742    1.291   .     A
C706   O744    1.292   .     A
C707   N775    1.423   .     S
C707   C709    1.413   .     A
C707   C715    1.418   .     A
C708   C716    1.418   .     A
C708   C710    1.413   .     A
C708   N781    1.423   .     S
C709   H787    1.078   .     S
C709   N739    1.364   .     A
C710   H788    1.080   .     S
C710   N740    1.365   .     A
C711   C713    1.406   .     A
C711   N739    1.364   .     A
C711   H789    1.081   .     S
C712   N740    1.364   .     A
C712   H790    1.080   .     S
C712   C714    1.405   .     A
C713   C715    1.409   .     A
C713   H791    1.083   .     S
C714   H792    1.082   .     S
C714   C716    1.408   .     A
C716   C187    1.514   1_556 S
C717   O745    1.281   .     A
C717   C719    1.451   .     S
C717   O747    1.293   .     A
C718   O746    1.283   .     A
C718   C720    1.437   .     S
C718   O748    1.285   .     A
C720   C543    1.360   1_655 S
C720   N579    1.431   1_655 S
C721   C731    1.414   .     A
C721   C723    1.398   .     A
C721   N761    1.425   .     S
C722   N767    1.425   .     S
C722   C724    1.397   .     A
C722   C732    1.414   .     A
C723   H735    1.084   .     S
C723   C725    1.401   .     A
C724   C726    1.401   .     A
C724   H736    1.084   .     S
C725   C727    1.398   .     A
C726   C728    1.399   .     A
C727   H737    1.083   .     S
C727   C729    1.388   .     A
C728   C730    1.388   .     A
C728   H738    1.083   .     S
C729   H773    1.083   .     S
C729   C731    1.403   .     A
C730   H774    1.083   .     S
C730   C732    1.403   .     A
C731   C996    1.469   1_545 S
C732   C995    1.469   .     S
Cu733  N740    2.008   .     S
Cu733  Cu734   2.673   .     S
Cu733  O748    1.968   .     S
Cu733  O741    1.954   .     S
Cu733  O745    1.970   .     S
Cu733  O744    1.953   .     S
Cu734  N739    2.008   .     S
Cu734  O742    1.954   .     S
Cu734  O747    1.968   .     S
Cu734  O743    1.953   .     S
Cu734  O746    1.970   .     S
N749   H750    1.032   .     S
N749   C543    1.443   1_655 S
N749   C575    1.448   1_655 S
C751   H753    1.110   .     S
C751   H754    1.111   .     S
H752   C575    1.110   1_655 S
N755   C757    1.449   .     S
H756   N579    1.032   1_655 S
C757   H760    1.111   .     S
C757   H758    1.110   .     S
H759   C581    1.110   1_655 S
N761   C763    1.447   .     S
N761   H762    1.032   .     S
C763   H766    1.112   .     S
C763   H1028   1.110   1_545 S
C763   H1029   1.109   1_545 S
H764   C1027   1.110   .     S
H765   C1027   1.109   .     S
N767   C769    1.447   .     S
N767   H768    1.032   .     S
C769   H772    1.112   .     S
C769   H1034   1.110   .     S
C769   H1035   1.109   .     S
H770   C1033   1.110   1_545 S
H771   C1033   1.109   1_545 S
N775   H776    1.031   .     S
N775   C777    1.447   .     S
C777   H778    1.111   .     S
C777   H779    1.110   .     S
C777   H780    1.112   .     S
N781   H782    1.032   .     S
N781   C783    1.447   .     S
C783   H786    1.112   .     S
C783   H256    1.110   1_556 S
C783   H257    1.110   1_556 S
C793   C813    1.458   .     S
C793   O829    1.291   .     A
C793   O831    1.292   .     A
C794   C814    1.458   .     S
C794   O830    1.291   .     A
C794   O832    1.292   .     A
C795   N863    1.423   .     S
C795   C797    1.413   .     A
C795   C803    1.418   .     A
C796   C804    1.418   .     A
C796   C798    1.413   .     A
C796   N869    1.423   .     S
C797   H875    1.078   .     S
C797   N827    1.364   .     A
C798   H876    1.080   .     S
C798   N828    1.365   .     A
C799   C801    1.406   .     A
C799   N827    1.364   .     A
C799   H877    1.081   .     S
C800   N828    1.364   .     A
C800   H878    1.080   .     S
C800   C802    1.405   .     A
C801   C803    1.409   .     A
C801   H879    1.083   .     S
C802   H880    1.082   .     S
C802   C804    1.408   .     A
C804   C275    1.514   1_556 S
C805   O833    1.281   .     A
C805   C807    1.451   .     S
C805   O835    1.293   .     A
C806   O834    1.283   .     A
C806   C808    1.437   .     S
C806   O836    1.285   .     A
C807   C984    1.360   1_455 S
C807   N1013   1.443   1_455 S
C808   C895    1.360   .     S
C808   N931    1.431   .     S
C809   C819    1.414   .     A
C809   C811    1.398   .     A
C809   N849    1.425   .     S
C810   N855    1.425   .     S
C810   C812    1.397   .     A
C810   C820    1.414   .     A
C811   H823    1.084   .     S
C811   C813    1.401   .     A
C812   C814    1.401   .     A
C812   H824    1.084   .     S
C813   C815    1.398   .     A
C814   C816    1.399   .     A
C815   H825    1.083   .     S
C815   C817    1.388   .     A
C816   C818    1.388   .     A
C816   H826    1.083   .     S
C817   H861    1.083   .     S
C817   C819    1.403   .     A
C818   H862    1.083   .     S
C818   C820    1.403   .     A
C820   C555    1.469   1_565 S
Cu821  N828    2.008   .     S
Cu821  Cu822   2.673   .     S
Cu821  O836    1.968   .     S
Cu821  O829    1.954   .     S
Cu821  O833    1.970   .     S
Cu821  O832    1.953   .     S
Cu822  N827    2.008   .     S
Cu822  O830    1.954   .     S
Cu822  O835    1.968   .     S
Cu822  O831    1.953   .     S
Cu822  O834    1.970   .     S
N837   H838    1.032   .     S
N837   C895    1.443   .     S
N837   C927    1.448   .     S
C839   H841    1.110   .     S
C839   H842    1.111   .     S
C839   N1013   1.448   1_455 S
C839   H1016   1.110   1_455 S
H840   C927    1.110   .     S
N843   C845    1.449   .     S
N843   C984    1.431   1_455 S
N843   H1020   1.032   1_455 S
H844   N931    1.032   .     S
C845   H848    1.111   .     S
C845   H846    1.110   .     S
C845   H1023   1.110   1_455 S
H847   C933    1.110   .     S
N849   C851    1.447   .     S
N849   H850    1.032   .     S
C851   H854    1.112   .     S
H852   C587    1.110   1_565 S
H853   C587    1.109   1_565 S
N855   C857    1.447   .     S
N855   H856    1.032   .     S
C857   H860    1.112   .     S
C857   H594    1.110   1_565 S
C857   H595    1.109   1_565 S
N863   H864    1.031   .     S
N863   C865    1.447   .     S
C865   H866    1.111   .     S
C865   H867    1.110   .     S
C865   H868    1.112   .     S
N869   H870    1.032   .     S
N869   C871    1.447   .     S
C871   H874    1.112   .     S
C871   H344    1.110   1_556 S
C871   H345    1.110   1_556 S
C881   C901    1.458   .     S
C881   O917    1.291   .     A
C881   O919    1.292   .     A
C882   C902    1.458   .     S
C882   O918    1.291   .     A
C882   O920    1.292   .     A
C883   N951    1.423   .     S
C883   C885    1.413   .     A
C883   C891    1.418   .     A
C884   C892    1.418   .     A
C884   C886    1.413   .     A
C884   N957    1.423   .     S
C885   H963    1.078   .     S
C885   N915    1.364   .     A
C886   H964    1.080   .     S
C886   N916    1.365   .     A
C887   C889    1.406   .     A
C887   N915    1.364   .     A
C887   H965    1.081   .     S
C888   N916    1.364   .     A
C888   H966    1.080   .     S
C888   C890    1.405   .     A
C889   C891    1.409   .     A
C889   H967    1.083   .     S
C890   H968    1.082   .     S
C890   C892    1.408   .     A
C892   C363    1.514   1_556 S
C893   O921    1.281   .     A
C893   C895    1.451   .     S
C893   O923    1.293   .     A
C894   O922    1.283   .     A
C894   C896    1.437   .     S
C894   O924    1.285   .     A
C896   C983    1.360   .     S
C896   N1019   1.431   .     S
C897   C907    1.414   .     A
C897   C899    1.398   .     A
C897   N937    1.425   .     S
C898   N943    1.425   .     S
C898   C900    1.397   .     A
C898   C908    1.414   .     A
C899   H911    1.084   .     S
C899   C901    1.401   .     A
C900   C902    1.401   .     A
C900   H912    1.084   .     S
C901   C903    1.398   .     A
C902   C904    1.399   .     A
C903   H913    1.083   .     S
C903   C905    1.388   .     A
C904   C906    1.388   .     A
C904   H914    1.083   .     S
C905   H949    1.083   .     S
C905   C907    1.403   .     A
C906   H950    1.083   .     S
C906   C908    1.403   .     A
C908   C643    1.469   1_565 S
Cu909  N916    2.008   .     S
Cu909  Cu910   2.673   .     S
Cu909  O924    1.968   .     S
Cu909  O917    1.954   .     S
Cu909  O921    1.970   .     S
Cu909  O920    1.953   .     S
Cu910  N915    2.008   .     S
Cu910  O918    1.954   .     S
Cu910  O923    1.968   .     S
Cu910  O919    1.953   .     S
Cu910  O922    1.970   .     S
N925   H926    1.032   .     S
N925   C983    1.443   .     S
N925   C1015   1.448   .     S
C927   H929    1.110   .     S
C927   H930    1.111   .     S
H928   C1015   1.110   .     S
N931   C933    1.449   .     S
H932   N1019   1.032   .     S
C933   H936    1.111   .     S
C933   H934    1.110   .     S
H935   C1021   1.110   .     S
N937   C939    1.447   .     S
N937   H938    1.032   .     S
C939   H942    1.112   .     S
H940   C675    1.110   1_565 S
H941   C675    1.109   1_565 S
N943   C945    1.447   .     S
N943   H944    1.032   .     S
C945   H948    1.112   .     S
C945   H682    1.110   1_565 S
C945   H683    1.109   1_565 S
N951   H952    1.031   .     S
N951   C953    1.447   .     S
C953   H954    1.111   .     S
C953   H955    1.110   .     S
C953   H956    1.112   .     S
N957   H958    1.032   .     S
N957   C959    1.447   .     S
C959   H962    1.112   .     S
C959   H432    1.110   1_556 S
C959   H433    1.110   1_556 S
C969   C989    1.458   .     S
C969   O1005   1.291   .     A
C969   O1007   1.292   .     A
C970   C990    1.458   .     S
C970   O1006   1.291   .     A
C970   O1008   1.292   .     A
C971   N1039   1.423   .     S
C971   C973    1.413   .     A
C971   C979    1.418   .     A
C972   C980    1.418   .     A
C972   C974    1.413   .     A
C972   N1045   1.423   .     S
C973   H1051   1.078   .     S
C973   N1003   1.364   .     A
C974   H1052   1.080   .     S
C974   N1004   1.365   .     A
C975   C977    1.406   .     A
C975   N1003   1.364   .     A
C975   H1053   1.081   .     S
C976   N1004   1.364   .     A
C976   H1054   1.080   .     S
C976   C978    1.405   .     A
C977   C979    1.409   .     A
C977   H1055   1.083   .     S
C978   H1056   1.082   .     S
C978   C980    1.408   .     A
C980   C451    1.514   1_556 S
C981   O1009   1.281   .     A
C981   C983    1.451   .     S
C981   O1011   1.293   .     A
C982   O1010   1.283   .     A
C982   C984    1.437   .     S
C982   O1012   1.285   .     A
C984   C807    1.360   1_655 S
C984   N843    1.431   1_655 S
C985   C995    1.414   .     A
C985   C987    1.398   .     A
C985   N1025   1.425   .     S
C986   N1031   1.425   .     S
C986   C988    1.397   .     A
C986   C996    1.414   .     A
C987   H999    1.084   .     S
C987   C989    1.401   .     A
C988   C990    1.401   .     A
C988   H1000   1.084   .     S
C989   C991    1.398   .     A
C990   C992    1.399   .     A
C991   H1001   1.083   .     S
C991   C993    1.388   .     A
C992   C994    1.388   .     A
C992   H1002   1.083   .     S
C993   H1037   1.083   .     S
C993   C995    1.403   .     A
C994   H1038   1.083   .     S
C994   C996    1.403   .     A
C996   C731    1.469   1_565 S
Cu997  N1004   2.008   .     S
Cu997  Cu998   2.673   .     S
Cu997  O1012   1.968   .     S
Cu997  O1005   1.954   .     S
Cu997  O1009   1.970   .     S
Cu997  O1008   1.953   .     S
Cu998  N1003   2.008   .     S
Cu998  O1006   1.954   .     S
Cu998  O1011   1.968   .     S
Cu998  O1007   1.953   .     S
Cu998  O1010   1.970   .     S
N1013  H1014   1.032   .     S
N1013  C807    1.443   1_655 S
N1013  C839    1.448   1_655 S
C1015  H1017   1.110   .     S
C1015  H1018   1.111   .     S
H1016  C839    1.110   1_655 S
N1019  C1021   1.449   .     S
H1020  N843    1.032   1_655 S
C1021  H1024   1.111   .     S
C1021  H1022   1.110   .     S
H1023  C845    1.110   1_655 S
N1025  C1027   1.447   .     S
N1025  H1026   1.032   .     S
C1027  H1030   1.112   .     S
H1028  C763    1.110   1_565 S
H1029  C763    1.109   1_565 S
N1031  C1033   1.447   .     S
N1031  H1032   1.032   .     S
C1033  H1036   1.112   .     S
C1033  H770    1.110   1_565 S
C1033  H771    1.109   1_565 S
N1039  H1040   1.031   .     S
N1039  C1041   1.447   .     S
C1041  H1042   1.111   .     S
C1041  H1043   1.110   .     S
C1041  H1044   1.112   .     S
N1045  H1046   1.032   .     S
N1045  C1047   1.447   .     S
C1047  H1050   1.112   .     S
C1047  H520    1.110   1_556 S
C1047  H521    1.110   1_556 S
