data_str_m2_o2_o10_pcu_sym.192
_audit_creation_date              2020-01-03
_audit_creation_method            'Materials Studio'
_symmetry_space_group_name_H-M    'P1'
_symmetry_Int_Tables_number       1
_symmetry_cell_setting            triclinic
loop_
_symmetry_equiv_pos_as_xyz
  x,y,z
_cell_length_a                    26.1659
_cell_length_b                    30.2897
_cell_length_c                    27.8171
_cell_angle_alpha                 90.8736
_cell_angle_beta                  98.4940
_cell_angle_gamma                 91.5345
loop_
_atom_site_label
_atom_site_type_symbol
_atom_site_fract_x
_atom_site_fract_y
_atom_site_fract_z
_atom_site_U_iso_or_equiv
_atom_site_adp_type
_atom_site_occupancy
C1     C     0.16646   0.16521   0.24963   0.00000  Uiso   1.00
C2     C     0.16399   0.33532   0.25002   0.00000  Uiso   1.00
C3     C     0.19259   0.28380   0.05830   0.00000  Uiso   1.00
C4     C     0.12372   0.23178   0.43944   0.00000  Uiso   1.00
C5     C     0.19343   0.28226   0.10904   0.00000  Uiso   1.00
C6     C     0.12572   0.23126   0.38900   0.00000  Uiso   1.00
C7     C     0.13906   0.21812   0.09959   0.00000  Uiso   1.00
C8     C     0.20689   0.26929   0.40255   0.00000  Uiso   1.00
C9     C     0.13879   0.21799   0.04901   0.00000  Uiso   1.00
C10    C     0.20681   0.26868   0.45304   0.00000  Uiso   1.00
C11    C     0.16509   0.25115   0.02713   0.00000  Uiso   1.00
C12    C     0.16484   0.25069   0.47263   0.00000  Uiso   1.00
C13    C     0.06787   0.25012   0.23746   0.00000  Uiso   1.00
C14    C     0.26548   0.25039   0.26256   0.00000  Uiso   1.00
C15    C     0.01245   0.25018   0.23065   0.00000  Uiso   1.00
C16    C     0.32091   0.25063   0.26939   0.00000  Uiso   1.00
C17    C     0.13148   0.04617   0.26513   0.00000  Uiso   1.00
C18    C     0.17572   0.45471   0.21299   0.00000  Uiso   1.00
C19    C     0.12716   0.09170   0.26296   0.00000  Uiso   1.00
C20    C     0.16732   0.40923   0.20894   0.00000  Uiso   1.00
C21    C     0.16841   0.11718   0.24923   0.00000  Uiso   1.00
C22    C     0.16153   0.38453   0.25106   0.00000  Uiso   1.00
C23    C     0.21342   0.09684   0.23798   0.00000  Uiso   1.00
C24    C     0.15776   0.40785   0.29550   0.00000  Uiso   1.00
C25    C     0.21822   0.05068   0.24261   0.00000  Uiso   1.00
C26    C     0.16687   0.45410   0.29876   0.00000  Uiso   1.00
C27    C     0.17637   0.02566   0.25604   0.00000  Uiso   1.00
C28    C     0.17596   0.47710   0.25704   0.00000  Uiso   1.00
Cu29   Cu    0.16667   0.24999   0.29822   0.00000  Uiso   1.00
Cu30   Cu    0.16667   0.25000   0.20179   0.00000  Uiso   1.00
H31    H     0.21312   0.31081   0.04387   0.00000  Uiso   1.00
H32    H     0.08975   0.21774   0.45201   0.00000  Uiso   1.00
H33    H     0.11812   0.19152   0.02704   0.00000  Uiso   1.00
H34    H     0.23993   0.28266   0.47690   0.00000  Uiso   1.00
N35    N     0.16667   0.25001   0.12935   0.00000  Uiso   1.00
N36    N     0.16667   0.24999   0.37066   0.00000  Uiso   1.00
O37    O     0.16667   0.18572   0.29072   0.00000  Uiso   1.00
O38    O     0.16666   0.31427   0.20929   0.00000  Uiso   1.00
O39    O     0.16667   0.18573   0.20928   0.00000  Uiso   1.00
O40    O     0.16666   0.31427   0.29072   0.00000  Uiso   1.00
O41    O     0.09161   0.24999   0.28132   0.00000  Uiso   1.00
O42    O     0.24172   0.25000   0.21868   0.00000  Uiso   1.00
O43    O     0.09161   0.25000   0.19989   0.00000  Uiso   1.00
O44    O     0.24172   0.25000   0.30012   0.00000  Uiso   1.00
H45    H     0.32540   0.24975   0.19364   0.00000  Uiso   1.00
H46    H     0.00796   0.25099   0.30640   0.00000  Uiso   1.00
H47    H     0.09922   0.02603   0.27370   0.00000  Uiso   1.00
H48    H     0.17939   0.47349   0.18068   0.00000  Uiso   1.00
C49    C     0.07882   0.11100   0.27511   0.00000  Uiso   1.00
O50    O     0.06342   0.14583   0.25757   0.00000  Uiso   1.00
O51    O     0.05031   0.08854   0.30637   0.00000  Uiso   1.00
H52    H     0.01879   0.10501   0.31293   0.00000  Uiso   1.00
C53    C     0.16129   0.39020   0.15900   0.00000  Uiso   1.00
O54    O     0.12287   0.36757   0.14325   0.00000  Uiso   1.00
O55    O     0.19796   0.40071   0.12885   0.00000  Uiso   1.00
H56    H     0.18900   0.38683   0.09516   0.00000  Uiso   1.00
C57    C     0.25666   0.12470   0.22524   0.00000  Uiso   1.00
O58    O     0.28268   0.14769   0.25663   0.00000  Uiso   1.00
O59    O     0.26605   0.12598   0.17712   0.00000  Uiso   1.00
H60    H     0.29606   0.14675   0.17295   0.00000  Uiso   1.00
C61    C     0.14178   0.38477   0.33796   0.00000  Uiso   1.00
O62    O     0.16883   0.38776   0.37774   0.00000  Uiso   1.00
O63    O     0.09546   0.35979   0.33219   0.00000  Uiso   1.00
H64    H     0.08892   0.34526   0.36340   0.00000  Uiso   1.00
C65    C     0.26749   0.02895   0.23672   0.00000  Uiso   1.00
O66    O     0.28426   0.00044   0.26501   0.00000  Uiso   1.00
O67    O     0.29469   0.04085   0.19905   0.00000  Uiso   1.00
H68    H     0.32771   0.02399   0.19944   0.00000  Uiso   1.00
C69    C     0.16566   0.47898   0.34518   0.00000  Uiso   1.00
O70    O     0.20088   0.00521   0.36047   0.00000  Uiso   1.00
O71    O     0.12376   0.47322   0.37061   0.00000  Uiso   1.00
H72    H     0.12729   0.49227   0.40126   0.00000  Uiso   1.00
H73    H     0.21535   0.30726   0.13216   0.00000  Uiso   1.00
H74    H     0.09395   0.21600   0.36460   0.00000  Uiso   1.00
C75    C     0.10908   0.18251   0.11875   0.00000  Uiso   1.00
O76    O     0.06646   0.18965   0.12961   0.00000  Uiso   1.00
O77    O     0.12808   0.13978   0.12111   0.00000  Uiso   1.00
H78    H     0.10397   0.11790   0.13440   0.00000  Uiso   1.00
C79    C     0.25198   0.29159   0.38650   0.00000  Uiso   1.00
O80    O     0.24641   0.32350   0.36018   0.00000  Uiso   1.00
O81    O     0.30161   0.27747   0.40396   0.00000  Uiso   1.00
H82    H     0.32966   0.29552   0.39107   0.00000  Uiso   1.00
C83    C     0.49979   0.16521   0.24963   0.00000  Uiso   1.00
C84    C     0.49733   0.33532   0.25002   0.00000  Uiso   1.00
C85    C     0.52592   0.28380   0.05830   0.00000  Uiso   1.00
C86    C     0.45705   0.23178   0.43944   0.00000  Uiso   1.00
C87    C     0.52676   0.28226   0.10904   0.00000  Uiso   1.00
C88    C     0.45906   0.23126   0.38900   0.00000  Uiso   1.00
C89    C     0.47239   0.21812   0.09959   0.00000  Uiso   1.00
C90    C     0.54022   0.26929   0.40255   0.00000  Uiso   1.00
C91    C     0.47212   0.21799   0.04901   0.00000  Uiso   1.00
C92    C     0.54014   0.26868   0.45304   0.00000  Uiso   1.00
C93    C     0.49842   0.25115   0.02713   0.00000  Uiso   1.00
C94    C     0.49818   0.25069   0.47263   0.00000  Uiso   1.00
C95    C     0.40120   0.25012   0.23746   0.00000  Uiso   1.00
C96    C     0.59881   0.25039   0.26256   0.00000  Uiso   1.00
C97    C     0.34579   0.25018   0.23065   0.00000  Uiso   1.00
C98    C     0.65425   0.25063   0.26939   0.00000  Uiso   1.00
C99    C     0.46481   0.04617   0.26513   0.00000  Uiso   1.00
C100   C     0.50906   0.45471   0.21299   0.00000  Uiso   1.00
C101   C     0.46050   0.09170   0.26296   0.00000  Uiso   1.00
C102   C     0.50065   0.40923   0.20894   0.00000  Uiso   1.00
C103   C     0.50175   0.11718   0.24923   0.00000  Uiso   1.00
C104   C     0.49487   0.38453   0.25106   0.00000  Uiso   1.00
C105   C     0.54676   0.09684   0.23798   0.00000  Uiso   1.00
C106   C     0.49109   0.40785   0.29550   0.00000  Uiso   1.00
C107   C     0.55155   0.05068   0.24261   0.00000  Uiso   1.00
C108   C     0.50020   0.45410   0.29876   0.00000  Uiso   1.00
C109   C     0.50970   0.02566   0.25604   0.00000  Uiso   1.00
C110   C     0.50929   0.47710   0.25704   0.00000  Uiso   1.00
Cu111  Cu    0.50000   0.24999   0.29822   0.00000  Uiso   1.00
Cu112  Cu    0.50000   0.25000   0.20179   0.00000  Uiso   1.00
H113   H     0.54645   0.31081   0.04387   0.00000  Uiso   1.00
H114   H     0.42308   0.21774   0.45201   0.00000  Uiso   1.00
H115   H     0.45145   0.19152   0.02704   0.00000  Uiso   1.00
H116   H     0.57326   0.28266   0.47690   0.00000  Uiso   1.00
N117   N     0.50000   0.25001   0.12935   0.00000  Uiso   1.00
N118   N     0.50000   0.24999   0.37066   0.00000  Uiso   1.00
O119   O     0.50000   0.18572   0.29072   0.00000  Uiso   1.00
O120   O     0.50000   0.31427   0.20929   0.00000  Uiso   1.00
O121   O     0.50000   0.18573   0.20928   0.00000  Uiso   1.00
O122   O     0.50000   0.31427   0.29072   0.00000  Uiso   1.00
O123   O     0.42495   0.24999   0.28132   0.00000  Uiso   1.00
O124   O     0.57505   0.25000   0.21868   0.00000  Uiso   1.00
O125   O     0.42495   0.25000   0.19989   0.00000  Uiso   1.00
O126   O     0.57505   0.25000   0.30012   0.00000  Uiso   1.00
H127   H     0.65874   0.24975   0.19364   0.00000  Uiso   1.00
H128   H     0.34129   0.25099   0.30640   0.00000  Uiso   1.00
H129   H     0.43256   0.02603   0.27370   0.00000  Uiso   1.00
H130   H     0.51272   0.47349   0.18068   0.00000  Uiso   1.00
C131   C     0.41216   0.11100   0.27511   0.00000  Uiso   1.00
O132   O     0.39676   0.14583   0.25757   0.00000  Uiso   1.00
O133   O     0.38364   0.08854   0.30637   0.00000  Uiso   1.00
H134   H     0.35213   0.10501   0.31293   0.00000  Uiso   1.00
C135   C     0.49463   0.39020   0.15900   0.00000  Uiso   1.00
O136   O     0.45621   0.36757   0.14325   0.00000  Uiso   1.00
O137   O     0.53129   0.40071   0.12885   0.00000  Uiso   1.00
H138   H     0.52233   0.38683   0.09516   0.00000  Uiso   1.00
C139   C     0.58999   0.12470   0.22524   0.00000  Uiso   1.00
O140   O     0.61602   0.14769   0.25663   0.00000  Uiso   1.00
O141   O     0.59939   0.12598   0.17712   0.00000  Uiso   1.00
H142   H     0.62939   0.14675   0.17295   0.00000  Uiso   1.00
C143   C     0.47511   0.38477   0.33796   0.00000  Uiso   1.00
O144   O     0.50217   0.38776   0.37774   0.00000  Uiso   1.00
O145   O     0.42879   0.35979   0.33219   0.00000  Uiso   1.00
H146   H     0.42226   0.34526   0.36340   0.00000  Uiso   1.00
C147   C     0.60082   0.02895   0.23672   0.00000  Uiso   1.00
O148   O     0.61759   0.00044   0.26501   0.00000  Uiso   1.00
O149   O     0.62803   0.04085   0.19905   0.00000  Uiso   1.00
H150   H     0.66104   0.02399   0.19944   0.00000  Uiso   1.00
C151   C     0.49900   0.47898   0.34518   0.00000  Uiso   1.00
O152   O     0.53421   0.00521   0.36047   0.00000  Uiso   1.00
O153   O     0.45710   0.47322   0.37061   0.00000  Uiso   1.00
H154   H     0.46062   0.49227   0.40126   0.00000  Uiso   1.00
H155   H     0.54868   0.30726   0.13216   0.00000  Uiso   1.00
H156   H     0.42729   0.21600   0.36460   0.00000  Uiso   1.00
C157   C     0.44241   0.18251   0.11875   0.00000  Uiso   1.00
O158   O     0.39980   0.18965   0.12961   0.00000  Uiso   1.00
O159   O     0.46141   0.13978   0.12111   0.00000  Uiso   1.00
H160   H     0.43730   0.11790   0.13440   0.00000  Uiso   1.00
C161   C     0.58531   0.29159   0.38650   0.00000  Uiso   1.00
O162   O     0.57974   0.32350   0.36018   0.00000  Uiso   1.00
O163   O     0.63495   0.27747   0.40396   0.00000  Uiso   1.00
H164   H     0.66299   0.29552   0.39107   0.00000  Uiso   1.00
C165   C     0.83312   0.16521   0.24963   0.00000  Uiso   1.00
C166   C     0.83066   0.33532   0.25002   0.00000  Uiso   1.00
C167   C     0.85925   0.28380   0.05830   0.00000  Uiso   1.00
C168   C     0.79039   0.23178   0.43944   0.00000  Uiso   1.00
C169   C     0.86009   0.28226   0.10904   0.00000  Uiso   1.00
C170   C     0.79239   0.23126   0.38900   0.00000  Uiso   1.00
C171   C     0.80573   0.21812   0.09959   0.00000  Uiso   1.00
C172   C     0.87355   0.26929   0.40255   0.00000  Uiso   1.00
C173   C     0.80545   0.21799   0.04901   0.00000  Uiso   1.00
C174   C     0.87347   0.26868   0.45304   0.00000  Uiso   1.00
C175   C     0.83176   0.25115   0.02713   0.00000  Uiso   1.00
C176   C     0.83151   0.25069   0.47263   0.00000  Uiso   1.00
C177   C     0.73454   0.25012   0.23746   0.00000  Uiso   1.00
C178   C     0.93214   0.25039   0.26256   0.00000  Uiso   1.00
C179   C     0.67912   0.25018   0.23065   0.00000  Uiso   1.00
C180   C     0.98758   0.25063   0.26939   0.00000  Uiso   1.00
C181   C     0.79814   0.04617   0.26513   0.00000  Uiso   1.00
C182   C     0.84239   0.45471   0.21299   0.00000  Uiso   1.00
C183   C     0.79383   0.09170   0.26296   0.00000  Uiso   1.00
C184   C     0.83398   0.40923   0.20894   0.00000  Uiso   1.00
C185   C     0.83508   0.11718   0.24923   0.00000  Uiso   1.00
C186   C     0.82820   0.38453   0.25106   0.00000  Uiso   1.00
C187   C     0.88009   0.09684   0.23798   0.00000  Uiso   1.00
C188   C     0.82442   0.40785   0.29550   0.00000  Uiso   1.00
C189   C     0.88489   0.05068   0.24261   0.00000  Uiso   1.00
C190   C     0.83354   0.45410   0.29876   0.00000  Uiso   1.00
C191   C     0.84303   0.02566   0.25604   0.00000  Uiso   1.00
C192   C     0.84262   0.47710   0.25704   0.00000  Uiso   1.00
Cu193  Cu    0.83333   0.24999   0.29822   0.00000  Uiso   1.00
Cu194  Cu    0.83333   0.25000   0.20179   0.00000  Uiso   1.00
H195   H     0.87978   0.31081   0.04387   0.00000  Uiso   1.00
H196   H     0.75641   0.21774   0.45201   0.00000  Uiso   1.00
H197   H     0.78478   0.19152   0.02704   0.00000  Uiso   1.00
H198   H     0.90660   0.28266   0.47690   0.00000  Uiso   1.00
N199   N     0.83333   0.25001   0.12935   0.00000  Uiso   1.00
N200   N     0.83333   0.24999   0.37066   0.00000  Uiso   1.00
O201   O     0.83334   0.18572   0.29072   0.00000  Uiso   1.00
O202   O     0.83333   0.31427   0.20929   0.00000  Uiso   1.00
O203   O     0.83334   0.18573   0.20928   0.00000  Uiso   1.00
O204   O     0.83333   0.31427   0.29072   0.00000  Uiso   1.00
O205   O     0.75828   0.24999   0.28132   0.00000  Uiso   1.00
O206   O     0.90839   0.25000   0.21868   0.00000  Uiso   1.00
O207   O     0.75828   0.25000   0.19989   0.00000  Uiso   1.00
O208   O     0.90839   0.25000   0.30012   0.00000  Uiso   1.00
H209   H     0.99207   0.24975   0.19364   0.00000  Uiso   1.00
H210   H     0.67462   0.25099   0.30640   0.00000  Uiso   1.00
H211   H     0.76589   0.02603   0.27370   0.00000  Uiso   1.00
H212   H     0.84606   0.47349   0.18068   0.00000  Uiso   1.00
C213   C     0.74549   0.11100   0.27511   0.00000  Uiso   1.00
O214   O     0.73009   0.14583   0.25757   0.00000  Uiso   1.00
O215   O     0.71697   0.08854   0.30637   0.00000  Uiso   1.00
H216   H     0.68546   0.10501   0.31293   0.00000  Uiso   1.00
C217   C     0.82796   0.39020   0.15900   0.00000  Uiso   1.00
O218   O     0.78954   0.36757   0.14325   0.00000  Uiso   1.00
O219   O     0.86463   0.40071   0.12885   0.00000  Uiso   1.00
H220   H     0.85566   0.38683   0.09516   0.00000  Uiso   1.00
C221   C     0.92333   0.12470   0.22524   0.00000  Uiso   1.00
O222   O     0.94935   0.14769   0.25663   0.00000  Uiso   1.00
O223   O     0.93272   0.12598   0.17712   0.00000  Uiso   1.00
H224   H     0.96272   0.14675   0.17295   0.00000  Uiso   1.00
C225   C     0.80844   0.38477   0.33796   0.00000  Uiso   1.00
O226   O     0.83550   0.38776   0.37774   0.00000  Uiso   1.00
O227   O     0.76213   0.35979   0.33219   0.00000  Uiso   1.00
H228   H     0.75559   0.34526   0.36340   0.00000  Uiso   1.00
C229   C     0.93416   0.02895   0.23672   0.00000  Uiso   1.00
O230   O     0.95093   0.00044   0.26501   0.00000  Uiso   1.00
O231   O     0.96136   0.04085   0.19905   0.00000  Uiso   1.00
H232   H     0.99437   0.02399   0.19944   0.00000  Uiso   1.00
C233   C     0.83233   0.47898   0.34518   0.00000  Uiso   1.00
O234   O     0.86754   0.00521   0.36047   0.00000  Uiso   1.00
O235   O     0.79043   0.47322   0.37061   0.00000  Uiso   1.00
H236   H     0.79396   0.49227   0.40126   0.00000  Uiso   1.00
H237   H     0.88201   0.30726   0.13216   0.00000  Uiso   1.00
H238   H     0.76062   0.21600   0.36460   0.00000  Uiso   1.00
C239   C     0.77574   0.18251   0.11875   0.00000  Uiso   1.00
O240   O     0.73313   0.18965   0.12961   0.00000  Uiso   1.00
O241   O     0.79475   0.13978   0.12111   0.00000  Uiso   1.00
H242   H     0.77063   0.11790   0.13440   0.00000  Uiso   1.00
C243   C     0.91865   0.29159   0.38650   0.00000  Uiso   1.00
O244   O     0.91308   0.32350   0.36018   0.00000  Uiso   1.00
O245   O     0.96828   0.27747   0.40396   0.00000  Uiso   1.00
H246   H     0.99632   0.29552   0.39107   0.00000  Uiso   1.00
C247   C     0.16646   0.66521   0.24963   0.00000  Uiso   1.00
C248   C     0.16399   0.83532   0.25002   0.00000  Uiso   1.00
C249   C     0.19259   0.78380   0.05830   0.00000  Uiso   1.00
C250   C     0.12372   0.73178   0.43944   0.00000  Uiso   1.00
C251   C     0.19343   0.78226   0.10904   0.00000  Uiso   1.00
C252   C     0.12572   0.73126   0.38900   0.00000  Uiso   1.00
C253   C     0.13906   0.71812   0.09959   0.00000  Uiso   1.00
C254   C     0.20689   0.76929   0.40255   0.00000  Uiso   1.00
C255   C     0.13879   0.71799   0.04901   0.00000  Uiso   1.00
C256   C     0.20681   0.76868   0.45304   0.00000  Uiso   1.00
C257   C     0.16509   0.75115   0.02713   0.00000  Uiso   1.00
C258   C     0.16484   0.75069   0.47263   0.00000  Uiso   1.00
C259   C     0.06787   0.75012   0.23746   0.00000  Uiso   1.00
C260   C     0.26548   0.75039   0.26256   0.00000  Uiso   1.00
C261   C     0.01245   0.75018   0.23065   0.00000  Uiso   1.00
C262   C     0.32091   0.75063   0.26939   0.00000  Uiso   1.00
C263   C     0.13148   0.54617   0.26513   0.00000  Uiso   1.00
C264   C     0.17572   0.95471   0.21299   0.00000  Uiso   1.00
C265   C     0.12716   0.59170   0.26296   0.00000  Uiso   1.00
C266   C     0.16732   0.90923   0.20894   0.00000  Uiso   1.00
C267   C     0.16841   0.61718   0.24923   0.00000  Uiso   1.00
C268   C     0.16153   0.88453   0.25106   0.00000  Uiso   1.00
C269   C     0.21342   0.59684   0.23798   0.00000  Uiso   1.00
C270   C     0.15776   0.90785   0.29550   0.00000  Uiso   1.00
C271   C     0.21822   0.55068   0.24261   0.00000  Uiso   1.00
C272   C     0.16687   0.95410   0.29876   0.00000  Uiso   1.00
C273   C     0.17637   0.52566   0.25604   0.00000  Uiso   1.00
C274   C     0.17596   0.97710   0.25704   0.00000  Uiso   1.00
Cu275  Cu    0.16667   0.74999   0.29822   0.00000  Uiso   1.00
Cu276  Cu    0.16667   0.75000   0.20179   0.00000  Uiso   1.00
H277   H     0.21312   0.81081   0.04387   0.00000  Uiso   1.00
H278   H     0.08975   0.71774   0.45201   0.00000  Uiso   1.00
H279   H     0.11812   0.69152   0.02704   0.00000  Uiso   1.00
H280   H     0.23993   0.78266   0.47690   0.00000  Uiso   1.00
N281   N     0.16667   0.75001   0.12935   0.00000  Uiso   1.00
N282   N     0.16667   0.74999   0.37066   0.00000  Uiso   1.00
O283   O     0.16667   0.68572   0.29072   0.00000  Uiso   1.00
O284   O     0.16666   0.81427   0.20929   0.00000  Uiso   1.00
O285   O     0.16667   0.68573   0.20928   0.00000  Uiso   1.00
O286   O     0.16666   0.81427   0.29072   0.00000  Uiso   1.00
O287   O     0.09161   0.74999   0.28132   0.00000  Uiso   1.00
O288   O     0.24172   0.75000   0.21868   0.00000  Uiso   1.00
O289   O     0.09161   0.75000   0.19989   0.00000  Uiso   1.00
O290   O     0.24172   0.75000   0.30012   0.00000  Uiso   1.00
H291   H     0.32540   0.74975   0.19364   0.00000  Uiso   1.00
H292   H     0.00796   0.75099   0.30640   0.00000  Uiso   1.00
H293   H     0.09922   0.52603   0.27370   0.00000  Uiso   1.00
H294   H     0.17939   0.97349   0.18068   0.00000  Uiso   1.00
C295   C     0.07882   0.61100   0.27511   0.00000  Uiso   1.00
O296   O     0.06342   0.64583   0.25757   0.00000  Uiso   1.00
O297   O     0.05031   0.58854   0.30637   0.00000  Uiso   1.00
H298   H     0.01879   0.60501   0.31293   0.00000  Uiso   1.00
C299   C     0.16129   0.89020   0.15900   0.00000  Uiso   1.00
O300   O     0.12287   0.86757   0.14325   0.00000  Uiso   1.00
O301   O     0.19796   0.90071   0.12885   0.00000  Uiso   1.00
H302   H     0.18900   0.88683   0.09516   0.00000  Uiso   1.00
C303   C     0.25666   0.62470   0.22524   0.00000  Uiso   1.00
O304   O     0.28268   0.64769   0.25663   0.00000  Uiso   1.00
O305   O     0.26605   0.62598   0.17712   0.00000  Uiso   1.00
H306   H     0.29606   0.64675   0.17295   0.00000  Uiso   1.00
C307   C     0.14178   0.88477   0.33796   0.00000  Uiso   1.00
O308   O     0.16883   0.88776   0.37774   0.00000  Uiso   1.00
O309   O     0.09546   0.85979   0.33219   0.00000  Uiso   1.00
H310   H     0.08892   0.84526   0.36340   0.00000  Uiso   1.00
C311   C     0.26749   0.52895   0.23672   0.00000  Uiso   1.00
O312   O     0.28426   0.50044   0.26501   0.00000  Uiso   1.00
O313   O     0.29469   0.54085   0.19905   0.00000  Uiso   1.00
H314   H     0.32771   0.52399   0.19944   0.00000  Uiso   1.00
C315   C     0.16566   0.97898   0.34518   0.00000  Uiso   1.00
O316   O     0.20088   0.50521   0.36047   0.00000  Uiso   1.00
O317   O     0.12376   0.97322   0.37061   0.00000  Uiso   1.00
H318   H     0.12729   0.99227   0.40126   0.00000  Uiso   1.00
H319   H     0.21535   0.80726   0.13216   0.00000  Uiso   1.00
H320   H     0.09395   0.71600   0.36460   0.00000  Uiso   1.00
C321   C     0.10908   0.68251   0.11875   0.00000  Uiso   1.00
O322   O     0.06646   0.68965   0.12961   0.00000  Uiso   1.00
O323   O     0.12808   0.63978   0.12111   0.00000  Uiso   1.00
H324   H     0.10397   0.61790   0.13440   0.00000  Uiso   1.00
C325   C     0.25198   0.79159   0.38650   0.00000  Uiso   1.00
O326   O     0.24641   0.82350   0.36018   0.00000  Uiso   1.00
O327   O     0.30161   0.77747   0.40396   0.00000  Uiso   1.00
H328   H     0.32966   0.79552   0.39107   0.00000  Uiso   1.00
C329   C     0.49979   0.66521   0.24963   0.00000  Uiso   1.00
C330   C     0.49733   0.83532   0.25002   0.00000  Uiso   1.00
C331   C     0.52592   0.78380   0.05830   0.00000  Uiso   1.00
C332   C     0.45705   0.73178   0.43944   0.00000  Uiso   1.00
C333   C     0.52676   0.78226   0.10904   0.00000  Uiso   1.00
C334   C     0.45906   0.73126   0.38900   0.00000  Uiso   1.00
C335   C     0.47239   0.71812   0.09959   0.00000  Uiso   1.00
C336   C     0.54022   0.76929   0.40255   0.00000  Uiso   1.00
C337   C     0.47212   0.71799   0.04901   0.00000  Uiso   1.00
C338   C     0.54014   0.76868   0.45304   0.00000  Uiso   1.00
C339   C     0.49842   0.75115   0.02713   0.00000  Uiso   1.00
C340   C     0.49818   0.75069   0.47263   0.00000  Uiso   1.00
C341   C     0.40120   0.75012   0.23746   0.00000  Uiso   1.00
C342   C     0.59881   0.75039   0.26256   0.00000  Uiso   1.00
C343   C     0.34579   0.75018   0.23065   0.00000  Uiso   1.00
C344   C     0.65425   0.75063   0.26939   0.00000  Uiso   1.00
C345   C     0.46481   0.54617   0.26513   0.00000  Uiso   1.00
C346   C     0.50906   0.95471   0.21299   0.00000  Uiso   1.00
C347   C     0.46050   0.59170   0.26296   0.00000  Uiso   1.00
C348   C     0.50065   0.90923   0.20894   0.00000  Uiso   1.00
C349   C     0.50175   0.61718   0.24923   0.00000  Uiso   1.00
C350   C     0.49487   0.88453   0.25106   0.00000  Uiso   1.00
C351   C     0.54676   0.59684   0.23798   0.00000  Uiso   1.00
C352   C     0.49109   0.90785   0.29550   0.00000  Uiso   1.00
C353   C     0.55155   0.55068   0.24261   0.00000  Uiso   1.00
C354   C     0.50020   0.95410   0.29876   0.00000  Uiso   1.00
C355   C     0.50970   0.52566   0.25604   0.00000  Uiso   1.00
C356   C     0.50929   0.97710   0.25704   0.00000  Uiso   1.00
Cu357  Cu    0.50000   0.74999   0.29822   0.00000  Uiso   1.00
Cu358  Cu    0.50000   0.75000   0.20179   0.00000  Uiso   1.00
H359   H     0.54645   0.81081   0.04387   0.00000  Uiso   1.00
H360   H     0.42308   0.71774   0.45201   0.00000  Uiso   1.00
H361   H     0.45145   0.69152   0.02704   0.00000  Uiso   1.00
H362   H     0.57326   0.78266   0.47690   0.00000  Uiso   1.00
N363   N     0.50000   0.75001   0.12935   0.00000  Uiso   1.00
N364   N     0.50000   0.74999   0.37066   0.00000  Uiso   1.00
O365   O     0.50000   0.68572   0.29072   0.00000  Uiso   1.00
O366   O     0.50000   0.81427   0.20929   0.00000  Uiso   1.00
O367   O     0.50000   0.68573   0.20928   0.00000  Uiso   1.00
O368   O     0.50000   0.81427   0.29072   0.00000  Uiso   1.00
O369   O     0.42495   0.74999   0.28132   0.00000  Uiso   1.00
O370   O     0.57505   0.75000   0.21868   0.00000  Uiso   1.00
O371   O     0.42495   0.75000   0.19989   0.00000  Uiso   1.00
O372   O     0.57505   0.75000   0.30012   0.00000  Uiso   1.00
H373   H     0.65874   0.74975   0.19364   0.00000  Uiso   1.00
H374   H     0.34129   0.75099   0.30640   0.00000  Uiso   1.00
H375   H     0.43256   0.52603   0.27370   0.00000  Uiso   1.00
H376   H     0.51272   0.97349   0.18068   0.00000  Uiso   1.00
C377   C     0.41216   0.61100   0.27511   0.00000  Uiso   1.00
O378   O     0.39676   0.64583   0.25757   0.00000  Uiso   1.00
O379   O     0.38364   0.58854   0.30637   0.00000  Uiso   1.00
H380   H     0.35213   0.60501   0.31293   0.00000  Uiso   1.00
C381   C     0.49463   0.89020   0.15900   0.00000  Uiso   1.00
O382   O     0.45621   0.86757   0.14325   0.00000  Uiso   1.00
O383   O     0.53129   0.90071   0.12885   0.00000  Uiso   1.00
H384   H     0.52233   0.88683   0.09516   0.00000  Uiso   1.00
C385   C     0.58999   0.62470   0.22524   0.00000  Uiso   1.00
O386   O     0.61602   0.64769   0.25663   0.00000  Uiso   1.00
O387   O     0.59939   0.62598   0.17712   0.00000  Uiso   1.00
H388   H     0.62939   0.64675   0.17295   0.00000  Uiso   1.00
C389   C     0.47511   0.88477   0.33796   0.00000  Uiso   1.00
O390   O     0.50217   0.88776   0.37774   0.00000  Uiso   1.00
O391   O     0.42879   0.85979   0.33219   0.00000  Uiso   1.00
H392   H     0.42226   0.84526   0.36340   0.00000  Uiso   1.00
C393   C     0.60082   0.52895   0.23672   0.00000  Uiso   1.00
O394   O     0.61759   0.50044   0.26501   0.00000  Uiso   1.00
O395   O     0.62803   0.54085   0.19905   0.00000  Uiso   1.00
H396   H     0.66104   0.52399   0.19944   0.00000  Uiso   1.00
C397   C     0.49900   0.97898   0.34518   0.00000  Uiso   1.00
O398   O     0.53421   0.50521   0.36047   0.00000  Uiso   1.00
O399   O     0.45710   0.97322   0.37061   0.00000  Uiso   1.00
H400   H     0.46062   0.99227   0.40126   0.00000  Uiso   1.00
H401   H     0.54868   0.80726   0.13216   0.00000  Uiso   1.00
H402   H     0.42729   0.71600   0.36460   0.00000  Uiso   1.00
C403   C     0.44241   0.68251   0.11875   0.00000  Uiso   1.00
O404   O     0.39980   0.68965   0.12961   0.00000  Uiso   1.00
O405   O     0.46141   0.63978   0.12111   0.00000  Uiso   1.00
H406   H     0.43730   0.61790   0.13440   0.00000  Uiso   1.00
C407   C     0.58531   0.79159   0.38650   0.00000  Uiso   1.00
O408   O     0.57974   0.82350   0.36018   0.00000  Uiso   1.00
O409   O     0.63495   0.77747   0.40396   0.00000  Uiso   1.00
H410   H     0.66299   0.79552   0.39107   0.00000  Uiso   1.00
C411   C     0.83312   0.66521   0.24963   0.00000  Uiso   1.00
C412   C     0.83066   0.83532   0.25002   0.00000  Uiso   1.00
C413   C     0.85925   0.78380   0.05830   0.00000  Uiso   1.00
C414   C     0.79039   0.73178   0.43944   0.00000  Uiso   1.00
C415   C     0.86009   0.78226   0.10904   0.00000  Uiso   1.00
C416   C     0.79239   0.73126   0.38900   0.00000  Uiso   1.00
C417   C     0.80573   0.71812   0.09959   0.00000  Uiso   1.00
C418   C     0.87355   0.76929   0.40255   0.00000  Uiso   1.00
C419   C     0.80545   0.71799   0.04901   0.00000  Uiso   1.00
C420   C     0.87347   0.76868   0.45304   0.00000  Uiso   1.00
C421   C     0.83176   0.75115   0.02713   0.00000  Uiso   1.00
C422   C     0.83151   0.75069   0.47263   0.00000  Uiso   1.00
C423   C     0.73454   0.75012   0.23746   0.00000  Uiso   1.00
C424   C     0.93214   0.75039   0.26256   0.00000  Uiso   1.00
C425   C     0.67912   0.75018   0.23065   0.00000  Uiso   1.00
C426   C     0.98758   0.75063   0.26939   0.00000  Uiso   1.00
C427   C     0.79814   0.54617   0.26513   0.00000  Uiso   1.00
C428   C     0.84239   0.95471   0.21299   0.00000  Uiso   1.00
C429   C     0.79383   0.59170   0.26296   0.00000  Uiso   1.00
C430   C     0.83398   0.90923   0.20894   0.00000  Uiso   1.00
C431   C     0.83508   0.61718   0.24923   0.00000  Uiso   1.00
C432   C     0.82820   0.88453   0.25106   0.00000  Uiso   1.00
C433   C     0.88009   0.59684   0.23798   0.00000  Uiso   1.00
C434   C     0.82442   0.90785   0.29550   0.00000  Uiso   1.00
C435   C     0.88489   0.55068   0.24261   0.00000  Uiso   1.00
C436   C     0.83354   0.95410   0.29876   0.00000  Uiso   1.00
C437   C     0.84303   0.52566   0.25604   0.00000  Uiso   1.00
C438   C     0.84262   0.97710   0.25704   0.00000  Uiso   1.00
Cu439  Cu    0.83333   0.74999   0.29822   0.00000  Uiso   1.00
Cu440  Cu    0.83333   0.75000   0.20179   0.00000  Uiso   1.00
H441   H     0.87978   0.81081   0.04387   0.00000  Uiso   1.00
H442   H     0.75641   0.71774   0.45201   0.00000  Uiso   1.00
H443   H     0.78478   0.69152   0.02704   0.00000  Uiso   1.00
H444   H     0.90660   0.78266   0.47690   0.00000  Uiso   1.00
N445   N     0.83333   0.75001   0.12935   0.00000  Uiso   1.00
N446   N     0.83333   0.74999   0.37066   0.00000  Uiso   1.00
O447   O     0.83334   0.68572   0.29072   0.00000  Uiso   1.00
O448   O     0.83333   0.81427   0.20929   0.00000  Uiso   1.00
O449   O     0.83334   0.68573   0.20928   0.00000  Uiso   1.00
O450   O     0.83333   0.81427   0.29072   0.00000  Uiso   1.00
O451   O     0.75828   0.74999   0.28132   0.00000  Uiso   1.00
O452   O     0.90839   0.75000   0.21868   0.00000  Uiso   1.00
O453   O     0.75828   0.75000   0.19989   0.00000  Uiso   1.00
O454   O     0.90839   0.75000   0.30012   0.00000  Uiso   1.00
H455   H     0.99207   0.74975   0.19364   0.00000  Uiso   1.00
H456   H     0.67462   0.75099   0.30640   0.00000  Uiso   1.00
H457   H     0.76589   0.52603   0.27370   0.00000  Uiso   1.00
H458   H     0.84606   0.97349   0.18068   0.00000  Uiso   1.00
C459   C     0.74549   0.61100   0.27511   0.00000  Uiso   1.00
O460   O     0.73009   0.64583   0.25757   0.00000  Uiso   1.00
O461   O     0.71697   0.58854   0.30637   0.00000  Uiso   1.00
H462   H     0.68546   0.60501   0.31293   0.00000  Uiso   1.00
C463   C     0.82796   0.89020   0.15900   0.00000  Uiso   1.00
O464   O     0.78954   0.86757   0.14325   0.00000  Uiso   1.00
O465   O     0.86463   0.90071   0.12885   0.00000  Uiso   1.00
H466   H     0.85566   0.88683   0.09516   0.00000  Uiso   1.00
C467   C     0.92333   0.62470   0.22524   0.00000  Uiso   1.00
O468   O     0.94935   0.64769   0.25663   0.00000  Uiso   1.00
O469   O     0.93272   0.62598   0.17712   0.00000  Uiso   1.00
H470   H     0.96272   0.64675   0.17295   0.00000  Uiso   1.00
C471   C     0.80844   0.88477   0.33796   0.00000  Uiso   1.00
O472   O     0.83550   0.88776   0.37774   0.00000  Uiso   1.00
O473   O     0.76213   0.85979   0.33219   0.00000  Uiso   1.00
H474   H     0.75559   0.84526   0.36340   0.00000  Uiso   1.00
C475   C     0.93416   0.52895   0.23672   0.00000  Uiso   1.00
O476   O     0.95093   0.50044   0.26501   0.00000  Uiso   1.00
O477   O     0.96136   0.54085   0.19905   0.00000  Uiso   1.00
H478   H     0.99437   0.52399   0.19944   0.00000  Uiso   1.00
C479   C     0.83233   0.97898   0.34518   0.00000  Uiso   1.00
O480   O     0.86754   0.50521   0.36047   0.00000  Uiso   1.00
O481   O     0.79043   0.97322   0.37061   0.00000  Uiso   1.00
H482   H     0.79396   0.99227   0.40126   0.00000  Uiso   1.00
H483   H     0.88201   0.80726   0.13216   0.00000  Uiso   1.00
H484   H     0.76062   0.71600   0.36460   0.00000  Uiso   1.00
C485   C     0.77574   0.68251   0.11875   0.00000  Uiso   1.00
O486   O     0.73313   0.68965   0.12961   0.00000  Uiso   1.00
O487   O     0.79475   0.63978   0.12111   0.00000  Uiso   1.00
H488   H     0.77063   0.61790   0.13440   0.00000  Uiso   1.00
C489   C     0.91865   0.79159   0.38650   0.00000  Uiso   1.00
O490   O     0.91308   0.82350   0.36018   0.00000  Uiso   1.00
O491   O     0.96828   0.77747   0.40396   0.00000  Uiso   1.00
H492   H     0.99632   0.79552   0.39107   0.00000  Uiso   1.00
C493   C     0.16646   0.16521   0.74963   0.00000  Uiso   1.00
C494   C     0.16399   0.33532   0.75002   0.00000  Uiso   1.00
C495   C     0.19259   0.28380   0.55830   0.00000  Uiso   1.00
C496   C     0.12372   0.23178   0.93944   0.00000  Uiso   1.00
C497   C     0.19343   0.28226   0.60904   0.00000  Uiso   1.00
C498   C     0.12572   0.23126   0.88900   0.00000  Uiso   1.00
C499   C     0.13906   0.21812   0.59959   0.00000  Uiso   1.00
C500   C     0.20689   0.26929   0.90255   0.00000  Uiso   1.00
C501   C     0.13879   0.21799   0.54901   0.00000  Uiso   1.00
C502   C     0.20681   0.26868   0.95304   0.00000  Uiso   1.00
C503   C     0.16509   0.25115   0.52713   0.00000  Uiso   1.00
C504   C     0.16484   0.25069   0.97263   0.00000  Uiso   1.00
C505   C     0.06787   0.25012   0.73746   0.00000  Uiso   1.00
C506   C     0.26548   0.25039   0.76256   0.00000  Uiso   1.00
C507   C     0.01245   0.25018   0.73065   0.00000  Uiso   1.00
C508   C     0.32091   0.25063   0.76939   0.00000  Uiso   1.00
C509   C     0.13148   0.04617   0.76513   0.00000  Uiso   1.00
C510   C     0.17572   0.45471   0.71299   0.00000  Uiso   1.00
C511   C     0.12716   0.09170   0.76296   0.00000  Uiso   1.00
C512   C     0.16732   0.40923   0.70894   0.00000  Uiso   1.00
C513   C     0.16841   0.11718   0.74923   0.00000  Uiso   1.00
C514   C     0.16153   0.38453   0.75106   0.00000  Uiso   1.00
C515   C     0.21342   0.09684   0.73798   0.00000  Uiso   1.00
C516   C     0.15776   0.40785   0.79550   0.00000  Uiso   1.00
C517   C     0.21822   0.05068   0.74261   0.00000  Uiso   1.00
C518   C     0.16687   0.45410   0.79876   0.00000  Uiso   1.00
C519   C     0.17637   0.02566   0.75604   0.00000  Uiso   1.00
C520   C     0.17596   0.47710   0.75704   0.00000  Uiso   1.00
Cu521  Cu    0.16667   0.24999   0.79822   0.00000  Uiso   1.00
Cu522  Cu    0.16667   0.25000   0.70179   0.00000  Uiso   1.00
H523   H     0.21312   0.31081   0.54387   0.00000  Uiso   1.00
H524   H     0.08975   0.21774   0.95201   0.00000  Uiso   1.00
H525   H     0.11812   0.19152   0.52704   0.00000  Uiso   1.00
H526   H     0.23993   0.28266   0.97690   0.00000  Uiso   1.00
N527   N     0.16667   0.25001   0.62935   0.00000  Uiso   1.00
N528   N     0.16667   0.24999   0.87066   0.00000  Uiso   1.00
O529   O     0.16667   0.18572   0.79072   0.00000  Uiso   1.00
O530   O     0.16666   0.31427   0.70929   0.00000  Uiso   1.00
O531   O     0.16667   0.18573   0.70928   0.00000  Uiso   1.00
O532   O     0.16666   0.31427   0.79072   0.00000  Uiso   1.00
O533   O     0.09161   0.24999   0.78132   0.00000  Uiso   1.00
O534   O     0.24172   0.25000   0.71868   0.00000  Uiso   1.00
O535   O     0.09161   0.25000   0.69989   0.00000  Uiso   1.00
O536   O     0.24172   0.25000   0.80012   0.00000  Uiso   1.00
H537   H     0.32540   0.24975   0.69364   0.00000  Uiso   1.00
H538   H     0.00796   0.25099   0.80640   0.00000  Uiso   1.00
H539   H     0.09922   0.02603   0.77370   0.00000  Uiso   1.00
H540   H     0.17939   0.47349   0.68068   0.00000  Uiso   1.00
C541   C     0.07882   0.11100   0.77511   0.00000  Uiso   1.00
O542   O     0.06342   0.14583   0.75757   0.00000  Uiso   1.00
O543   O     0.05031   0.08854   0.80637   0.00000  Uiso   1.00
H544   H     0.01879   0.10501   0.81293   0.00000  Uiso   1.00
C545   C     0.16129   0.39020   0.65900   0.00000  Uiso   1.00
O546   O     0.12287   0.36757   0.64325   0.00000  Uiso   1.00
O547   O     0.19796   0.40071   0.62885   0.00000  Uiso   1.00
H548   H     0.18900   0.38683   0.59516   0.00000  Uiso   1.00
C549   C     0.25666   0.12470   0.72524   0.00000  Uiso   1.00
O550   O     0.28268   0.14769   0.75663   0.00000  Uiso   1.00
O551   O     0.26605   0.12598   0.67712   0.00000  Uiso   1.00
H552   H     0.29606   0.14675   0.67295   0.00000  Uiso   1.00
C553   C     0.14178   0.38477   0.83796   0.00000  Uiso   1.00
O554   O     0.16883   0.38776   0.87774   0.00000  Uiso   1.00
O555   O     0.09546   0.35979   0.83219   0.00000  Uiso   1.00
H556   H     0.08892   0.34526   0.86340   0.00000  Uiso   1.00
C557   C     0.26749   0.02895   0.73672   0.00000  Uiso   1.00
O558   O     0.28426   0.00044   0.76501   0.00000  Uiso   1.00
O559   O     0.29469   0.04085   0.69905   0.00000  Uiso   1.00
H560   H     0.32771   0.02399   0.69944   0.00000  Uiso   1.00
C561   C     0.16566   0.47898   0.84518   0.00000  Uiso   1.00
O562   O     0.20088   0.00521   0.86047   0.00000  Uiso   1.00
O563   O     0.12376   0.47322   0.87061   0.00000  Uiso   1.00
H564   H     0.12729   0.49227   0.90126   0.00000  Uiso   1.00
H565   H     0.21535   0.30726   0.63216   0.00000  Uiso   1.00
H566   H     0.09395   0.21600   0.86460   0.00000  Uiso   1.00
C567   C     0.10908   0.18251   0.61875   0.00000  Uiso   1.00
O568   O     0.06646   0.18965   0.62961   0.00000  Uiso   1.00
O569   O     0.12808   0.13978   0.62111   0.00000  Uiso   1.00
H570   H     0.10397   0.11790   0.63440   0.00000  Uiso   1.00
C571   C     0.25198   0.29159   0.88650   0.00000  Uiso   1.00
O572   O     0.24641   0.32350   0.86018   0.00000  Uiso   1.00
O573   O     0.30161   0.27747   0.90396   0.00000  Uiso   1.00
H574   H     0.32966   0.29552   0.89107   0.00000  Uiso   1.00
C575   C     0.49979   0.16521   0.74963   0.00000  Uiso   1.00
C576   C     0.49733   0.33532   0.75002   0.00000  Uiso   1.00
C577   C     0.52592   0.28380   0.55830   0.00000  Uiso   1.00
C578   C     0.45705   0.23178   0.93944   0.00000  Uiso   1.00
C579   C     0.52676   0.28226   0.60904   0.00000  Uiso   1.00
C580   C     0.45906   0.23126   0.88900   0.00000  Uiso   1.00
C581   C     0.47239   0.21812   0.59959   0.00000  Uiso   1.00
C582   C     0.54022   0.26929   0.90255   0.00000  Uiso   1.00
C583   C     0.47212   0.21799   0.54901   0.00000  Uiso   1.00
C584   C     0.54014   0.26868   0.95304   0.00000  Uiso   1.00
C585   C     0.49842   0.25115   0.52713   0.00000  Uiso   1.00
C586   C     0.49818   0.25069   0.97263   0.00000  Uiso   1.00
C587   C     0.40120   0.25012   0.73746   0.00000  Uiso   1.00
C588   C     0.59881   0.25039   0.76256   0.00000  Uiso   1.00
C589   C     0.34579   0.25018   0.73065   0.00000  Uiso   1.00
C590   C     0.65425   0.25063   0.76939   0.00000  Uiso   1.00
C591   C     0.46481   0.04617   0.76513   0.00000  Uiso   1.00
C592   C     0.50906   0.45471   0.71299   0.00000  Uiso   1.00
C593   C     0.46050   0.09170   0.76296   0.00000  Uiso   1.00
C594   C     0.50065   0.40923   0.70894   0.00000  Uiso   1.00
C595   C     0.50175   0.11718   0.74923   0.00000  Uiso   1.00
C596   C     0.49487   0.38453   0.75106   0.00000  Uiso   1.00
C597   C     0.54676   0.09684   0.73798   0.00000  Uiso   1.00
C598   C     0.49109   0.40785   0.79550   0.00000  Uiso   1.00
C599   C     0.55155   0.05068   0.74261   0.00000  Uiso   1.00
C600   C     0.50020   0.45410   0.79876   0.00000  Uiso   1.00
C601   C     0.50970   0.02566   0.75604   0.00000  Uiso   1.00
C602   C     0.50929   0.47710   0.75704   0.00000  Uiso   1.00
Cu603  Cu    0.50000   0.24999   0.79822   0.00000  Uiso   1.00
Cu604  Cu    0.50000   0.25000   0.70179   0.00000  Uiso   1.00
H605   H     0.54645   0.31081   0.54387   0.00000  Uiso   1.00
H606   H     0.42308   0.21774   0.95201   0.00000  Uiso   1.00
H607   H     0.45145   0.19152   0.52704   0.00000  Uiso   1.00
H608   H     0.57326   0.28266   0.97690   0.00000  Uiso   1.00
N609   N     0.50000   0.25001   0.62935   0.00000  Uiso   1.00
N610   N     0.50000   0.24999   0.87066   0.00000  Uiso   1.00
O611   O     0.50000   0.18572   0.79072   0.00000  Uiso   1.00
O612   O     0.50000   0.31427   0.70929   0.00000  Uiso   1.00
O613   O     0.50000   0.18573   0.70928   0.00000  Uiso   1.00
O614   O     0.50000   0.31427   0.79072   0.00000  Uiso   1.00
O615   O     0.42495   0.24999   0.78132   0.00000  Uiso   1.00
O616   O     0.57505   0.25000   0.71868   0.00000  Uiso   1.00
O617   O     0.42495   0.25000   0.69989   0.00000  Uiso   1.00
O618   O     0.57505   0.25000   0.80012   0.00000  Uiso   1.00
H619   H     0.65874   0.24975   0.69364   0.00000  Uiso   1.00
H620   H     0.34129   0.25099   0.80640   0.00000  Uiso   1.00
H621   H     0.43256   0.02603   0.77370   0.00000  Uiso   1.00
H622   H     0.51272   0.47349   0.68068   0.00000  Uiso   1.00
C623   C     0.41216   0.11100   0.77511   0.00000  Uiso   1.00
O624   O     0.39676   0.14583   0.75757   0.00000  Uiso   1.00
O625   O     0.38364   0.08854   0.80637   0.00000  Uiso   1.00
H626   H     0.35213   0.10501   0.81293   0.00000  Uiso   1.00
C627   C     0.49463   0.39020   0.65900   0.00000  Uiso   1.00
O628   O     0.45621   0.36757   0.64325   0.00000  Uiso   1.00
O629   O     0.53129   0.40071   0.62885   0.00000  Uiso   1.00
H630   H     0.52233   0.38683   0.59516   0.00000  Uiso   1.00
C631   C     0.58999   0.12470   0.72524   0.00000  Uiso   1.00
O632   O     0.61602   0.14769   0.75663   0.00000  Uiso   1.00
O633   O     0.59939   0.12598   0.67712   0.00000  Uiso   1.00
H634   H     0.62939   0.14675   0.67295   0.00000  Uiso   1.00
C635   C     0.47511   0.38477   0.83796   0.00000  Uiso   1.00
O636   O     0.50217   0.38776   0.87774   0.00000  Uiso   1.00
O637   O     0.42879   0.35979   0.83219   0.00000  Uiso   1.00
H638   H     0.42226   0.34526   0.86340   0.00000  Uiso   1.00
C639   C     0.60082   0.02895   0.73672   0.00000  Uiso   1.00
O640   O     0.61759   0.00044   0.76501   0.00000  Uiso   1.00
O641   O     0.62803   0.04085   0.69905   0.00000  Uiso   1.00
H642   H     0.66104   0.02399   0.69944   0.00000  Uiso   1.00
C643   C     0.49900   0.47898   0.84518   0.00000  Uiso   1.00
O644   O     0.53421   0.00521   0.86047   0.00000  Uiso   1.00
O645   O     0.45710   0.47322   0.87061   0.00000  Uiso   1.00
H646   H     0.46062   0.49227   0.90126   0.00000  Uiso   1.00
H647   H     0.54868   0.30726   0.63216   0.00000  Uiso   1.00
H648   H     0.42729   0.21600   0.86460   0.00000  Uiso   1.00
C649   C     0.44241   0.18251   0.61875   0.00000  Uiso   1.00
O650   O     0.39980   0.18965   0.62961   0.00000  Uiso   1.00
O651   O     0.46141   0.13978   0.62111   0.00000  Uiso   1.00
H652   H     0.43730   0.11790   0.63440   0.00000  Uiso   1.00
C653   C     0.58531   0.29159   0.88650   0.00000  Uiso   1.00
O654   O     0.57974   0.32350   0.86018   0.00000  Uiso   1.00
O655   O     0.63495   0.27747   0.90396   0.00000  Uiso   1.00
H656   H     0.66299   0.29552   0.89107   0.00000  Uiso   1.00
C657   C     0.83312   0.16521   0.74963   0.00000  Uiso   1.00
C658   C     0.83066   0.33532   0.75002   0.00000  Uiso   1.00
C659   C     0.85925   0.28380   0.55830   0.00000  Uiso   1.00
C660   C     0.79039   0.23178   0.93944   0.00000  Uiso   1.00
C661   C     0.86009   0.28226   0.60904   0.00000  Uiso   1.00
C662   C     0.79239   0.23126   0.88900   0.00000  Uiso   1.00
C663   C     0.80573   0.21812   0.59959   0.00000  Uiso   1.00
C664   C     0.87355   0.26929   0.90255   0.00000  Uiso   1.00
C665   C     0.80545   0.21799   0.54901   0.00000  Uiso   1.00
C666   C     0.87347   0.26868   0.95304   0.00000  Uiso   1.00
C667   C     0.83176   0.25115   0.52713   0.00000  Uiso   1.00
C668   C     0.83151   0.25069   0.97263   0.00000  Uiso   1.00
C669   C     0.73454   0.25012   0.73746   0.00000  Uiso   1.00
C670   C     0.93214   0.25039   0.76256   0.00000  Uiso   1.00
C671   C     0.67912   0.25018   0.73065   0.00000  Uiso   1.00
C672   C     0.98758   0.25063   0.76939   0.00000  Uiso   1.00
C673   C     0.79814   0.04617   0.76513   0.00000  Uiso   1.00
C674   C     0.84239   0.45471   0.71299   0.00000  Uiso   1.00
C675   C     0.79383   0.09170   0.76296   0.00000  Uiso   1.00
C676   C     0.83398   0.40923   0.70894   0.00000  Uiso   1.00
C677   C     0.83508   0.11718   0.74923   0.00000  Uiso   1.00
C678   C     0.82820   0.38453   0.75106   0.00000  Uiso   1.00
C679   C     0.88009   0.09684   0.73798   0.00000  Uiso   1.00
C680   C     0.82442   0.40785   0.79550   0.00000  Uiso   1.00
C681   C     0.88489   0.05068   0.74261   0.00000  Uiso   1.00
C682   C     0.83354   0.45410   0.79876   0.00000  Uiso   1.00
C683   C     0.84303   0.02566   0.75604   0.00000  Uiso   1.00
C684   C     0.84262   0.47710   0.75704   0.00000  Uiso   1.00
Cu685  Cu    0.83333   0.24999   0.79822   0.00000  Uiso   1.00
Cu686  Cu    0.83333   0.25000   0.70179   0.00000  Uiso   1.00
H687   H     0.87978   0.31081   0.54387   0.00000  Uiso   1.00
H688   H     0.75641   0.21774   0.95201   0.00000  Uiso   1.00
H689   H     0.78478   0.19152   0.52704   0.00000  Uiso   1.00
H690   H     0.90660   0.28266   0.97690   0.00000  Uiso   1.00
N691   N     0.83333   0.25001   0.62935   0.00000  Uiso   1.00
N692   N     0.83333   0.24999   0.87066   0.00000  Uiso   1.00
O693   O     0.83334   0.18572   0.79072   0.00000  Uiso   1.00
O694   O     0.83333   0.31427   0.70929   0.00000  Uiso   1.00
O695   O     0.83334   0.18573   0.70928   0.00000  Uiso   1.00
O696   O     0.83333   0.31427   0.79072   0.00000  Uiso   1.00
O697   O     0.75828   0.24999   0.78132   0.00000  Uiso   1.00
O698   O     0.90839   0.25000   0.71868   0.00000  Uiso   1.00
O699   O     0.75828   0.25000   0.69989   0.00000  Uiso   1.00
O700   O     0.90839   0.25000   0.80012   0.00000  Uiso   1.00
H701   H     0.99207   0.24975   0.69364   0.00000  Uiso   1.00
H702   H     0.67462   0.25099   0.80640   0.00000  Uiso   1.00
H703   H     0.76589   0.02603   0.77370   0.00000  Uiso   1.00
H704   H     0.84606   0.47349   0.68068   0.00000  Uiso   1.00
C705   C     0.74549   0.11100   0.77511   0.00000  Uiso   1.00
O706   O     0.73009   0.14583   0.75757   0.00000  Uiso   1.00
O707   O     0.71697   0.08854   0.80637   0.00000  Uiso   1.00
H708   H     0.68546   0.10501   0.81293   0.00000  Uiso   1.00
C709   C     0.82796   0.39020   0.65900   0.00000  Uiso   1.00
O710   O     0.78954   0.36757   0.64325   0.00000  Uiso   1.00
O711   O     0.86463   0.40071   0.62885   0.00000  Uiso   1.00
H712   H     0.85566   0.38683   0.59516   0.00000  Uiso   1.00
C713   C     0.92333   0.12470   0.72524   0.00000  Uiso   1.00
O714   O     0.94935   0.14769   0.75663   0.00000  Uiso   1.00
O715   O     0.93272   0.12598   0.67712   0.00000  Uiso   1.00
H716   H     0.96272   0.14675   0.67295   0.00000  Uiso   1.00
C717   C     0.80844   0.38477   0.83796   0.00000  Uiso   1.00
O718   O     0.83550   0.38776   0.87774   0.00000  Uiso   1.00
O719   O     0.76213   0.35979   0.83219   0.00000  Uiso   1.00
H720   H     0.75559   0.34526   0.86340   0.00000  Uiso   1.00
C721   C     0.93416   0.02895   0.73672   0.00000  Uiso   1.00
O722   O     0.95093   0.00044   0.76501   0.00000  Uiso   1.00
O723   O     0.96136   0.04085   0.69905   0.00000  Uiso   1.00
H724   H     0.99437   0.02399   0.69944   0.00000  Uiso   1.00
C725   C     0.83233   0.47898   0.84518   0.00000  Uiso   1.00
O726   O     0.86754   0.00521   0.86047   0.00000  Uiso   1.00
O727   O     0.79043   0.47322   0.87061   0.00000  Uiso   1.00
H728   H     0.79396   0.49227   0.90126   0.00000  Uiso   1.00
H729   H     0.88201   0.30726   0.63216   0.00000  Uiso   1.00
H730   H     0.76062   0.21600   0.86460   0.00000  Uiso   1.00
C731   C     0.77574   0.18251   0.61875   0.00000  Uiso   1.00
O732   O     0.73313   0.18965   0.62961   0.00000  Uiso   1.00
O733   O     0.79475   0.13978   0.62111   0.00000  Uiso   1.00
H734   H     0.77063   0.11790   0.63440   0.00000  Uiso   1.00
C735   C     0.91865   0.29159   0.88650   0.00000  Uiso   1.00
O736   O     0.91308   0.32350   0.86018   0.00000  Uiso   1.00
O737   O     0.96828   0.27747   0.90396   0.00000  Uiso   1.00
H738   H     0.99632   0.29552   0.89107   0.00000  Uiso   1.00
C739   C     0.16646   0.66521   0.74963   0.00000  Uiso   1.00
C740   C     0.16399   0.83532   0.75002   0.00000  Uiso   1.00
C741   C     0.19259   0.78380   0.55830   0.00000  Uiso   1.00
C742   C     0.12372   0.73178   0.93944   0.00000  Uiso   1.00
C743   C     0.19343   0.78226   0.60904   0.00000  Uiso   1.00
C744   C     0.12572   0.73126   0.88900   0.00000  Uiso   1.00
C745   C     0.13906   0.71812   0.59959   0.00000  Uiso   1.00
C746   C     0.20689   0.76929   0.90255   0.00000  Uiso   1.00
C747   C     0.13879   0.71799   0.54901   0.00000  Uiso   1.00
C748   C     0.20681   0.76868   0.95304   0.00000  Uiso   1.00
C749   C     0.16509   0.75115   0.52713   0.00000  Uiso   1.00
C750   C     0.16484   0.75069   0.97263   0.00000  Uiso   1.00
C751   C     0.06787   0.75012   0.73746   0.00000  Uiso   1.00
C752   C     0.26548   0.75039   0.76256   0.00000  Uiso   1.00
C753   C     0.01245   0.75018   0.73065   0.00000  Uiso   1.00
C754   C     0.32091   0.75063   0.76939   0.00000  Uiso   1.00
C755   C     0.13148   0.54617   0.76513   0.00000  Uiso   1.00
C756   C     0.17572   0.95471   0.71299   0.00000  Uiso   1.00
C757   C     0.12716   0.59170   0.76296   0.00000  Uiso   1.00
C758   C     0.16732   0.90923   0.70894   0.00000  Uiso   1.00
C759   C     0.16841   0.61718   0.74923   0.00000  Uiso   1.00
C760   C     0.16153   0.88453   0.75106   0.00000  Uiso   1.00
C761   C     0.21342   0.59684   0.73798   0.00000  Uiso   1.00
C762   C     0.15776   0.90785   0.79550   0.00000  Uiso   1.00
C763   C     0.21822   0.55068   0.74261   0.00000  Uiso   1.00
C764   C     0.16687   0.95410   0.79876   0.00000  Uiso   1.00
C765   C     0.17637   0.52566   0.75604   0.00000  Uiso   1.00
C766   C     0.17596   0.97710   0.75704   0.00000  Uiso   1.00
Cu767  Cu    0.16667   0.74999   0.79822   0.00000  Uiso   1.00
Cu768  Cu    0.16667   0.75000   0.70179   0.00000  Uiso   1.00
H769   H     0.21312   0.81081   0.54387   0.00000  Uiso   1.00
H770   H     0.08975   0.71774   0.95201   0.00000  Uiso   1.00
H771   H     0.11812   0.69152   0.52704   0.00000  Uiso   1.00
H772   H     0.23993   0.78266   0.97690   0.00000  Uiso   1.00
N773   N     0.16667   0.75001   0.62935   0.00000  Uiso   1.00
N774   N     0.16667   0.74999   0.87066   0.00000  Uiso   1.00
O775   O     0.16667   0.68572   0.79072   0.00000  Uiso   1.00
O776   O     0.16666   0.81427   0.70929   0.00000  Uiso   1.00
O777   O     0.16667   0.68573   0.70928   0.00000  Uiso   1.00
O778   O     0.16666   0.81427   0.79072   0.00000  Uiso   1.00
O779   O     0.09161   0.74999   0.78132   0.00000  Uiso   1.00
O780   O     0.24172   0.75000   0.71868   0.00000  Uiso   1.00
O781   O     0.09161   0.75000   0.69989   0.00000  Uiso   1.00
O782   O     0.24172   0.75000   0.80012   0.00000  Uiso   1.00
H783   H     0.32540   0.74975   0.69364   0.00000  Uiso   1.00
H784   H     0.00796   0.75099   0.80640   0.00000  Uiso   1.00
H785   H     0.09922   0.52603   0.77370   0.00000  Uiso   1.00
H786   H     0.17939   0.97349   0.68068   0.00000  Uiso   1.00
C787   C     0.07882   0.61100   0.77511   0.00000  Uiso   1.00
O788   O     0.06342   0.64583   0.75757   0.00000  Uiso   1.00
O789   O     0.05031   0.58854   0.80637   0.00000  Uiso   1.00
H790   H     0.01879   0.60501   0.81293   0.00000  Uiso   1.00
C791   C     0.16129   0.89020   0.65900   0.00000  Uiso   1.00
O792   O     0.12287   0.86757   0.64325   0.00000  Uiso   1.00
O793   O     0.19796   0.90071   0.62885   0.00000  Uiso   1.00
H794   H     0.18900   0.88683   0.59516   0.00000  Uiso   1.00
C795   C     0.25666   0.62470   0.72524   0.00000  Uiso   1.00
O796   O     0.28268   0.64769   0.75663   0.00000  Uiso   1.00
O797   O     0.26605   0.62598   0.67712   0.00000  Uiso   1.00
H798   H     0.29606   0.64675   0.67295   0.00000  Uiso   1.00
C799   C     0.14178   0.88477   0.83796   0.00000  Uiso   1.00
O800   O     0.16883   0.88776   0.87774   0.00000  Uiso   1.00
O801   O     0.09546   0.85979   0.83219   0.00000  Uiso   1.00
H802   H     0.08892   0.84526   0.86340   0.00000  Uiso   1.00
C803   C     0.26749   0.52895   0.73672   0.00000  Uiso   1.00
O804   O     0.28426   0.50044   0.76501   0.00000  Uiso   1.00
O805   O     0.29469   0.54085   0.69905   0.00000  Uiso   1.00
H806   H     0.32771   0.52399   0.69944   0.00000  Uiso   1.00
C807   C     0.16566   0.97898   0.84518   0.00000  Uiso   1.00
O808   O     0.20088   0.50521   0.86047   0.00000  Uiso   1.00
O809   O     0.12376   0.97322   0.87061   0.00000  Uiso   1.00
H810   H     0.12729   0.99227   0.90126   0.00000  Uiso   1.00
H811   H     0.21535   0.80726   0.63216   0.00000  Uiso   1.00
H812   H     0.09395   0.71600   0.86460   0.00000  Uiso   1.00
C813   C     0.10908   0.68251   0.61875   0.00000  Uiso   1.00
O814   O     0.06646   0.68965   0.62961   0.00000  Uiso   1.00
O815   O     0.12808   0.63978   0.62111   0.00000  Uiso   1.00
H816   H     0.10397   0.61790   0.63440   0.00000  Uiso   1.00
C817   C     0.25198   0.79159   0.88650   0.00000  Uiso   1.00
O818   O     0.24641   0.82350   0.86018   0.00000  Uiso   1.00
O819   O     0.30161   0.77747   0.90396   0.00000  Uiso   1.00
H820   H     0.32966   0.79552   0.89107   0.00000  Uiso   1.00
C821   C     0.49979   0.66521   0.74963   0.00000  Uiso   1.00
C822   C     0.49733   0.83532   0.75002   0.00000  Uiso   1.00
C823   C     0.52592   0.78380   0.55830   0.00000  Uiso   1.00
C824   C     0.45705   0.73178   0.93944   0.00000  Uiso   1.00
C825   C     0.52676   0.78226   0.60904   0.00000  Uiso   1.00
C826   C     0.45906   0.73126   0.88900   0.00000  Uiso   1.00
C827   C     0.47239   0.71812   0.59959   0.00000  Uiso   1.00
C828   C     0.54022   0.76929   0.90255   0.00000  Uiso   1.00
C829   C     0.47212   0.71799   0.54901   0.00000  Uiso   1.00
C830   C     0.54014   0.76868   0.95304   0.00000  Uiso   1.00
C831   C     0.49842   0.75115   0.52713   0.00000  Uiso   1.00
C832   C     0.49818   0.75069   0.97263   0.00000  Uiso   1.00
C833   C     0.40120   0.75012   0.73746   0.00000  Uiso   1.00
C834   C     0.59881   0.75039   0.76256   0.00000  Uiso   1.00
C835   C     0.34579   0.75018   0.73065   0.00000  Uiso   1.00
C836   C     0.65425   0.75063   0.76939   0.00000  Uiso   1.00
C837   C     0.46481   0.54617   0.76513   0.00000  Uiso   1.00
C838   C     0.50906   0.95471   0.71299   0.00000  Uiso   1.00
C839   C     0.46050   0.59170   0.76296   0.00000  Uiso   1.00
C840   C     0.50065   0.90923   0.70894   0.00000  Uiso   1.00
C841   C     0.50175   0.61718   0.74923   0.00000  Uiso   1.00
C842   C     0.49487   0.88453   0.75106   0.00000  Uiso   1.00
C843   C     0.54676   0.59684   0.73798   0.00000  Uiso   1.00
C844   C     0.49109   0.90785   0.79550   0.00000  Uiso   1.00
C845   C     0.55155   0.55068   0.74261   0.00000  Uiso   1.00
C846   C     0.50020   0.95410   0.79876   0.00000  Uiso   1.00
C847   C     0.50970   0.52566   0.75604   0.00000  Uiso   1.00
C848   C     0.50929   0.97710   0.75704   0.00000  Uiso   1.00
Cu849  Cu    0.50000   0.74999   0.79822   0.00000  Uiso   1.00
Cu850  Cu    0.50000   0.75000   0.70179   0.00000  Uiso   1.00
H851   H     0.54645   0.81081   0.54387   0.00000  Uiso   1.00
H852   H     0.42308   0.71774   0.95201   0.00000  Uiso   1.00
H853   H     0.45145   0.69152   0.52704   0.00000  Uiso   1.00
H854   H     0.57326   0.78266   0.97690   0.00000  Uiso   1.00
N855   N     0.50000   0.75001   0.62935   0.00000  Uiso   1.00
N856   N     0.50000   0.74999   0.87066   0.00000  Uiso   1.00
O857   O     0.50000   0.68572   0.79072   0.00000  Uiso   1.00
O858   O     0.50000   0.81427   0.70929   0.00000  Uiso   1.00
O859   O     0.50000   0.68573   0.70928   0.00000  Uiso   1.00
O860   O     0.50000   0.81427   0.79072   0.00000  Uiso   1.00
O861   O     0.42495   0.74999   0.78132   0.00000  Uiso   1.00
O862   O     0.57505   0.75000   0.71868   0.00000  Uiso   1.00
O863   O     0.42495   0.75000   0.69989   0.00000  Uiso   1.00
O864   O     0.57505   0.75000   0.80012   0.00000  Uiso   1.00
H865   H     0.65874   0.74975   0.69364   0.00000  Uiso   1.00
H866   H     0.34129   0.75099   0.80640   0.00000  Uiso   1.00
H867   H     0.43256   0.52603   0.77370   0.00000  Uiso   1.00
H868   H     0.51272   0.97349   0.68068   0.00000  Uiso   1.00
C869   C     0.41216   0.61100   0.77511   0.00000  Uiso   1.00
O870   O     0.39676   0.64583   0.75757   0.00000  Uiso   1.00
O871   O     0.38364   0.58854   0.80637   0.00000  Uiso   1.00
H872   H     0.35213   0.60501   0.81293   0.00000  Uiso   1.00
C873   C     0.49463   0.89020   0.65900   0.00000  Uiso   1.00
O874   O     0.45621   0.86757   0.64325   0.00000  Uiso   1.00
O875   O     0.53129   0.90071   0.62885   0.00000  Uiso   1.00
H876   H     0.52233   0.88683   0.59516   0.00000  Uiso   1.00
C877   C     0.58999   0.62470   0.72524   0.00000  Uiso   1.00
O878   O     0.61602   0.64769   0.75663   0.00000  Uiso   1.00
O879   O     0.59939   0.62598   0.67712   0.00000  Uiso   1.00
H880   H     0.62939   0.64675   0.67295   0.00000  Uiso   1.00
C881   C     0.47511   0.88477   0.83796   0.00000  Uiso   1.00
O882   O     0.50217   0.88776   0.87774   0.00000  Uiso   1.00
O883   O     0.42879   0.85979   0.83219   0.00000  Uiso   1.00
H884   H     0.42226   0.84526   0.86340   0.00000  Uiso   1.00
C885   C     0.60082   0.52895   0.73672   0.00000  Uiso   1.00
O886   O     0.61759   0.50044   0.76501   0.00000  Uiso   1.00
O887   O     0.62803   0.54085   0.69905   0.00000  Uiso   1.00
H888   H     0.66104   0.52399   0.69944   0.00000  Uiso   1.00
C889   C     0.49900   0.97898   0.84518   0.00000  Uiso   1.00
O890   O     0.53421   0.50521   0.86047   0.00000  Uiso   1.00
O891   O     0.45710   0.97322   0.87061   0.00000  Uiso   1.00
H892   H     0.46062   0.99227   0.90126   0.00000  Uiso   1.00
H893   H     0.54868   0.80726   0.63216   0.00000  Uiso   1.00
H894   H     0.42729   0.71600   0.86460   0.00000  Uiso   1.00
C895   C     0.44241   0.68251   0.61875   0.00000  Uiso   1.00
O896   O     0.39980   0.68965   0.62961   0.00000  Uiso   1.00
O897   O     0.46141   0.63978   0.62111   0.00000  Uiso   1.00
H898   H     0.43730   0.61790   0.63440   0.00000  Uiso   1.00
C899   C     0.58531   0.79159   0.88650   0.00000  Uiso   1.00
O900   O     0.57974   0.82350   0.86018   0.00000  Uiso   1.00
O901   O     0.63495   0.77747   0.90396   0.00000  Uiso   1.00
H902   H     0.66299   0.79552   0.89107   0.00000  Uiso   1.00
C903   C     0.83312   0.66521   0.74963   0.00000  Uiso   1.00
C904   C     0.83066   0.83532   0.75002   0.00000  Uiso   1.00
C905   C     0.85925   0.78380   0.55830   0.00000  Uiso   1.00
C906   C     0.79039   0.73178   0.93944   0.00000  Uiso   1.00
C907   C     0.86009   0.78226   0.60904   0.00000  Uiso   1.00
C908   C     0.79239   0.73126   0.88900   0.00000  Uiso   1.00
C909   C     0.80573   0.71812   0.59959   0.00000  Uiso   1.00
C910   C     0.87355   0.76929   0.90255   0.00000  Uiso   1.00
C911   C     0.80545   0.71799   0.54901   0.00000  Uiso   1.00
C912   C     0.87347   0.76868   0.95304   0.00000  Uiso   1.00
C913   C     0.83176   0.75115   0.52713   0.00000  Uiso   1.00
C914   C     0.83151   0.75069   0.97263   0.00000  Uiso   1.00
C915   C     0.73454   0.75012   0.73746   0.00000  Uiso   1.00
C916   C     0.93214   0.75039   0.76256   0.00000  Uiso   1.00
C917   C     0.67912   0.75018   0.73065   0.00000  Uiso   1.00
C918   C     0.98758   0.75063   0.76939   0.00000  Uiso   1.00
C919   C     0.79814   0.54617   0.76513   0.00000  Uiso   1.00
C920   C     0.84239   0.95471   0.71299   0.00000  Uiso   1.00
C921   C     0.79383   0.59170   0.76296   0.00000  Uiso   1.00
C922   C     0.83398   0.90923   0.70894   0.00000  Uiso   1.00
C923   C     0.83508   0.61718   0.74923   0.00000  Uiso   1.00
C924   C     0.82820   0.88453   0.75106   0.00000  Uiso   1.00
C925   C     0.88009   0.59684   0.73798   0.00000  Uiso   1.00
C926   C     0.82442   0.90785   0.79550   0.00000  Uiso   1.00
C927   C     0.88489   0.55068   0.74261   0.00000  Uiso   1.00
C928   C     0.83354   0.95410   0.79876   0.00000  Uiso   1.00
C929   C     0.84303   0.52566   0.75604   0.00000  Uiso   1.00
C930   C     0.84262   0.97710   0.75704   0.00000  Uiso   1.00
Cu931  Cu    0.83333   0.74999   0.79822   0.00000  Uiso   1.00
Cu932  Cu    0.83333   0.75000   0.70179   0.00000  Uiso   1.00
H933   H     0.87978   0.81081   0.54387   0.00000  Uiso   1.00
H934   H     0.75641   0.71774   0.95201   0.00000  Uiso   1.00
H935   H     0.78478   0.69152   0.52704   0.00000  Uiso   1.00
H936   H     0.90660   0.78266   0.97690   0.00000  Uiso   1.00
N937   N     0.83333   0.75001   0.62935   0.00000  Uiso   1.00
N938   N     0.83333   0.74999   0.87066   0.00000  Uiso   1.00
O939   O     0.83334   0.68572   0.79072   0.00000  Uiso   1.00
O940   O     0.83333   0.81427   0.70929   0.00000  Uiso   1.00
O941   O     0.83334   0.68573   0.70928   0.00000  Uiso   1.00
O942   O     0.83333   0.81427   0.79072   0.00000  Uiso   1.00
O943   O     0.75828   0.74999   0.78132   0.00000  Uiso   1.00
O944   O     0.90839   0.75000   0.71868   0.00000  Uiso   1.00
O945   O     0.75828   0.75000   0.69989   0.00000  Uiso   1.00
O946   O     0.90839   0.75000   0.80012   0.00000  Uiso   1.00
H947   H     0.99207   0.74975   0.69364   0.00000  Uiso   1.00
H948   H     0.67462   0.75099   0.80640   0.00000  Uiso   1.00
H949   H     0.76589   0.52603   0.77370   0.00000  Uiso   1.00
H950   H     0.84606   0.97349   0.68068   0.00000  Uiso   1.00
C951   C     0.74549   0.61100   0.77511   0.00000  Uiso   1.00
O952   O     0.73009   0.64583   0.75757   0.00000  Uiso   1.00
O953   O     0.71697   0.58854   0.80637   0.00000  Uiso   1.00
H954   H     0.68546   0.60501   0.81293   0.00000  Uiso   1.00
C955   C     0.82796   0.89020   0.65900   0.00000  Uiso   1.00
O956   O     0.78954   0.86757   0.64325   0.00000  Uiso   1.00
O957   O     0.86463   0.90071   0.62885   0.00000  Uiso   1.00
H958   H     0.85566   0.88683   0.59516   0.00000  Uiso   1.00
C959   C     0.92333   0.62470   0.72524   0.00000  Uiso   1.00
O960   O     0.94935   0.64769   0.75663   0.00000  Uiso   1.00
O961   O     0.93272   0.62598   0.67712   0.00000  Uiso   1.00
H962   H     0.96272   0.64675   0.67295   0.00000  Uiso   1.00
C963   C     0.80844   0.88477   0.83796   0.00000  Uiso   1.00
O964   O     0.83550   0.88776   0.87774   0.00000  Uiso   1.00
O965   O     0.76213   0.85979   0.83219   0.00000  Uiso   1.00
H966   H     0.75559   0.84526   0.86340   0.00000  Uiso   1.00
C967   C     0.93416   0.52895   0.73672   0.00000  Uiso   1.00
O968   O     0.95093   0.50044   0.76501   0.00000  Uiso   1.00
O969   O     0.96136   0.54085   0.69905   0.00000  Uiso   1.00
H970   H     0.99437   0.52399   0.69944   0.00000  Uiso   1.00
C971   C     0.83233   0.97898   0.84518   0.00000  Uiso   1.00
O972   O     0.86754   0.50521   0.86047   0.00000  Uiso   1.00
O973   O     0.79043   0.97322   0.87061   0.00000  Uiso   1.00
H974   H     0.79396   0.99227   0.90126   0.00000  Uiso   1.00
H975   H     0.88201   0.80726   0.63216   0.00000  Uiso   1.00
H976   H     0.76062   0.71600   0.86460   0.00000  Uiso   1.00
C977   C     0.77574   0.68251   0.61875   0.00000  Uiso   1.00
O978   O     0.73313   0.68965   0.62961   0.00000  Uiso   1.00
O979   O     0.79475   0.63978   0.62111   0.00000  Uiso   1.00
H980   H     0.77063   0.61790   0.63440   0.00000  Uiso   1.00
C981   C     0.91865   0.79159   0.88650   0.00000  Uiso   1.00
O982   O     0.91308   0.82350   0.86018   0.00000  Uiso   1.00
O983   O     0.96828   0.77747   0.90396   0.00000  Uiso   1.00
H984   H     0.99632   0.79552   0.89107   0.00000  Uiso   1.00
loop_
_geom_bond_atom_site_label_1
_geom_bond_atom_site_label_2
_geom_bond_distance
_geom_bond_site_symmetry_2
_ccdc_geom_bond_type
C1     C21     1.457   .     S
C1     O37     1.292   .     A
C1     O39     1.292   .     A
C2     C22     1.494   .     S
C2     O38     1.303   .     A
C2     O40     1.302   .     A
C3     H31     1.081   .     S
C3     C5      1.410   .     A
C3     C11     1.414   .     A
C4     C12     1.413   .     A
C4     C6      1.412   .     A
C4     H32     1.081   .     S
C5     N35     1.364   .     A
C5     H73     1.081   .     S
C6     H74     1.081   .     S
C6     N36     1.367   .     A
C7     C9      1.406   .     A
C7     C75     1.469   .     S
C7     N35     1.379   .     A
C8     N36     1.383   .     A
C8     C79     1.473   .     S
C8     C10     1.405   .     A
C9     H33     1.083   .     S
C9     C11     1.400   .     A
C10    H34     1.083   .     S
C10    C12     1.398   .     A
C11    C504    1.515   1_554 S
C12    C503    1.515   .     S
C13    O41     1.285   .     A
C13    C15     1.434   .     S
C13    O43     1.292   .     A
C14    O42     1.285   .     A
C14    C16     1.435   .     S
C14    O44     1.292   .     A
C15    C180    1.339   1_455 S
C15    H209    1.087   1_455 S
C16    C97     1.339   .     S
C16    H128    1.087   .     S
C17    C27     1.397   .     A
C17    H47     1.085   .     S
C17    C19     1.388   .     A
C18    C20     1.389   .     A
C18    C28     1.391   .     A
C18    H48     1.086   .     S
C19    C21     1.412   .     A
C19    C49     1.488   .     S
C20    C22     1.424   .     A
C20    C53     1.481   .     S
C21    C23     1.416   .     A
C22    C24     1.432   .     A
C23    C57     1.481   .     S
C23    C25     1.413   .     A
C24    C61     1.488   .     S
C24    C26     1.414   .     A
C25    C65     1.492   .     S
C25    C27     1.414   .     A
C26    C28     1.409   .     A
C26    C69     1.490   .     S
C27    C274    1.471   1_545 S
C28    C273    1.471   .     S
Cu29   N36     2.015   .     S
Cu29   Cu30    2.682   .     S
Cu29   O44     1.957   .     S
Cu29   O41     1.951   .     S
Cu29   O40     1.961   .     S
Cu29   O37     1.955   .     S
Cu30   N35     2.015   .     S
Cu30   O38     1.955   .     S
Cu30   O43     1.957   .     S
Cu30   O39     1.961   .     S
Cu30   O42     1.951   .     S
H45    C97     1.087   .     S
H46    C180    1.087   1_455 S
C49    O51     1.399   .     S
C49    O50     1.222   .     D
O51    H52     1.013   .     S
C53    O55     1.398   .     S
C53    O54     1.223   .     D
O55    H56     1.014   .     S
C57    O59     1.397   .     S
C57    O58     1.221   .     D
O59    H60     1.014   .     S
C61    O63     1.399   .     S
C61    O62     1.223   .     D
O63    H64     1.014   .     S
C65    O67     1.398   .     S
C65    O66     1.223   .     D
O67    H68     1.014   .     S
C69    O71     1.398   .     S
C69    O316    1.223   .     S
O70    C315    1.223   1_545 S
O71    H72     1.014   .     S
C75    O76     1.221   .     D
C75    O77     1.398   .     S
O77    H78     1.014   .     S
C79    O81     1.398   .     S
C79    O80     1.220   .     D
O81    H82     1.014   .     S
C83    C103    1.457   .     S
C83    O119    1.292   .     A
C83    O121    1.292   .     A
C84    C104    1.494   .     S
C84    O120    1.303   .     A
C84    O122    1.302   .     A
C85    H113    1.081   .     S
C85    C87     1.410   .     A
C85    C93     1.414   .     A
C86    C94     1.413   .     A
C86    C88     1.412   .     A
C86    H114    1.081   .     S
C87    N117    1.364   .     A
C87    H155    1.081   .     S
C88    H156    1.081   .     S
C88    N118    1.367   .     A
C89    C91     1.406   .     A
C89    C157    1.469   .     S
C89    N117    1.379   .     A
C90    N118    1.383   .     A
C90    C161    1.473   .     S
C90    C92     1.405   .     A
C91    H115    1.083   .     S
C91    C93     1.400   .     A
C92    H116    1.083   .     S
C92    C94     1.398   .     A
C93    C586    1.515   1_554 S
C94    C585    1.515   .     S
C95    O123    1.285   .     A
C95    C97     1.434   .     S
C95    O125    1.292   .     A
C96    O124    1.285   .     A
C96    C98     1.435   .     S
C96    O126    1.292   .     A
C98    C179    1.339   .     S
C98    H210    1.087   .     S
C99    C109    1.397   .     A
C99    H129    1.085   .     S
C99    C101    1.388   .     A
C100   C102    1.389   .     A
C100   C110    1.391   .     A
C100   H130    1.086   .     S
C101   C103    1.412   .     A
C101   C131    1.488   .     S
C102   C104    1.424   .     A
C102   C135    1.481   .     S
C103   C105    1.416   .     A
C104   C106    1.432   .     A
C105   C139    1.481   .     S
C105   C107    1.413   .     A
C106   C143    1.488   .     S
C106   C108    1.414   .     A
C107   C147    1.492   .     S
C107   C109    1.414   .     A
C108   C110    1.409   .     A
C108   C151    1.490   .     S
C109   C356    1.471   1_545 S
C110   C355    1.471   .     S
Cu111  N118    2.015   .     S
Cu111  Cu112   2.682   .     S
Cu111  O126    1.957   .     S
Cu111  O123    1.951   .     S
Cu111  O122    1.961   .     S
Cu111  O119    1.955   .     S
Cu112  N117    2.015   .     S
Cu112  O120    1.955   .     S
Cu112  O125    1.957   .     S
Cu112  O121    1.961   .     S
Cu112  O124    1.951   .     S
H127   C179    1.087   .     S
C131   O133    1.399   .     S
C131   O132    1.222   .     D
O133   H134    1.013   .     S
C135   O137    1.398   .     S
C135   O136    1.223   .     D
O137   H138    1.014   .     S
C139   O141    1.397   .     S
C139   O140    1.221   .     D
O141   H142    1.014   .     S
C143   O145    1.399   .     S
C143   O144    1.223   .     D
O145   H146    1.014   .     S
C147   O149    1.398   .     S
C147   O148    1.223   .     D
O149   H150    1.014   .     S
C151   O153    1.398   .     S
C151   O398    1.223   .     S
O152   C397    1.223   1_545 S
O153   H154    1.014   .     S
C157   O158    1.221   .     D
C157   O159    1.398   .     S
O159   H160    1.014   .     S
C161   O163    1.398   .     S
C161   O162    1.220   .     D
O163   H164    1.014   .     S
C165   C185    1.457   .     S
C165   O201    1.292   .     A
C165   O203    1.292   .     A
C166   C186    1.494   .     S
C166   O202    1.303   .     A
C166   O204    1.302   .     A
C167   H195    1.081   .     S
C167   C169    1.410   .     A
C167   C175    1.414   .     A
C168   C176    1.413   .     A
C168   C170    1.412   .     A
C168   H196    1.081   .     S
C169   N199    1.364   .     A
C169   H237    1.081   .     S
C170   H238    1.081   .     S
C170   N200    1.367   .     A
C171   C173    1.406   .     A
C171   C239    1.469   .     S
C171   N199    1.379   .     A
C172   N200    1.383   .     A
C172   C243    1.473   .     S
C172   C174    1.405   .     A
C173   H197    1.083   .     S
C173   C175    1.400   .     A
C174   H198    1.083   .     S
C174   C176    1.398   .     A
C175   C668    1.515   1_554 S
C176   C667    1.515   .     S
C177   O205    1.285   .     A
C177   C179    1.434   .     S
C177   O207    1.292   .     A
C178   O206    1.285   .     A
C178   C180    1.435   .     S
C178   O208    1.292   .     A
C180   C15     1.339   1_655 S
C180   H46     1.087   1_655 S
C181   C191    1.397   .     A
C181   H211    1.085   .     S
C181   C183    1.388   .     A
C182   C184    1.389   .     A
C182   C192    1.391   .     A
C182   H212    1.086   .     S
C183   C185    1.412   .     A
C183   C213    1.488   .     S
C184   C186    1.424   .     A
C184   C217    1.481   .     S
C185   C187    1.416   .     A
C186   C188    1.432   .     A
C187   C221    1.481   .     S
C187   C189    1.413   .     A
C188   C225    1.488   .     S
C188   C190    1.414   .     A
C189   C229    1.492   .     S
C189   C191    1.414   .     A
C190   C192    1.409   .     A
C190   C233    1.490   .     S
C191   C438    1.471   1_545 S
C192   C437    1.471   .     S
Cu193  N200    2.015   .     S
Cu193  Cu194   2.682   .     S
Cu193  O208    1.957   .     S
Cu193  O205    1.951   .     S
Cu193  O204    1.961   .     S
Cu193  O201    1.955   .     S
Cu194  N199    2.015   .     S
Cu194  O202    1.955   .     S
Cu194  O207    1.957   .     S
Cu194  O203    1.961   .     S
Cu194  O206    1.951   .     S
H209   C15     1.087   1_655 S
C213   O215    1.399   .     S
C213   O214    1.222   .     D
O215   H216    1.013   .     S
C217   O219    1.398   .     S
C217   O218    1.223   .     D
O219   H220    1.014   .     S
C221   O223    1.397   .     S
C221   O222    1.221   .     D
O223   H224    1.014   .     S
C225   O227    1.399   .     S
C225   O226    1.223   .     D
O227   H228    1.014   .     S
C229   O231    1.398   .     S
C229   O230    1.223   .     D
O231   H232    1.014   .     S
C233   O235    1.398   .     S
C233   O480    1.223   .     S
O234   C479    1.223   1_545 S
O235   H236    1.014   .     S
C239   O240    1.221   .     D
C239   O241    1.398   .     S
O241   H242    1.014   .     S
C243   O245    1.398   .     S
C243   O244    1.220   .     D
O245   H246    1.014   .     S
C247   C267    1.457   .     S
C247   O283    1.292   .     A
C247   O285    1.292   .     A
C248   C268    1.494   .     S
C248   O284    1.303   .     A
C248   O286    1.302   .     A
C249   H277    1.081   .     S
C249   C251    1.410   .     A
C249   C257    1.414   .     A
C250   C258    1.413   .     A
C250   C252    1.412   .     A
C250   H278    1.081   .     S
C251   N281    1.364   .     A
C251   H319    1.081   .     S
C252   H320    1.081   .     S
C252   N282    1.367   .     A
C253   C255    1.406   .     A
C253   C321    1.469   .     S
C253   N281    1.379   .     A
C254   N282    1.383   .     A
C254   C325    1.473   .     S
C254   C256    1.405   .     A
C255   H279    1.083   .     S
C255   C257    1.400   .     A
C256   H280    1.083   .     S
C256   C258    1.398   .     A
C257   C750    1.515   1_554 S
C258   C749    1.515   .     S
C259   O287    1.285   .     A
C259   C261    1.434   .     S
C259   O289    1.292   .     A
C260   O288    1.285   .     A
C260   C262    1.435   .     S
C260   O290    1.292   .     A
C261   C426    1.339   1_455 S
C261   H455    1.087   1_455 S
C262   C343    1.339   .     S
C262   H374    1.087   .     S
C263   C273    1.397   .     A
C263   H293    1.085   .     S
C263   C265    1.388   .     A
C264   C266    1.389   .     A
C264   C274    1.391   .     A
C264   H294    1.086   .     S
C265   C267    1.412   .     A
C265   C295    1.488   .     S
C266   C268    1.424   .     A
C266   C299    1.481   .     S
C267   C269    1.416   .     A
C268   C270    1.432   .     A
C269   C303    1.481   .     S
C269   C271    1.413   .     A
C270   C307    1.488   .     S
C270   C272    1.414   .     A
C271   C311    1.492   .     S
C271   C273    1.414   .     A
C272   C274    1.409   .     A
C272   C315    1.490   .     S
C274   C27     1.471   1_565 S
Cu275  N282    2.015   .     S
Cu275  Cu276   2.682   .     S
Cu275  O290    1.957   .     S
Cu275  O287    1.951   .     S
Cu275  O286    1.961   .     S
Cu275  O283    1.955   .     S
Cu276  N281    2.015   .     S
Cu276  O284    1.955   .     S
Cu276  O289    1.957   .     S
Cu276  O285    1.961   .     S
Cu276  O288    1.951   .     S
H291   C343    1.087   .     S
H292   C426    1.087   1_455 S
C295   O297    1.399   .     S
C295   O296    1.222   .     D
O297   H298    1.013   .     S
C299   O301    1.398   .     S
C299   O300    1.223   .     D
O301   H302    1.014   .     S
C303   O305    1.397   .     S
C303   O304    1.221   .     D
O305   H306    1.014   .     S
C307   O309    1.399   .     S
C307   O308    1.223   .     D
O309   H310    1.014   .     S
C311   O313    1.398   .     S
C311   O312    1.223   .     D
O313   H314    1.014   .     S
C315   O317    1.398   .     S
C315   O70     1.223   1_565 S
O317   H318    1.014   .     S
C321   O322    1.221   .     D
C321   O323    1.398   .     S
O323   H324    1.014   .     S
C325   O327    1.398   .     S
C325   O326    1.220   .     D
O327   H328    1.014   .     S
C329   C349    1.457   .     S
C329   O365    1.292   .     A
C329   O367    1.292   .     A
C330   C350    1.494   .     S
C330   O366    1.303   .     A
C330   O368    1.302   .     A
C331   H359    1.081   .     S
C331   C333    1.410   .     A
C331   C339    1.414   .     A
C332   C340    1.413   .     A
C332   C334    1.412   .     A
C332   H360    1.081   .     S
C333   N363    1.364   .     A
C333   H401    1.081   .     S
C334   H402    1.081   .     S
C334   N364    1.367   .     A
C335   C337    1.406   .     A
C335   C403    1.469   .     S
C335   N363    1.379   .     A
C336   N364    1.383   .     A
C336   C407    1.473   .     S
C336   C338    1.405   .     A
C337   H361    1.083   .     S
C337   C339    1.400   .     A
C338   H362    1.083   .     S
C338   C340    1.398   .     A
C339   C832    1.515   1_554 S
C340   C831    1.515   .     S
C341   O369    1.285   .     A
C341   C343    1.434   .     S
C341   O371    1.292   .     A
C342   O370    1.285   .     A
C342   C344    1.435   .     S
C342   O372    1.292   .     A
C344   C425    1.339   .     S
C344   H456    1.087   .     S
C345   C355    1.397   .     A
C345   H375    1.085   .     S
C345   C347    1.388   .     A
C346   C348    1.389   .     A
C346   C356    1.391   .     A
C346   H376    1.086   .     S
C347   C349    1.412   .     A
C347   C377    1.488   .     S
C348   C350    1.424   .     A
C348   C381    1.481   .     S
C349   C351    1.416   .     A
C350   C352    1.432   .     A
C351   C385    1.481   .     S
C351   C353    1.413   .     A
C352   C389    1.488   .     S
C352   C354    1.414   .     A
C353   C393    1.492   .     S
C353   C355    1.414   .     A
C354   C356    1.409   .     A
C354   C397    1.490   .     S
C356   C109    1.471   1_565 S
Cu357  N364    2.015   .     S
Cu357  Cu358   2.682   .     S
Cu357  O372    1.957   .     S
Cu357  O369    1.951   .     S
Cu357  O368    1.961   .     S
Cu357  O365    1.955   .     S
Cu358  N363    2.015   .     S
Cu358  O366    1.955   .     S
Cu358  O371    1.957   .     S
Cu358  O367    1.961   .     S
Cu358  O370    1.951   .     S
H373   C425    1.087   .     S
C377   O379    1.399   .     S
C377   O378    1.222   .     D
O379   H380    1.013   .     S
C381   O383    1.398   .     S
C381   O382    1.223   .     D
O383   H384    1.014   .     S
C385   O387    1.397   .     S
C385   O386    1.221   .     D
O387   H388    1.014   .     S
C389   O391    1.399   .     S
C389   O390    1.223   .     D
O391   H392    1.014   .     S
C393   O395    1.398   .     S
C393   O394    1.223   .     D
O395   H396    1.014   .     S
C397   O399    1.398   .     S
C397   O152    1.223   1_565 S
O399   H400    1.014   .     S
C403   O404    1.221   .     D
C403   O405    1.398   .     S
O405   H406    1.014   .     S
C407   O409    1.398   .     S
C407   O408    1.220   .     D
O409   H410    1.014   .     S
C411   C431    1.457   .     S
C411   O447    1.292   .     A
C411   O449    1.292   .     A
C412   C432    1.494   .     S
C412   O448    1.303   .     A
C412   O450    1.302   .     A
C413   H441    1.081   .     S
C413   C415    1.410   .     A
C413   C421    1.414   .     A
C414   C422    1.413   .     A
C414   C416    1.412   .     A
C414   H442    1.081   .     S
C415   N445    1.364   .     A
C415   H483    1.081   .     S
C416   H484    1.081   .     S
C416   N446    1.367   .     A
C417   C419    1.406   .     A
C417   C485    1.469   .     S
C417   N445    1.379   .     A
C418   N446    1.383   .     A
C418   C489    1.473   .     S
C418   C420    1.405   .     A
C419   H443    1.083   .     S
C419   C421    1.400   .     A
C420   H444    1.083   .     S
C420   C422    1.398   .     A
C421   C914    1.515   1_554 S
C422   C913    1.515   .     S
C423   O451    1.285   .     A
C423   C425    1.434   .     S
C423   O453    1.292   .     A
C424   O452    1.285   .     A
C424   C426    1.435   .     S
C424   O454    1.292   .     A
C426   C261    1.339   1_655 S
C426   H292    1.087   1_655 S
C427   C437    1.397   .     A
C427   H457    1.085   .     S
C427   C429    1.388   .     A
C428   C430    1.389   .     A
C428   C438    1.391   .     A
C428   H458    1.086   .     S
C429   C431    1.412   .     A
C429   C459    1.488   .     S
C430   C432    1.424   .     A
C430   C463    1.481   .     S
C431   C433    1.416   .     A
C432   C434    1.432   .     A
C433   C467    1.481   .     S
C433   C435    1.413   .     A
C434   C471    1.488   .     S
C434   C436    1.414   .     A
C435   C475    1.492   .     S
C435   C437    1.414   .     A
C436   C438    1.409   .     A
C436   C479    1.490   .     S
C438   C191    1.471   1_565 S
Cu439  N446    2.015   .     S
Cu439  Cu440   2.682   .     S
Cu439  O454    1.957   .     S
Cu439  O451    1.951   .     S
Cu439  O450    1.961   .     S
Cu439  O447    1.955   .     S
Cu440  N445    2.015   .     S
Cu440  O448    1.955   .     S
Cu440  O453    1.957   .     S
Cu440  O449    1.961   .     S
Cu440  O452    1.951   .     S
H455   C261    1.087   1_655 S
C459   O461    1.399   .     S
C459   O460    1.222   .     D
O461   H462    1.013   .     S
C463   O465    1.398   .     S
C463   O464    1.223   .     D
O465   H466    1.014   .     S
C467   O469    1.397   .     S
C467   O468    1.221   .     D
O469   H470    1.014   .     S
C471   O473    1.399   .     S
C471   O472    1.223   .     D
O473   H474    1.014   .     S
C475   O477    1.398   .     S
C475   O476    1.223   .     D
O477   H478    1.014   .     S
C479   O481    1.398   .     S
C479   O234    1.223   1_565 S
O481   H482    1.014   .     S
C485   O486    1.221   .     D
C485   O487    1.398   .     S
O487   H488    1.014   .     S
C489   O491    1.398   .     S
C489   O490    1.220   .     D
O491   H492    1.014   .     S
C493   C513    1.457   .     S
C493   O529    1.292   .     A
C493   O531    1.292   .     A
C494   C514    1.494   .     S
C494   O530    1.303   .     A
C494   O532    1.302   .     A
C495   H523    1.081   .     S
C495   C497    1.410   .     A
C495   C503    1.414   .     A
C496   C504    1.413   .     A
C496   C498    1.412   .     A
C496   H524    1.081   .     S
C497   N527    1.364   .     A
C497   H565    1.081   .     S
C498   H566    1.081   .     S
C498   N528    1.367   .     A
C499   C501    1.406   .     A
C499   C567    1.469   .     S
C499   N527    1.379   .     A
C500   N528    1.383   .     A
C500   C571    1.473   .     S
C500   C502    1.405   .     A
C501   H525    1.083   .     S
C501   C503    1.400   .     A
C502   H526    1.083   .     S
C502   C504    1.398   .     A
C504   C11     1.515   1_556 S
C505   O533    1.285   .     A
C505   C507    1.434   .     S
C505   O535    1.292   .     A
C506   O534    1.285   .     A
C506   C508    1.435   .     S
C506   O536    1.292   .     A
C507   C672    1.339   1_455 S
C507   H701    1.087   1_455 S
C508   C589    1.339   .     S
C508   H620    1.087   .     S
C509   C519    1.397   .     A
C509   H539    1.085   .     S
C509   C511    1.388   .     A
C510   C512    1.389   .     A
C510   C520    1.391   .     A
C510   H540    1.086   .     S
C511   C513    1.412   .     A
C511   C541    1.488   .     S
C512   C514    1.424   .     A
C512   C545    1.481   .     S
C513   C515    1.416   .     A
C514   C516    1.432   .     A
C515   C549    1.481   .     S
C515   C517    1.413   .     A
C516   C553    1.488   .     S
C516   C518    1.414   .     A
C517   C557    1.492   .     S
C517   C519    1.414   .     A
C518   C520    1.409   .     A
C518   C561    1.490   .     S
C519   C766    1.471   1_545 S
C520   C765    1.471   .     S
Cu521  N528    2.015   .     S
Cu521  Cu522   2.682   .     S
Cu521  O536    1.957   .     S
Cu521  O533    1.951   .     S
Cu521  O532    1.961   .     S
Cu521  O529    1.955   .     S
Cu522  N527    2.015   .     S
Cu522  O530    1.955   .     S
Cu522  O535    1.957   .     S
Cu522  O531    1.961   .     S
Cu522  O534    1.951   .     S
H537   C589    1.087   .     S
H538   C672    1.087   1_455 S
C541   O543    1.399   .     S
C541   O542    1.222   .     D
O543   H544    1.013   .     S
C545   O547    1.398   .     S
C545   O546    1.223   .     D
O547   H548    1.014   .     S
C549   O551    1.397   .     S
C549   O550    1.221   .     D
O551   H552    1.014   .     S
C553   O555    1.399   .     S
C553   O554    1.223   .     D
O555   H556    1.014   .     S
C557   O559    1.398   .     S
C557   O558    1.223   .     D
O559   H560    1.014   .     S
C561   O563    1.398   .     S
C561   O808    1.223   .     S
O562   C807    1.223   1_545 S
O563   H564    1.014   .     S
C567   O568    1.221   .     D
C567   O569    1.398   .     S
O569   H570    1.014   .     S
C571   O573    1.398   .     S
C571   O572    1.220   .     D
O573   H574    1.014   .     S
C575   C595    1.457   .     S
C575   O611    1.292   .     A
C575   O613    1.292   .     A
C576   C596    1.494   .     S
C576   O612    1.303   .     A
C576   O614    1.302   .     A
C577   H605    1.081   .     S
C577   C579    1.410   .     A
C577   C585    1.414   .     A
C578   C586    1.413   .     A
C578   C580    1.412   .     A
C578   H606    1.081   .     S
C579   N609    1.364   .     A
C579   H647    1.081   .     S
C580   H648    1.081   .     S
C580   N610    1.367   .     A
C581   C583    1.406   .     A
C581   C649    1.469   .     S
C581   N609    1.379   .     A
C582   N610    1.383   .     A
C582   C653    1.473   .     S
C582   C584    1.405   .     A
C583   H607    1.083   .     S
C583   C585    1.400   .     A
C584   H608    1.083   .     S
C584   C586    1.398   .     A
C586   C93     1.515   1_556 S
C587   O615    1.285   .     A
C587   C589    1.434   .     S
C587   O617    1.292   .     A
C588   O616    1.285   .     A
C588   C590    1.435   .     S
C588   O618    1.292   .     A
C590   C671    1.339   .     S
C590   H702    1.087   .     S
C591   C601    1.397   .     A
C591   H621    1.085   .     S
C591   C593    1.388   .     A
C592   C594    1.389   .     A
C592   C602    1.391   .     A
C592   H622    1.086   .     S
C593   C595    1.412   .     A
C593   C623    1.488   .     S
C594   C596    1.424   .     A
C594   C627    1.481   .     S
C595   C597    1.416   .     A
C596   C598    1.432   .     A
C597   C631    1.481   .     S
C597   C599    1.413   .     A
C598   C635    1.488   .     S
C598   C600    1.414   .     A
C599   C639    1.492   .     S
C599   C601    1.414   .     A
C600   C602    1.409   .     A
C600   C643    1.490   .     S
C601   C848    1.471   1_545 S
C602   C847    1.471   .     S
Cu603  N610    2.015   .     S
Cu603  Cu604   2.682   .     S
Cu603  O618    1.957   .     S
Cu603  O615    1.951   .     S
Cu603  O614    1.961   .     S
Cu603  O611    1.955   .     S
Cu604  N609    2.015   .     S
Cu604  O612    1.955   .     S
Cu604  O617    1.957   .     S
Cu604  O613    1.961   .     S
Cu604  O616    1.951   .     S
H619   C671    1.087   .     S
C623   O625    1.399   .     S
C623   O624    1.222   .     D
O625   H626    1.013   .     S
C627   O629    1.398   .     S
C627   O628    1.223   .     D
O629   H630    1.014   .     S
C631   O633    1.397   .     S
C631   O632    1.221   .     D
O633   H634    1.014   .     S
C635   O637    1.399   .     S
C635   O636    1.223   .     D
O637   H638    1.014   .     S
C639   O641    1.398   .     S
C639   O640    1.223   .     D
O641   H642    1.014   .     S
C643   O645    1.398   .     S
C643   O890    1.223   .     S
O644   C889    1.223   1_545 S
O645   H646    1.014   .     S
C649   O650    1.221   .     D
C649   O651    1.398   .     S
O651   H652    1.014   .     S
C653   O655    1.398   .     S
C653   O654    1.220   .     D
O655   H656    1.014   .     S
C657   C677    1.457   .     S
C657   O693    1.292   .     A
C657   O695    1.292   .     A
C658   C678    1.494   .     S
C658   O694    1.303   .     A
C658   O696    1.302   .     A
C659   H687    1.081   .     S
C659   C661    1.410   .     A
C659   C667    1.414   .     A
C660   C668    1.413   .     A
C660   C662    1.412   .     A
C660   H688    1.081   .     S
C661   N691    1.364   .     A
C661   H729    1.081   .     S
C662   H730    1.081   .     S
C662   N692    1.367   .     A
C663   C665    1.406   .     A
C663   C731    1.469   .     S
C663   N691    1.379   .     A
C664   N692    1.383   .     A
C664   C735    1.473   .     S
C664   C666    1.405   .     A
C665   H689    1.083   .     S
C665   C667    1.400   .     A
C666   H690    1.083   .     S
C666   C668    1.398   .     A
C668   C175    1.515   1_556 S
C669   O697    1.285   .     A
C669   C671    1.434   .     S
C669   O699    1.292   .     A
C670   O698    1.285   .     A
C670   C672    1.435   .     S
C670   O700    1.292   .     A
C672   C507    1.339   1_655 S
C672   H538    1.087   1_655 S
C673   C683    1.397   .     A
C673   H703    1.085   .     S
C673   C675    1.388   .     A
C674   C676    1.389   .     A
C674   C684    1.391   .     A
C674   H704    1.086   .     S
C675   C677    1.412   .     A
C675   C705    1.488   .     S
C676   C678    1.424   .     A
C676   C709    1.481   .     S
C677   C679    1.416   .     A
C678   C680    1.432   .     A
C679   C713    1.481   .     S
C679   C681    1.413   .     A
C680   C717    1.488   .     S
C680   C682    1.414   .     A
C681   C721    1.492   .     S
C681   C683    1.414   .     A
C682   C684    1.409   .     A
C682   C725    1.490   .     S
C683   C930    1.471   1_545 S
C684   C929    1.471   .     S
Cu685  N692    2.015   .     S
Cu685  Cu686   2.682   .     S
Cu685  O700    1.957   .     S
Cu685  O697    1.951   .     S
Cu685  O696    1.961   .     S
Cu685  O693    1.955   .     S
Cu686  N691    2.015   .     S
Cu686  O694    1.955   .     S
Cu686  O699    1.957   .     S
Cu686  O695    1.961   .     S
Cu686  O698    1.951   .     S
H701   C507    1.087   1_655 S
C705   O707    1.399   .     S
C705   O706    1.222   .     D
O707   H708    1.013   .     S
C709   O711    1.398   .     S
C709   O710    1.223   .     D
O711   H712    1.014   .     S
C713   O715    1.397   .     S
C713   O714    1.221   .     D
O715   H716    1.014   .     S
C717   O719    1.399   .     S
C717   O718    1.223   .     D
O719   H720    1.014   .     S
C721   O723    1.398   .     S
C721   O722    1.223   .     D
O723   H724    1.014   .     S
C725   O727    1.398   .     S
C725   O972    1.223   .     S
O726   C971    1.223   1_545 S
O727   H728    1.014   .     S
C731   O732    1.221   .     D
C731   O733    1.398   .     S
O733   H734    1.014   .     S
C735   O737    1.398   .     S
C735   O736    1.220   .     D
O737   H738    1.014   .     S
C739   C759    1.457   .     S
C739   O775    1.292   .     A
C739   O777    1.292   .     A
C740   C760    1.494   .     S
C740   O776    1.303   .     A
C740   O778    1.302   .     A
C741   H769    1.081   .     S
C741   C743    1.410   .     A
C741   C749    1.414   .     A
C742   C750    1.413   .     A
C742   C744    1.412   .     A
C742   H770    1.081   .     S
C743   N773    1.364   .     A
C743   H811    1.081   .     S
C744   H812    1.081   .     S
C744   N774    1.367   .     A
C745   C747    1.406   .     A
C745   C813    1.469   .     S
C745   N773    1.379   .     A
C746   N774    1.383   .     A
C746   C817    1.473   .     S
C746   C748    1.405   .     A
C747   H771    1.083   .     S
C747   C749    1.400   .     A
C748   H772    1.083   .     S
C748   C750    1.398   .     A
C750   C257    1.515   1_556 S
C751   O779    1.285   .     A
C751   C753    1.434   .     S
C751   O781    1.292   .     A
C752   O780    1.285   .     A
C752   C754    1.435   .     S
C752   O782    1.292   .     A
C753   C918    1.339   1_455 S
C753   H947    1.087   1_455 S
C754   C835    1.339   .     S
C754   H866    1.087   .     S
C755   C765    1.397   .     A
C755   H785    1.085   .     S
C755   C757    1.388   .     A
C756   C758    1.389   .     A
C756   C766    1.391   .     A
C756   H786    1.086   .     S
C757   C759    1.412   .     A
C757   C787    1.488   .     S
C758   C760    1.424   .     A
C758   C791    1.481   .     S
C759   C761    1.416   .     A
C760   C762    1.432   .     A
C761   C795    1.481   .     S
C761   C763    1.413   .     A
C762   C799    1.488   .     S
C762   C764    1.414   .     A
C763   C803    1.492   .     S
C763   C765    1.414   .     A
C764   C766    1.409   .     A
C764   C807    1.490   .     S
C766   C519    1.471   1_565 S
Cu767  N774    2.015   .     S
Cu767  Cu768   2.682   .     S
Cu767  O782    1.957   .     S
Cu767  O779    1.951   .     S
Cu767  O778    1.961   .     S
Cu767  O775    1.955   .     S
Cu768  N773    2.015   .     S
Cu768  O776    1.955   .     S
Cu768  O781    1.957   .     S
Cu768  O777    1.961   .     S
Cu768  O780    1.951   .     S
H783   C835    1.087   .     S
H784   C918    1.087   1_455 S
C787   O789    1.399   .     S
C787   O788    1.222   .     D
O789   H790    1.013   .     S
C791   O793    1.398   .     S
C791   O792    1.223   .     D
O793   H794    1.014   .     S
C795   O797    1.397   .     S
C795   O796    1.221   .     D
O797   H798    1.014   .     S
C799   O801    1.399   .     S
C799   O800    1.223   .     D
O801   H802    1.014   .     S
C803   O805    1.398   .     S
C803   O804    1.223   .     D
O805   H806    1.014   .     S
C807   O809    1.398   .     S
C807   O562    1.223   1_565 S
O809   H810    1.014   .     S
C813   O814    1.221   .     D
C813   O815    1.398   .     S
O815   H816    1.014   .     S
C817   O819    1.398   .     S
C817   O818    1.220   .     D
O819   H820    1.014   .     S
C821   C841    1.457   .     S
C821   O857    1.292   .     A
C821   O859    1.292   .     A
C822   C842    1.494   .     S
C822   O858    1.303   .     A
C822   O860    1.302   .     A
C823   H851    1.081   .     S
C823   C825    1.410   .     A
C823   C831    1.414   .     A
C824   C832    1.413   .     A
C824   C826    1.412   .     A
C824   H852    1.081   .     S
C825   N855    1.364   .     A
C825   H893    1.081   .     S
C826   H894    1.081   .     S
C826   N856    1.367   .     A
C827   C829    1.406   .     A
C827   C895    1.469   .     S
C827   N855    1.379   .     A
C828   N856    1.383   .     A
C828   C899    1.473   .     S
C828   C830    1.405   .     A
C829   H853    1.083   .     S
C829   C831    1.400   .     A
C830   H854    1.083   .     S
C830   C832    1.398   .     A
C832   C339    1.515   1_556 S
C833   O861    1.285   .     A
C833   C835    1.434   .     S
C833   O863    1.292   .     A
C834   O862    1.285   .     A
C834   C836    1.435   .     S
C834   O864    1.292   .     A
C836   C917    1.339   .     S
C836   H948    1.087   .     S
C837   C847    1.397   .     A
C837   H867    1.085   .     S
C837   C839    1.388   .     A
C838   C840    1.389   .     A
C838   C848    1.391   .     A
C838   H868    1.086   .     S
C839   C841    1.412   .     A
C839   C869    1.488   .     S
C840   C842    1.424   .     A
C840   C873    1.481   .     S
C841   C843    1.416   .     A
C842   C844    1.432   .     A
C843   C877    1.481   .     S
C843   C845    1.413   .     A
C844   C881    1.488   .     S
C844   C846    1.414   .     A
C845   C885    1.492   .     S
C845   C847    1.414   .     A
C846   C848    1.409   .     A
C846   C889    1.490   .     S
C848   C601    1.471   1_565 S
Cu849  N856    2.015   .     S
Cu849  Cu850   2.682   .     S
Cu849  O864    1.957   .     S
Cu849  O861    1.951   .     S
Cu849  O860    1.961   .     S
Cu849  O857    1.955   .     S
Cu850  N855    2.015   .     S
Cu850  O858    1.955   .     S
Cu850  O863    1.957   .     S
Cu850  O859    1.961   .     S
Cu850  O862    1.951   .     S
H865   C917    1.087   .     S
C869   O871    1.399   .     S
C869   O870    1.222   .     D
O871   H872    1.013   .     S
C873   O875    1.398   .     S
C873   O874    1.223   .     D
O875   H876    1.014   .     S
C877   O879    1.397   .     S
C877   O878    1.221   .     D
O879   H880    1.014   .     S
C881   O883    1.399   .     S
C881   O882    1.223   .     D
O883   H884    1.014   .     S
C885   O887    1.398   .     S
C885   O886    1.223   .     D
O887   H888    1.014   .     S
C889   O891    1.398   .     S
C889   O644    1.223   1_565 S
O891   H892    1.014   .     S
C895   O896    1.221   .     D
C895   O897    1.398   .     S
O897   H898    1.014   .     S
C899   O901    1.398   .     S
C899   O900    1.220   .     D
O901   H902    1.014   .     S
C903   C923    1.457   .     S
C903   O939    1.292   .     A
C903   O941    1.292   .     A
C904   C924    1.494   .     S
C904   O940    1.303   .     A
C904   O942    1.302   .     A
C905   H933    1.081   .     S
C905   C907    1.410   .     A
C905   C913    1.414   .     A
C906   C914    1.413   .     A
C906   C908    1.412   .     A
C906   H934    1.081   .     S
C907   N937    1.364   .     A
C907   H975    1.081   .     S
C908   H976    1.081   .     S
C908   N938    1.367   .     A
C909   C911    1.406   .     A
C909   C977    1.469   .     S
C909   N937    1.379   .     A
C910   N938    1.383   .     A
C910   C981    1.473   .     S
C910   C912    1.405   .     A
C911   H935    1.083   .     S
C911   C913    1.400   .     A
C912   H936    1.083   .     S
C912   C914    1.398   .     A
C914   C421    1.515   1_556 S
C915   O943    1.285   .     A
C915   C917    1.434   .     S
C915   O945    1.292   .     A
C916   O944    1.285   .     A
C916   C918    1.435   .     S
C916   O946    1.292   .     A
C918   C753    1.339   1_655 S
C918   H784    1.087   1_655 S
C919   C929    1.397   .     A
C919   H949    1.085   .     S
C919   C921    1.388   .     A
C920   C922    1.389   .     A
C920   C930    1.391   .     A
C920   H950    1.086   .     S
C921   C923    1.412   .     A
C921   C951    1.488   .     S
C922   C924    1.424   .     A
C922   C955    1.481   .     S
C923   C925    1.416   .     A
C924   C926    1.432   .     A
C925   C959    1.481   .     S
C925   C927    1.413   .     A
C926   C963    1.488   .     S
C926   C928    1.414   .     A
C927   C967    1.492   .     S
C927   C929    1.414   .     A
C928   C930    1.409   .     A
C928   C971    1.490   .     S
C930   C683    1.471   1_565 S
Cu931  N938    2.015   .     S
Cu931  Cu932   2.682   .     S
Cu931  O946    1.957   .     S
Cu931  O943    1.951   .     S
Cu931  O942    1.961   .     S
Cu931  O939    1.955   .     S
Cu932  N937    2.015   .     S
Cu932  O940    1.955   .     S
Cu932  O945    1.957   .     S
Cu932  O941    1.961   .     S
Cu932  O944    1.951   .     S
H947   C753    1.087   1_655 S
C951   O953    1.399   .     S
C951   O952    1.222   .     D
O953   H954    1.013   .     S
C955   O957    1.398   .     S
C955   O956    1.223   .     D
O957   H958    1.014   .     S
C959   O961    1.397   .     S
C959   O960    1.221   .     D
O961   H962    1.014   .     S
C963   O965    1.399   .     S
C963   O964    1.223   .     D
O965   H966    1.014   .     S
C967   O969    1.398   .     S
C967   O968    1.223   .     D
O969   H970    1.014   .     S
C971   O973    1.398   .     S
C971   O726    1.223   1_565 S
O973   H974    1.014   .     S
C977   O978    1.221   .     D
C977   O979    1.398   .     S
O979   H980    1.014   .     S
C981   O983    1.398   .     S
C981   O982    1.220   .     D
O983   H984    1.014   .     S
