data_str_m2_o1_o18_pcu_sym.35
_audit_creation_date              2020-01-03
_audit_creation_method            'Materials Studio'
_symmetry_space_group_name_H-M    'P1'
_symmetry_Int_Tables_number       1
_symmetry_cell_setting            triclinic
loop_
_symmetry_equiv_pos_as_xyz
  x,y,z
_cell_length_a                    28.5807
_cell_length_b                    32.4967
_cell_length_c                    31.0816
_cell_angle_alpha                 89.5222
_cell_angle_beta                  74.1654
_cell_angle_gamma                 89.8223
loop_
_atom_site_label
_atom_site_type_symbol
_atom_site_fract_x
_atom_site_fract_y
_atom_site_fract_z
_atom_site_U_iso_or_equiv
_atom_site_adp_type
_atom_site_occupancy
C1     C     0.00001   0.08737   0.25007   0.00000  Uiso   1.00
C2     C     0.04302   0.02117   0.24825   0.00000  Uiso   1.00
C3     C     0.33329   0.29059   0.25000   0.00000  Uiso   1.00
C4     C     0.00002   0.04274   0.25011   0.00000  Uiso   1.00
C5     C     0.18351   0.14081   0.27757   0.00000  Uiso   1.00
C6     C     0.14986   0.19240   0.22227   0.00000  Uiso   1.00
C7     C     0.13373   0.14089   0.27791   0.00000  Uiso   1.00
C8     C     0.19960   0.19242   0.22206   0.00000  Uiso   1.00
C9     C     0.30590   0.16706   0.33602   0.00000  Uiso   1.00
C10    C     0.02757   0.16619   0.16381   0.00000  Uiso   1.00
C11    C     0.29021   0.17358   0.38450   0.00000  Uiso   1.00
C12    C     0.33331   0.24597   0.24997   0.00000  Uiso   1.00
C13    C     0.04330   0.16741   0.11441   0.00000  Uiso   1.00
C14    C     0.30236   0.20760   0.44951   0.00000  Uiso   1.00
C15    C     0.02293   0.16996   0.04365   0.00000  Uiso   1.00
C16    C     0.31995   0.19566   0.40516   0.00000  Uiso   1.00
C17    C     0.00848   0.16908   0.09019   0.00000  Uiso   1.00
C18    C     0.24261   0.16275   0.40871   0.00000  Uiso   1.00
C19    C     0.09338   0.16765   0.09125   0.00000  Uiso   1.00
C20    C     0.22223   0.18010   0.45148   0.00000  Uiso   1.00
C21    C     0.10772   0.17577   0.04463   0.00000  Uiso   1.00
C22    C     0.25390   0.19988   0.47289   0.00000  Uiso   1.00
C23    C     0.18899   0.20383   0.04122   0.00000  Uiso   1.00
C24    C     0.07227   0.17292   0.02067   0.00000  Uiso   1.00
C25    C     0.17180   0.17816   0.47405   0.00000  Uiso   1.00
C26    C     0.15654   0.18463   0.02075   0.00000  Uiso   1.00
C27    C     0.13579   0.17449   0.45102   0.00000  Uiso   1.00
C28    C     0.23664   0.21223   0.01729   0.00000  Uiso   1.00
C29    C     0.08670   0.17292   0.47400   0.00000  Uiso   1.00
C30    C     0.29030   0.02140   0.25194   0.00000  Uiso   1.00
C31    C     0.04299   0.31194   0.24820   0.00000  Uiso   1.00
C32    C     0.29028   0.31216   0.25189   0.00000  Uiso   1.00
Cu33   Cu    0.04689   0.16667   0.25000   0.00000  Uiso   1.00
Cu34   Cu    0.28645   0.16666   0.25000   0.00000  Uiso   1.00
H35    H     0.26021   0.22806   0.03378   0.00000  Uiso   1.00
H36    H     0.07665   0.29584   0.24666   0.00000  Uiso   1.00
H37    H     0.25662   0.29624   0.25341   0.00000  Uiso   1.00
H38    H     0.07668   0.03709   0.24672   0.00000  Uiso   1.00
H39    H     0.19603   0.11985   0.29926   0.00000  Uiso   1.00
H40    H     0.13742   0.21306   0.20022   0.00000  Uiso   1.00
H41    H     0.15549   0.13500   0.09107   0.00000  Uiso   1.00
H42    H     0.14241   0.17507   0.12799   0.00000  Uiso   1.00
H43    H     0.19831   0.11170   0.41951   0.00000  Uiso   1.00
H44    H     0.19898   0.13948   0.37233   0.00000  Uiso   1.00
H45    H     0.10124   0.12065   0.34032   0.00000  Uiso   1.00
H46    H     0.06008   0.17088   0.45513   0.00000  Uiso   1.00
H47    H     0.11291   0.08378   0.30080   0.00000  Uiso   1.00
H48    H     0.23201   0.21281   0.15969   0.00000  Uiso   1.00
H49    H     0.22040   0.24957   0.19929   0.00000  Uiso   1.00
H50    H     0.30331   0.16822   0.10715   0.00000  Uiso   1.00
H51    H     0.02329   0.20420   0.38683   0.00000  Uiso   1.00
H52    H     0.32623   0.22405   0.46513   0.00000  Uiso   1.00
H53    H     0.32877   0.16869   0.02566   0.00000  Uiso   1.00
H54    H     0.17692   0.21563   0.07474   0.00000  Uiso   1.00
H55    H     0.14461   0.17624   0.41511   0.00000  Uiso   1.00
H56    H     0.25664   0.03749   0.25349   0.00000  Uiso   1.00
N57    N     0.11736   0.16668   0.24999   0.00000  Uiso   1.00
N58    N     0.21597   0.16666   0.25001   0.00000  Uiso   1.00
N59    N     0.12778   0.15135   0.11334   0.00000  Uiso   1.00
N60    N     0.21990   0.12876   0.39279   0.00000  Uiso   1.00
N61    N     0.10042   0.11393   0.30768   0.00000  Uiso   1.00
N62    N     0.23289   0.21943   0.19232   0.00000  Uiso   1.00
O63    O     0.03958   0.10655   0.25000   0.00000  Uiso   1.00
O64    O     0.29375   0.22678   0.25000   0.00000  Uiso   1.00
O65    O     0.29372   0.10654   0.25001   0.00000  Uiso   1.00
O66    O     0.03961   0.22679   0.25000   0.00000  Uiso   1.00
O67    O     0.01852   0.16668   0.31492   0.00000  Uiso   1.00
O68    O     0.31481   0.16666   0.18509   0.00000  Uiso   1.00
O69    O     0.27267   0.16667   0.31492   0.00000  Uiso   1.00
O70    O     0.06067   0.16667   0.18508   0.00000  Uiso   1.00
C71    C     0.33334   0.08737   0.25007   0.00000  Uiso   1.00
C72    C     0.37635   0.02117   0.24825   0.00000  Uiso   1.00
C73    C     0.66662   0.29059   0.25000   0.00000  Uiso   1.00
C74    C     0.33335   0.04274   0.25011   0.00000  Uiso   1.00
C75    C     0.51684   0.14081   0.27757   0.00000  Uiso   1.00
C76    C     0.48319   0.19240   0.22227   0.00000  Uiso   1.00
C77    C     0.46707   0.14089   0.27791   0.00000  Uiso   1.00
C78    C     0.53294   0.19242   0.22206   0.00000  Uiso   1.00
C79    C     0.63924   0.16706   0.33602   0.00000  Uiso   1.00
C80    C     0.36090   0.16619   0.16381   0.00000  Uiso   1.00
C81    C     0.62354   0.17358   0.38450   0.00000  Uiso   1.00
C82    C     0.66664   0.24597   0.24997   0.00000  Uiso   1.00
C83    C     0.37663   0.16741   0.11441   0.00000  Uiso   1.00
C84    C     0.63569   0.20760   0.44951   0.00000  Uiso   1.00
C85    C     0.35626   0.16996   0.04365   0.00000  Uiso   1.00
C86    C     0.65328   0.19566   0.40516   0.00000  Uiso   1.00
C87    C     0.34181   0.16908   0.09019   0.00000  Uiso   1.00
C88    C     0.57594   0.16275   0.40871   0.00000  Uiso   1.00
C89    C     0.42671   0.16765   0.09125   0.00000  Uiso   1.00
C90    C     0.55557   0.18010   0.45148   0.00000  Uiso   1.00
C91    C     0.44105   0.17577   0.04463   0.00000  Uiso   1.00
C92    C     0.58724   0.19988   0.47289   0.00000  Uiso   1.00
C93    C     0.52233   0.20383   0.04122   0.00000  Uiso   1.00
C94    C     0.40561   0.17292   0.02067   0.00000  Uiso   1.00
C95    C     0.50514   0.17816   0.47405   0.00000  Uiso   1.00
C96    C     0.48987   0.18463   0.02075   0.00000  Uiso   1.00
C97    C     0.46913   0.17449   0.45102   0.00000  Uiso   1.00
C98    C     0.56998   0.21223   0.01729   0.00000  Uiso   1.00
C99    C     0.42003   0.17292   0.47400   0.00000  Uiso   1.00
C100   C     0.62364   0.02140   0.25194   0.00000  Uiso   1.00
C101   C     0.37632   0.31194   0.24820   0.00000  Uiso   1.00
C102   C     0.62361   0.31216   0.25189   0.00000  Uiso   1.00
Cu103  Cu    0.38022   0.16667   0.25000   0.00000  Uiso   1.00
Cu104  Cu    0.61978   0.16666   0.25000   0.00000  Uiso   1.00
H105   H     0.59354   0.22806   0.03378   0.00000  Uiso   1.00
H106   H     0.40998   0.29584   0.24666   0.00000  Uiso   1.00
H107   H     0.58995   0.29624   0.25341   0.00000  Uiso   1.00
H108   H     0.41001   0.03709   0.24672   0.00000  Uiso   1.00
H109   H     0.52937   0.11985   0.29926   0.00000  Uiso   1.00
H110   H     0.47075   0.21306   0.20022   0.00000  Uiso   1.00
H111   H     0.48882   0.13500   0.09107   0.00000  Uiso   1.00
H112   H     0.47574   0.17507   0.12799   0.00000  Uiso   1.00
H113   H     0.53164   0.11170   0.41951   0.00000  Uiso   1.00
H114   H     0.53231   0.13948   0.37233   0.00000  Uiso   1.00
H115   H     0.43457   0.12065   0.34032   0.00000  Uiso   1.00
H116   H     0.39342   0.17088   0.45513   0.00000  Uiso   1.00
H117   H     0.44624   0.08378   0.30080   0.00000  Uiso   1.00
H118   H     0.56534   0.21281   0.15969   0.00000  Uiso   1.00
H119   H     0.55374   0.24957   0.19929   0.00000  Uiso   1.00
H120   H     0.63664   0.16822   0.10715   0.00000  Uiso   1.00
H121   H     0.35662   0.20420   0.38683   0.00000  Uiso   1.00
H122   H     0.65956   0.22405   0.46513   0.00000  Uiso   1.00
H123   H     0.66211   0.16869   0.02566   0.00000  Uiso   1.00
H124   H     0.51025   0.21563   0.07474   0.00000  Uiso   1.00
H125   H     0.47794   0.17624   0.41511   0.00000  Uiso   1.00
H126   H     0.58998   0.03749   0.25349   0.00000  Uiso   1.00
N127   N     0.45069   0.16668   0.24999   0.00000  Uiso   1.00
N128   N     0.54931   0.16666   0.25001   0.00000  Uiso   1.00
N129   N     0.46111   0.15135   0.11334   0.00000  Uiso   1.00
N130   N     0.55324   0.12876   0.39279   0.00000  Uiso   1.00
N131   N     0.43376   0.11393   0.30768   0.00000  Uiso   1.00
N132   N     0.56623   0.21943   0.19232   0.00000  Uiso   1.00
O133   O     0.37291   0.10655   0.25000   0.00000  Uiso   1.00
O134   O     0.62709   0.22678   0.25000   0.00000  Uiso   1.00
O135   O     0.62706   0.10654   0.25001   0.00000  Uiso   1.00
O136   O     0.37294   0.22679   0.25000   0.00000  Uiso   1.00
O137   O     0.35186   0.16668   0.31492   0.00000  Uiso   1.00
O138   O     0.64814   0.16666   0.18509   0.00000  Uiso   1.00
O139   O     0.60600   0.16667   0.31492   0.00000  Uiso   1.00
O140   O     0.39400   0.16667   0.18508   0.00000  Uiso   1.00
C141   C     0.66668   0.08737   0.25007   0.00000  Uiso   1.00
C142   C     0.70969   0.02117   0.24825   0.00000  Uiso   1.00
C143   C     0.99995   0.29059   0.25000   0.00000  Uiso   1.00
C144   C     0.66668   0.04274   0.25011   0.00000  Uiso   1.00
C145   C     0.85018   0.14081   0.27757   0.00000  Uiso   1.00
C146   C     0.81653   0.19240   0.22227   0.00000  Uiso   1.00
C147   C     0.80040   0.14089   0.27791   0.00000  Uiso   1.00
C148   C     0.86627   0.19242   0.22206   0.00000  Uiso   1.00
C149   C     0.97257   0.16706   0.33602   0.00000  Uiso   1.00
C150   C     0.69424   0.16619   0.16381   0.00000  Uiso   1.00
C151   C     0.95688   0.17358   0.38450   0.00000  Uiso   1.00
C152   C     0.99998   0.24597   0.24997   0.00000  Uiso   1.00
C153   C     0.70996   0.16741   0.11441   0.00000  Uiso   1.00
C154   C     0.96902   0.20760   0.44951   0.00000  Uiso   1.00
C155   C     0.68959   0.16996   0.04365   0.00000  Uiso   1.00
C156   C     0.98661   0.19566   0.40516   0.00000  Uiso   1.00
C157   C     0.67514   0.16908   0.09019   0.00000  Uiso   1.00
C158   C     0.90927   0.16275   0.40871   0.00000  Uiso   1.00
C159   C     0.76004   0.16765   0.09125   0.00000  Uiso   1.00
C160   C     0.88890   0.18010   0.45148   0.00000  Uiso   1.00
C161   C     0.77438   0.17577   0.04463   0.00000  Uiso   1.00
C162   C     0.92057   0.19988   0.47289   0.00000  Uiso   1.00
C163   C     0.85566   0.20383   0.04122   0.00000  Uiso   1.00
C164   C     0.73894   0.17292   0.02067   0.00000  Uiso   1.00
C165   C     0.83847   0.17816   0.47405   0.00000  Uiso   1.00
C166   C     0.82321   0.18463   0.02075   0.00000  Uiso   1.00
C167   C     0.80246   0.17449   0.45102   0.00000  Uiso   1.00
C168   C     0.90331   0.21223   0.01729   0.00000  Uiso   1.00
C169   C     0.75337   0.17292   0.47400   0.00000  Uiso   1.00
C170   C     0.95697   0.02140   0.25194   0.00000  Uiso   1.00
C171   C     0.70966   0.31194   0.24820   0.00000  Uiso   1.00
C172   C     0.95694   0.31216   0.25189   0.00000  Uiso   1.00
Cu173  Cu    0.71355   0.16667   0.25000   0.00000  Uiso   1.00
Cu174  Cu    0.95311   0.16666   0.25000   0.00000  Uiso   1.00
H175   H     0.92688   0.22806   0.03378   0.00000  Uiso   1.00
H176   H     0.74332   0.29584   0.24666   0.00000  Uiso   1.00
H177   H     0.92328   0.29624   0.25341   0.00000  Uiso   1.00
H178   H     0.74335   0.03709   0.24672   0.00000  Uiso   1.00
H179   H     0.86270   0.11985   0.29926   0.00000  Uiso   1.00
H180   H     0.80408   0.21306   0.20022   0.00000  Uiso   1.00
H181   H     0.82215   0.13500   0.09107   0.00000  Uiso   1.00
H182   H     0.80908   0.17507   0.12799   0.00000  Uiso   1.00
H183   H     0.86498   0.11170   0.41951   0.00000  Uiso   1.00
H184   H     0.86565   0.13948   0.37233   0.00000  Uiso   1.00
H185   H     0.76790   0.12065   0.34032   0.00000  Uiso   1.00
H186   H     0.72675   0.17088   0.45513   0.00000  Uiso   1.00
H187   H     0.77957   0.08378   0.30080   0.00000  Uiso   1.00
H188   H     0.89868   0.21281   0.15969   0.00000  Uiso   1.00
H189   H     0.88707   0.24957   0.19929   0.00000  Uiso   1.00
H190   H     0.96998   0.16822   0.10715   0.00000  Uiso   1.00
H191   H     0.68995   0.20420   0.38683   0.00000  Uiso   1.00
H192   H     0.99289   0.22405   0.46513   0.00000  Uiso   1.00
H193   H     0.99544   0.16869   0.02566   0.00000  Uiso   1.00
H194   H     0.84358   0.21563   0.07474   0.00000  Uiso   1.00
H195   H     0.81127   0.17624   0.41511   0.00000  Uiso   1.00
H196   H     0.92331   0.03749   0.25349   0.00000  Uiso   1.00
N197   N     0.78403   0.16668   0.24999   0.00000  Uiso   1.00
N198   N     0.88264   0.16666   0.25001   0.00000  Uiso   1.00
N199   N     0.79445   0.15135   0.11334   0.00000  Uiso   1.00
N200   N     0.88657   0.12876   0.39279   0.00000  Uiso   1.00
N201   N     0.76709   0.11393   0.30768   0.00000  Uiso   1.00
N202   N     0.89956   0.21943   0.19232   0.00000  Uiso   1.00
O203   O     0.70625   0.10655   0.25000   0.00000  Uiso   1.00
O204   O     0.96042   0.22678   0.25000   0.00000  Uiso   1.00
O205   O     0.96039   0.10654   0.25001   0.00000  Uiso   1.00
O206   O     0.70628   0.22679   0.25000   0.00000  Uiso   1.00
O207   O     0.68519   0.16668   0.31492   0.00000  Uiso   1.00
O208   O     0.98148   0.16666   0.18509   0.00000  Uiso   1.00
O209   O     0.93933   0.16667   0.31492   0.00000  Uiso   1.00
O210   O     0.72733   0.16667   0.18508   0.00000  Uiso   1.00
C211   C     0.00001   0.42070   0.25007   0.00000  Uiso   1.00
C212   C     0.04302   0.35451   0.24825   0.00000  Uiso   1.00
C213   C     0.33329   0.62392   0.25000   0.00000  Uiso   1.00
C214   C     0.00002   0.37608   0.25011   0.00000  Uiso   1.00
C215   C     0.18351   0.47414   0.27757   0.00000  Uiso   1.00
C216   C     0.14986   0.52573   0.22227   0.00000  Uiso   1.00
C217   C     0.13373   0.47422   0.27791   0.00000  Uiso   1.00
C218   C     0.19960   0.52576   0.22206   0.00000  Uiso   1.00
C219   C     0.30590   0.50039   0.33602   0.00000  Uiso   1.00
C220   C     0.02757   0.49952   0.16381   0.00000  Uiso   1.00
C221   C     0.29021   0.50691   0.38450   0.00000  Uiso   1.00
C222   C     0.33331   0.57930   0.24997   0.00000  Uiso   1.00
C223   C     0.04330   0.50075   0.11441   0.00000  Uiso   1.00
C224   C     0.30236   0.54093   0.44951   0.00000  Uiso   1.00
C225   C     0.02293   0.50329   0.04365   0.00000  Uiso   1.00
C226   C     0.31995   0.52899   0.40516   0.00000  Uiso   1.00
C227   C     0.00848   0.50241   0.09019   0.00000  Uiso   1.00
C228   C     0.24261   0.49609   0.40871   0.00000  Uiso   1.00
C229   C     0.09338   0.50098   0.09125   0.00000  Uiso   1.00
C230   C     0.22223   0.51343   0.45148   0.00000  Uiso   1.00
C231   C     0.10772   0.50910   0.04463   0.00000  Uiso   1.00
C232   C     0.25390   0.53321   0.47289   0.00000  Uiso   1.00
C233   C     0.18899   0.53716   0.04122   0.00000  Uiso   1.00
C234   C     0.07227   0.50626   0.02067   0.00000  Uiso   1.00
C235   C     0.17180   0.51149   0.47405   0.00000  Uiso   1.00
C236   C     0.15654   0.51796   0.02075   0.00000  Uiso   1.00
C237   C     0.13579   0.50782   0.45102   0.00000  Uiso   1.00
C238   C     0.23664   0.54557   0.01729   0.00000  Uiso   1.00
C239   C     0.08670   0.50626   0.47400   0.00000  Uiso   1.00
C240   C     0.29030   0.35473   0.25194   0.00000  Uiso   1.00
C241   C     0.04299   0.64527   0.24820   0.00000  Uiso   1.00
C242   C     0.29028   0.64549   0.25189   0.00000  Uiso   1.00
Cu243  Cu    0.04689   0.50001   0.25000   0.00000  Uiso   1.00
Cu244  Cu    0.28645   0.49999   0.25000   0.00000  Uiso   1.00
H245   H     0.26021   0.56139   0.03378   0.00000  Uiso   1.00
H246   H     0.07665   0.62917   0.24666   0.00000  Uiso   1.00
H247   H     0.25662   0.62957   0.25341   0.00000  Uiso   1.00
H248   H     0.07668   0.37043   0.24672   0.00000  Uiso   1.00
H249   H     0.19603   0.45318   0.29926   0.00000  Uiso   1.00
H250   H     0.13742   0.54639   0.20022   0.00000  Uiso   1.00
H251   H     0.15549   0.46833   0.09107   0.00000  Uiso   1.00
H252   H     0.14241   0.50840   0.12799   0.00000  Uiso   1.00
H253   H     0.19831   0.44503   0.41951   0.00000  Uiso   1.00
H254   H     0.19898   0.47282   0.37233   0.00000  Uiso   1.00
H255   H     0.10124   0.45398   0.34032   0.00000  Uiso   1.00
H256   H     0.06008   0.50421   0.45513   0.00000  Uiso   1.00
H257   H     0.11291   0.41711   0.30080   0.00000  Uiso   1.00
H258   H     0.23201   0.54614   0.15969   0.00000  Uiso   1.00
H259   H     0.22040   0.58290   0.19929   0.00000  Uiso   1.00
H260   H     0.30331   0.50156   0.10715   0.00000  Uiso   1.00
H261   H     0.02329   0.53754   0.38683   0.00000  Uiso   1.00
H262   H     0.32623   0.55739   0.46513   0.00000  Uiso   1.00
H263   H     0.32877   0.50202   0.02566   0.00000  Uiso   1.00
H264   H     0.17692   0.54896   0.07474   0.00000  Uiso   1.00
H265   H     0.14461   0.50957   0.41511   0.00000  Uiso   1.00
H266   H     0.25664   0.37083   0.25349   0.00000  Uiso   1.00
N267   N     0.11736   0.50001   0.24999   0.00000  Uiso   1.00
N268   N     0.21597   0.49999   0.25001   0.00000  Uiso   1.00
N269   N     0.12778   0.48469   0.11334   0.00000  Uiso   1.00
N270   N     0.21990   0.46209   0.39279   0.00000  Uiso   1.00
N271   N     0.10042   0.44727   0.30768   0.00000  Uiso   1.00
N272   N     0.23289   0.55276   0.19232   0.00000  Uiso   1.00
O273   O     0.03958   0.43989   0.25000   0.00000  Uiso   1.00
O274   O     0.29375   0.56011   0.25000   0.00000  Uiso   1.00
O275   O     0.29372   0.43988   0.25001   0.00000  Uiso   1.00
O276   O     0.03961   0.56012   0.25000   0.00000  Uiso   1.00
O277   O     0.01852   0.50001   0.31492   0.00000  Uiso   1.00
O278   O     0.31481   0.49999   0.18509   0.00000  Uiso   1.00
O279   O     0.27267   0.50000   0.31492   0.00000  Uiso   1.00
O280   O     0.06067   0.50000   0.18508   0.00000  Uiso   1.00
C281   C     0.33334   0.42070   0.25007   0.00000  Uiso   1.00
C282   C     0.37635   0.35451   0.24825   0.00000  Uiso   1.00
C283   C     0.66662   0.62392   0.25000   0.00000  Uiso   1.00
C284   C     0.33335   0.37608   0.25011   0.00000  Uiso   1.00
C285   C     0.51684   0.47414   0.27757   0.00000  Uiso   1.00
C286   C     0.48319   0.52573   0.22227   0.00000  Uiso   1.00
C287   C     0.46707   0.47422   0.27791   0.00000  Uiso   1.00
C288   C     0.53294   0.52576   0.22206   0.00000  Uiso   1.00
C289   C     0.63924   0.50039   0.33602   0.00000  Uiso   1.00
C290   C     0.36090   0.49952   0.16381   0.00000  Uiso   1.00
C291   C     0.62354   0.50691   0.38450   0.00000  Uiso   1.00
C292   C     0.66664   0.57930   0.24997   0.00000  Uiso   1.00
C293   C     0.37663   0.50075   0.11441   0.00000  Uiso   1.00
C294   C     0.63569   0.54093   0.44951   0.00000  Uiso   1.00
C295   C     0.35626   0.50329   0.04365   0.00000  Uiso   1.00
C296   C     0.65328   0.52899   0.40516   0.00000  Uiso   1.00
C297   C     0.34181   0.50241   0.09019   0.00000  Uiso   1.00
C298   C     0.57594   0.49609   0.40871   0.00000  Uiso   1.00
C299   C     0.42671   0.50098   0.09125   0.00000  Uiso   1.00
C300   C     0.55557   0.51343   0.45148   0.00000  Uiso   1.00
C301   C     0.44105   0.50910   0.04463   0.00000  Uiso   1.00
C302   C     0.58724   0.53321   0.47289   0.00000  Uiso   1.00
C303   C     0.52233   0.53716   0.04122   0.00000  Uiso   1.00
C304   C     0.40561   0.50626   0.02067   0.00000  Uiso   1.00
C305   C     0.50514   0.51149   0.47405   0.00000  Uiso   1.00
C306   C     0.48987   0.51796   0.02075   0.00000  Uiso   1.00
C307   C     0.46913   0.50782   0.45102   0.00000  Uiso   1.00
C308   C     0.56998   0.54557   0.01729   0.00000  Uiso   1.00
C309   C     0.42003   0.50626   0.47400   0.00000  Uiso   1.00
C310   C     0.62364   0.35473   0.25194   0.00000  Uiso   1.00
C311   C     0.37632   0.64527   0.24820   0.00000  Uiso   1.00
C312   C     0.62361   0.64549   0.25189   0.00000  Uiso   1.00
Cu313  Cu    0.38022   0.50001   0.25000   0.00000  Uiso   1.00
Cu314  Cu    0.61978   0.49999   0.25000   0.00000  Uiso   1.00
H315   H     0.59354   0.56139   0.03378   0.00000  Uiso   1.00
H316   H     0.40998   0.62917   0.24666   0.00000  Uiso   1.00
H317   H     0.58995   0.62957   0.25341   0.00000  Uiso   1.00
H318   H     0.41001   0.37043   0.24672   0.00000  Uiso   1.00
H319   H     0.52937   0.45318   0.29926   0.00000  Uiso   1.00
H320   H     0.47075   0.54639   0.20022   0.00000  Uiso   1.00
H321   H     0.48882   0.46833   0.09107   0.00000  Uiso   1.00
H322   H     0.47574   0.50840   0.12799   0.00000  Uiso   1.00
H323   H     0.53164   0.44503   0.41951   0.00000  Uiso   1.00
H324   H     0.53231   0.47282   0.37233   0.00000  Uiso   1.00
H325   H     0.43457   0.45398   0.34032   0.00000  Uiso   1.00
H326   H     0.39342   0.50421   0.45513   0.00000  Uiso   1.00
H327   H     0.44624   0.41711   0.30080   0.00000  Uiso   1.00
H328   H     0.56534   0.54614   0.15969   0.00000  Uiso   1.00
H329   H     0.55374   0.58290   0.19929   0.00000  Uiso   1.00
H330   H     0.63664   0.50156   0.10715   0.00000  Uiso   1.00
H331   H     0.35662   0.53754   0.38683   0.00000  Uiso   1.00
H332   H     0.65956   0.55739   0.46513   0.00000  Uiso   1.00
H333   H     0.66211   0.50202   0.02566   0.00000  Uiso   1.00
H334   H     0.51025   0.54896   0.07474   0.00000  Uiso   1.00
H335   H     0.47794   0.50957   0.41511   0.00000  Uiso   1.00
H336   H     0.58998   0.37083   0.25349   0.00000  Uiso   1.00
N337   N     0.45069   0.50001   0.24999   0.00000  Uiso   1.00
N338   N     0.54931   0.49999   0.25001   0.00000  Uiso   1.00
N339   N     0.46111   0.48469   0.11334   0.00000  Uiso   1.00
N340   N     0.55324   0.46209   0.39279   0.00000  Uiso   1.00
N341   N     0.43376   0.44727   0.30768   0.00000  Uiso   1.00
N342   N     0.56623   0.55276   0.19232   0.00000  Uiso   1.00
O343   O     0.37291   0.43989   0.25000   0.00000  Uiso   1.00
O344   O     0.62709   0.56011   0.25000   0.00000  Uiso   1.00
O345   O     0.62706   0.43988   0.25001   0.00000  Uiso   1.00
O346   O     0.37294   0.56012   0.25000   0.00000  Uiso   1.00
O347   O     0.35186   0.50001   0.31492   0.00000  Uiso   1.00
O348   O     0.64814   0.49999   0.18509   0.00000  Uiso   1.00
O349   O     0.60600   0.50000   0.31492   0.00000  Uiso   1.00
O350   O     0.39400   0.50000   0.18508   0.00000  Uiso   1.00
C351   C     0.66668   0.42070   0.25007   0.00000  Uiso   1.00
C352   C     0.70969   0.35451   0.24825   0.00000  Uiso   1.00
C353   C     0.99995   0.62392   0.25000   0.00000  Uiso   1.00
C354   C     0.66668   0.37608   0.25011   0.00000  Uiso   1.00
C355   C     0.85018   0.47414   0.27757   0.00000  Uiso   1.00
C356   C     0.81653   0.52573   0.22227   0.00000  Uiso   1.00
C357   C     0.80040   0.47422   0.27791   0.00000  Uiso   1.00
C358   C     0.86627   0.52576   0.22206   0.00000  Uiso   1.00
C359   C     0.97257   0.50039   0.33602   0.00000  Uiso   1.00
C360   C     0.69424   0.49952   0.16381   0.00000  Uiso   1.00
C361   C     0.95688   0.50691   0.38450   0.00000  Uiso   1.00
C362   C     0.99998   0.57930   0.24997   0.00000  Uiso   1.00
C363   C     0.70996   0.50075   0.11441   0.00000  Uiso   1.00
C364   C     0.96902   0.54093   0.44951   0.00000  Uiso   1.00
C365   C     0.68959   0.50329   0.04365   0.00000  Uiso   1.00
C366   C     0.98661   0.52899   0.40516   0.00000  Uiso   1.00
C367   C     0.67514   0.50241   0.09019   0.00000  Uiso   1.00
C368   C     0.90927   0.49609   0.40871   0.00000  Uiso   1.00
C369   C     0.76004   0.50098   0.09125   0.00000  Uiso   1.00
C370   C     0.88890   0.51343   0.45148   0.00000  Uiso   1.00
C371   C     0.77438   0.50910   0.04463   0.00000  Uiso   1.00
C372   C     0.92057   0.53321   0.47289   0.00000  Uiso   1.00
C373   C     0.85566   0.53716   0.04122   0.00000  Uiso   1.00
C374   C     0.73894   0.50626   0.02067   0.00000  Uiso   1.00
C375   C     0.83847   0.51149   0.47405   0.00000  Uiso   1.00
C376   C     0.82321   0.51796   0.02075   0.00000  Uiso   1.00
C377   C     0.80246   0.50782   0.45102   0.00000  Uiso   1.00
C378   C     0.90331   0.54557   0.01729   0.00000  Uiso   1.00
C379   C     0.75337   0.50626   0.47400   0.00000  Uiso   1.00
C380   C     0.95697   0.35473   0.25194   0.00000  Uiso   1.00
C381   C     0.70966   0.64527   0.24820   0.00000  Uiso   1.00
C382   C     0.95694   0.64549   0.25189   0.00000  Uiso   1.00
Cu383  Cu    0.71355   0.50001   0.25000   0.00000  Uiso   1.00
Cu384  Cu    0.95311   0.49999   0.25000   0.00000  Uiso   1.00
H385   H     0.92688   0.56139   0.03378   0.00000  Uiso   1.00
H386   H     0.74332   0.62917   0.24666   0.00000  Uiso   1.00
H387   H     0.92328   0.62957   0.25341   0.00000  Uiso   1.00
H388   H     0.74335   0.37043   0.24672   0.00000  Uiso   1.00
H389   H     0.86270   0.45318   0.29926   0.00000  Uiso   1.00
H390   H     0.80408   0.54639   0.20022   0.00000  Uiso   1.00
H391   H     0.82215   0.46833   0.09107   0.00000  Uiso   1.00
H392   H     0.80908   0.50840   0.12799   0.00000  Uiso   1.00
H393   H     0.86498   0.44503   0.41951   0.00000  Uiso   1.00
H394   H     0.86565   0.47282   0.37233   0.00000  Uiso   1.00
H395   H     0.76790   0.45398   0.34032   0.00000  Uiso   1.00
H396   H     0.72675   0.50421   0.45513   0.00000  Uiso   1.00
H397   H     0.77957   0.41711   0.30080   0.00000  Uiso   1.00
H398   H     0.89868   0.54614   0.15969   0.00000  Uiso   1.00
H399   H     0.88707   0.58290   0.19929   0.00000  Uiso   1.00
H400   H     0.96998   0.50156   0.10715   0.00000  Uiso   1.00
H401   H     0.68995   0.53754   0.38683   0.00000  Uiso   1.00
H402   H     0.99289   0.55739   0.46513   0.00000  Uiso   1.00
H403   H     0.99544   0.50202   0.02566   0.00000  Uiso   1.00
H404   H     0.84358   0.54896   0.07474   0.00000  Uiso   1.00
H405   H     0.81127   0.50957   0.41511   0.00000  Uiso   1.00
H406   H     0.92331   0.37083   0.25349   0.00000  Uiso   1.00
N407   N     0.78403   0.50001   0.24999   0.00000  Uiso   1.00
N408   N     0.88264   0.49999   0.25001   0.00000  Uiso   1.00
N409   N     0.79445   0.48469   0.11334   0.00000  Uiso   1.00
N410   N     0.88657   0.46209   0.39279   0.00000  Uiso   1.00
N411   N     0.76709   0.44727   0.30768   0.00000  Uiso   1.00
N412   N     0.89956   0.55276   0.19232   0.00000  Uiso   1.00
O413   O     0.70625   0.43989   0.25000   0.00000  Uiso   1.00
O414   O     0.96042   0.56011   0.25000   0.00000  Uiso   1.00
O415   O     0.96039   0.43988   0.25001   0.00000  Uiso   1.00
O416   O     0.70628   0.56012   0.25000   0.00000  Uiso   1.00
O417   O     0.68519   0.50001   0.31492   0.00000  Uiso   1.00
O418   O     0.98148   0.49999   0.18509   0.00000  Uiso   1.00
O419   O     0.93933   0.50000   0.31492   0.00000  Uiso   1.00
O420   O     0.72733   0.50000   0.18508   0.00000  Uiso   1.00
C421   C     0.00001   0.75403   0.25007   0.00000  Uiso   1.00
C422   C     0.04302   0.68784   0.24825   0.00000  Uiso   1.00
C423   C     0.33329   0.95725   0.25000   0.00000  Uiso   1.00
C424   C     0.00002   0.70941   0.25011   0.00000  Uiso   1.00
C425   C     0.18351   0.80747   0.27757   0.00000  Uiso   1.00
C426   C     0.14986   0.85906   0.22227   0.00000  Uiso   1.00
C427   C     0.13373   0.80756   0.27791   0.00000  Uiso   1.00
C428   C     0.19960   0.85909   0.22206   0.00000  Uiso   1.00
C429   C     0.30590   0.83372   0.33602   0.00000  Uiso   1.00
C430   C     0.02757   0.83286   0.16381   0.00000  Uiso   1.00
C431   C     0.29021   0.84024   0.38450   0.00000  Uiso   1.00
C432   C     0.33331   0.91263   0.24997   0.00000  Uiso   1.00
C433   C     0.04330   0.83408   0.11441   0.00000  Uiso   1.00
C434   C     0.30236   0.87426   0.44951   0.00000  Uiso   1.00
C435   C     0.02293   0.83662   0.04365   0.00000  Uiso   1.00
C436   C     0.31995   0.86233   0.40516   0.00000  Uiso   1.00
C437   C     0.00848   0.83575   0.09019   0.00000  Uiso   1.00
C438   C     0.24261   0.82942   0.40871   0.00000  Uiso   1.00
C439   C     0.09338   0.83432   0.09125   0.00000  Uiso   1.00
C440   C     0.22223   0.84677   0.45148   0.00000  Uiso   1.00
C441   C     0.10772   0.84244   0.04463   0.00000  Uiso   1.00
C442   C     0.25390   0.86655   0.47289   0.00000  Uiso   1.00
C443   C     0.18899   0.87049   0.04122   0.00000  Uiso   1.00
C444   C     0.07227   0.83959   0.02067   0.00000  Uiso   1.00
C445   C     0.17180   0.84482   0.47405   0.00000  Uiso   1.00
C446   C     0.15654   0.85130   0.02075   0.00000  Uiso   1.00
C447   C     0.13579   0.84115   0.45102   0.00000  Uiso   1.00
C448   C     0.23664   0.87890   0.01729   0.00000  Uiso   1.00
C449   C     0.08670   0.83959   0.47400   0.00000  Uiso   1.00
C450   C     0.29030   0.68806   0.25194   0.00000  Uiso   1.00
C451   C     0.04299   0.97860   0.24820   0.00000  Uiso   1.00
C452   C     0.29028   0.97882   0.25189   0.00000  Uiso   1.00
Cu453  Cu    0.04689   0.83334   0.25000   0.00000  Uiso   1.00
Cu454  Cu    0.28645   0.83333   0.25000   0.00000  Uiso   1.00
H455   H     0.26021   0.89472   0.03378   0.00000  Uiso   1.00
H456   H     0.07665   0.96251   0.24666   0.00000  Uiso   1.00
H457   H     0.25662   0.96290   0.25341   0.00000  Uiso   1.00
H458   H     0.07668   0.70376   0.24672   0.00000  Uiso   1.00
H459   H     0.19603   0.78652   0.29926   0.00000  Uiso   1.00
H460   H     0.13742   0.87972   0.20022   0.00000  Uiso   1.00
H461   H     0.15549   0.80166   0.09107   0.00000  Uiso   1.00
H462   H     0.14241   0.84173   0.12799   0.00000  Uiso   1.00
H463   H     0.19831   0.77836   0.41951   0.00000  Uiso   1.00
H464   H     0.19898   0.80615   0.37233   0.00000  Uiso   1.00
H465   H     0.10124   0.78732   0.34032   0.00000  Uiso   1.00
H466   H     0.06008   0.83755   0.45513   0.00000  Uiso   1.00
H467   H     0.11291   0.75044   0.30080   0.00000  Uiso   1.00
H468   H     0.23201   0.87948   0.15969   0.00000  Uiso   1.00
H469   H     0.22040   0.91624   0.19929   0.00000  Uiso   1.00
H470   H     0.30331   0.83489   0.10715   0.00000  Uiso   1.00
H471   H     0.02329   0.87087   0.38683   0.00000  Uiso   1.00
H472   H     0.32623   0.89072   0.46513   0.00000  Uiso   1.00
H473   H     0.32877   0.83535   0.02566   0.00000  Uiso   1.00
H474   H     0.17692   0.88230   0.07474   0.00000  Uiso   1.00
H475   H     0.14461   0.84291   0.41511   0.00000  Uiso   1.00
H476   H     0.25664   0.70416   0.25349   0.00000  Uiso   1.00
N477   N     0.11736   0.83334   0.24999   0.00000  Uiso   1.00
N478   N     0.21597   0.83332   0.25001   0.00000  Uiso   1.00
N479   N     0.12778   0.81802   0.11334   0.00000  Uiso   1.00
N480   N     0.21990   0.79542   0.39279   0.00000  Uiso   1.00
N481   N     0.10042   0.78060   0.30768   0.00000  Uiso   1.00
N482   N     0.23289   0.88609   0.19232   0.00000  Uiso   1.00
O483   O     0.03958   0.77322   0.25000   0.00000  Uiso   1.00
O484   O     0.29375   0.89345   0.25000   0.00000  Uiso   1.00
O485   O     0.29372   0.77321   0.25001   0.00000  Uiso   1.00
O486   O     0.03961   0.89346   0.25000   0.00000  Uiso   1.00
O487   O     0.01852   0.83334   0.31492   0.00000  Uiso   1.00
O488   O     0.31481   0.83332   0.18509   0.00000  Uiso   1.00
O489   O     0.27267   0.83333   0.31492   0.00000  Uiso   1.00
O490   O     0.06067   0.83333   0.18508   0.00000  Uiso   1.00
C491   C     0.33334   0.75403   0.25007   0.00000  Uiso   1.00
C492   C     0.37635   0.68784   0.24825   0.00000  Uiso   1.00
C493   C     0.66662   0.95725   0.25000   0.00000  Uiso   1.00
C494   C     0.33335   0.70941   0.25011   0.00000  Uiso   1.00
C495   C     0.51684   0.80747   0.27757   0.00000  Uiso   1.00
C496   C     0.48319   0.85906   0.22227   0.00000  Uiso   1.00
C497   C     0.46707   0.80756   0.27791   0.00000  Uiso   1.00
C498   C     0.53294   0.85909   0.22206   0.00000  Uiso   1.00
C499   C     0.63924   0.83372   0.33602   0.00000  Uiso   1.00
C500   C     0.36090   0.83286   0.16381   0.00000  Uiso   1.00
C501   C     0.62354   0.84024   0.38450   0.00000  Uiso   1.00
C502   C     0.66664   0.91263   0.24997   0.00000  Uiso   1.00
C503   C     0.37663   0.83408   0.11441   0.00000  Uiso   1.00
C504   C     0.63569   0.87426   0.44951   0.00000  Uiso   1.00
C505   C     0.35626   0.83662   0.04365   0.00000  Uiso   1.00
C506   C     0.65328   0.86233   0.40516   0.00000  Uiso   1.00
C507   C     0.34181   0.83575   0.09019   0.00000  Uiso   1.00
C508   C     0.57594   0.82942   0.40871   0.00000  Uiso   1.00
C509   C     0.42671   0.83432   0.09125   0.00000  Uiso   1.00
C510   C     0.55557   0.84677   0.45148   0.00000  Uiso   1.00
C511   C     0.44105   0.84244   0.04463   0.00000  Uiso   1.00
C512   C     0.58724   0.86655   0.47289   0.00000  Uiso   1.00
C513   C     0.52233   0.87049   0.04122   0.00000  Uiso   1.00
C514   C     0.40561   0.83959   0.02067   0.00000  Uiso   1.00
C515   C     0.50514   0.84482   0.47405   0.00000  Uiso   1.00
C516   C     0.48987   0.85130   0.02075   0.00000  Uiso   1.00
C517   C     0.46913   0.84115   0.45102   0.00000  Uiso   1.00
C518   C     0.56998   0.87890   0.01729   0.00000  Uiso   1.00
C519   C     0.42003   0.83959   0.47400   0.00000  Uiso   1.00
C520   C     0.62364   0.68806   0.25194   0.00000  Uiso   1.00
C521   C     0.37632   0.97860   0.24820   0.00000  Uiso   1.00
C522   C     0.62361   0.97882   0.25189   0.00000  Uiso   1.00
Cu523  Cu    0.38022   0.83334   0.25000   0.00000  Uiso   1.00
Cu524  Cu    0.61978   0.83333   0.25000   0.00000  Uiso   1.00
H525   H     0.59354   0.89472   0.03378   0.00000  Uiso   1.00
H526   H     0.40998   0.96251   0.24666   0.00000  Uiso   1.00
H527   H     0.58995   0.96290   0.25341   0.00000  Uiso   1.00
H528   H     0.41001   0.70376   0.24672   0.00000  Uiso   1.00
H529   H     0.52937   0.78652   0.29926   0.00000  Uiso   1.00
H530   H     0.47075   0.87972   0.20022   0.00000  Uiso   1.00
H531   H     0.48882   0.80166   0.09107   0.00000  Uiso   1.00
H532   H     0.47574   0.84173   0.12799   0.00000  Uiso   1.00
H533   H     0.53164   0.77836   0.41951   0.00000  Uiso   1.00
H534   H     0.53231   0.80615   0.37233   0.00000  Uiso   1.00
H535   H     0.43457   0.78732   0.34032   0.00000  Uiso   1.00
H536   H     0.39342   0.83755   0.45513   0.00000  Uiso   1.00
H537   H     0.44624   0.75044   0.30080   0.00000  Uiso   1.00
H538   H     0.56534   0.87948   0.15969   0.00000  Uiso   1.00
H539   H     0.55374   0.91624   0.19929   0.00000  Uiso   1.00
H540   H     0.63664   0.83489   0.10715   0.00000  Uiso   1.00
H541   H     0.35662   0.87087   0.38683   0.00000  Uiso   1.00
H542   H     0.65956   0.89072   0.46513   0.00000  Uiso   1.00
H543   H     0.66211   0.83535   0.02566   0.00000  Uiso   1.00
H544   H     0.51025   0.88230   0.07474   0.00000  Uiso   1.00
H545   H     0.47794   0.84291   0.41511   0.00000  Uiso   1.00
H546   H     0.58998   0.70416   0.25349   0.00000  Uiso   1.00
N547   N     0.45069   0.83334   0.24999   0.00000  Uiso   1.00
N548   N     0.54931   0.83332   0.25001   0.00000  Uiso   1.00
N549   N     0.46111   0.81802   0.11334   0.00000  Uiso   1.00
N550   N     0.55324   0.79542   0.39279   0.00000  Uiso   1.00
N551   N     0.43376   0.78060   0.30768   0.00000  Uiso   1.00
N552   N     0.56623   0.88609   0.19232   0.00000  Uiso   1.00
O553   O     0.37291   0.77322   0.25000   0.00000  Uiso   1.00
O554   O     0.62709   0.89345   0.25000   0.00000  Uiso   1.00
O555   O     0.62706   0.77321   0.25001   0.00000  Uiso   1.00
O556   O     0.37294   0.89346   0.25000   0.00000  Uiso   1.00
O557   O     0.35186   0.83334   0.31492   0.00000  Uiso   1.00
O558   O     0.64814   0.83332   0.18509   0.00000  Uiso   1.00
O559   O     0.60600   0.83333   0.31492   0.00000  Uiso   1.00
O560   O     0.39400   0.83333   0.18508   0.00000  Uiso   1.00
C561   C     0.66668   0.75403   0.25007   0.00000  Uiso   1.00
C562   C     0.70969   0.68784   0.24825   0.00000  Uiso   1.00
C563   C     0.99995   0.95725   0.25000   0.00000  Uiso   1.00
C564   C     0.66668   0.70941   0.25011   0.00000  Uiso   1.00
C565   C     0.85018   0.80747   0.27757   0.00000  Uiso   1.00
C566   C     0.81653   0.85906   0.22227   0.00000  Uiso   1.00
C567   C     0.80040   0.80756   0.27791   0.00000  Uiso   1.00
C568   C     0.86627   0.85909   0.22206   0.00000  Uiso   1.00
C569   C     0.97257   0.83372   0.33602   0.00000  Uiso   1.00
C570   C     0.69424   0.83286   0.16381   0.00000  Uiso   1.00
C571   C     0.95688   0.84024   0.38450   0.00000  Uiso   1.00
C572   C     0.99998   0.91263   0.24997   0.00000  Uiso   1.00
C573   C     0.70996   0.83408   0.11441   0.00000  Uiso   1.00
C574   C     0.96902   0.87426   0.44951   0.00000  Uiso   1.00
C575   C     0.68959   0.83662   0.04365   0.00000  Uiso   1.00
C576   C     0.98661   0.86233   0.40516   0.00000  Uiso   1.00
C577   C     0.67514   0.83575   0.09019   0.00000  Uiso   1.00
C578   C     0.90927   0.82942   0.40871   0.00000  Uiso   1.00
C579   C     0.76004   0.83432   0.09125   0.00000  Uiso   1.00
C580   C     0.88890   0.84677   0.45148   0.00000  Uiso   1.00
C581   C     0.77438   0.84244   0.04463   0.00000  Uiso   1.00
C582   C     0.92057   0.86655   0.47289   0.00000  Uiso   1.00
C583   C     0.85566   0.87049   0.04122   0.00000  Uiso   1.00
C584   C     0.73894   0.83959   0.02067   0.00000  Uiso   1.00
C585   C     0.83847   0.84482   0.47405   0.00000  Uiso   1.00
C586   C     0.82321   0.85130   0.02075   0.00000  Uiso   1.00
C587   C     0.80246   0.84115   0.45102   0.00000  Uiso   1.00
C588   C     0.90331   0.87890   0.01729   0.00000  Uiso   1.00
C589   C     0.75337   0.83959   0.47400   0.00000  Uiso   1.00
C590   C     0.95697   0.68806   0.25194   0.00000  Uiso   1.00
C591   C     0.70966   0.97860   0.24820   0.00000  Uiso   1.00
C592   C     0.95694   0.97882   0.25189   0.00000  Uiso   1.00
Cu593  Cu    0.71355   0.83334   0.25000   0.00000  Uiso   1.00
Cu594  Cu    0.95311   0.83333   0.25000   0.00000  Uiso   1.00
H595   H     0.92688   0.89472   0.03378   0.00000  Uiso   1.00
H596   H     0.74332   0.96251   0.24666   0.00000  Uiso   1.00
H597   H     0.92328   0.96290   0.25341   0.00000  Uiso   1.00
H598   H     0.74335   0.70376   0.24672   0.00000  Uiso   1.00
H599   H     0.86270   0.78652   0.29926   0.00000  Uiso   1.00
H600   H     0.80408   0.87972   0.20022   0.00000  Uiso   1.00
H601   H     0.82215   0.80166   0.09107   0.00000  Uiso   1.00
H602   H     0.80908   0.84173   0.12799   0.00000  Uiso   1.00
H603   H     0.86498   0.77836   0.41951   0.00000  Uiso   1.00
H604   H     0.86565   0.80615   0.37233   0.00000  Uiso   1.00
H605   H     0.76790   0.78732   0.34032   0.00000  Uiso   1.00
H606   H     0.72675   0.83755   0.45513   0.00000  Uiso   1.00
H607   H     0.77957   0.75044   0.30080   0.00000  Uiso   1.00
H608   H     0.89868   0.87948   0.15969   0.00000  Uiso   1.00
H609   H     0.88707   0.91624   0.19929   0.00000  Uiso   1.00
H610   H     0.96998   0.83489   0.10715   0.00000  Uiso   1.00
H611   H     0.68995   0.87087   0.38683   0.00000  Uiso   1.00
H612   H     0.99289   0.89072   0.46513   0.00000  Uiso   1.00
H613   H     0.99544   0.83535   0.02566   0.00000  Uiso   1.00
H614   H     0.84358   0.88230   0.07474   0.00000  Uiso   1.00
H615   H     0.81127   0.84291   0.41511   0.00000  Uiso   1.00
H616   H     0.92331   0.70416   0.25349   0.00000  Uiso   1.00
N617   N     0.78403   0.83334   0.24999   0.00000  Uiso   1.00
N618   N     0.88264   0.83332   0.25001   0.00000  Uiso   1.00
N619   N     0.79445   0.81802   0.11334   0.00000  Uiso   1.00
N620   N     0.88657   0.79542   0.39279   0.00000  Uiso   1.00
N621   N     0.76709   0.78060   0.30768   0.00000  Uiso   1.00
N622   N     0.89956   0.88609   0.19232   0.00000  Uiso   1.00
O623   O     0.70625   0.77322   0.25000   0.00000  Uiso   1.00
O624   O     0.96042   0.89345   0.25000   0.00000  Uiso   1.00
O625   O     0.96039   0.77321   0.25001   0.00000  Uiso   1.00
O626   O     0.70628   0.89346   0.25000   0.00000  Uiso   1.00
O627   O     0.68519   0.83334   0.31492   0.00000  Uiso   1.00
O628   O     0.98148   0.83332   0.18509   0.00000  Uiso   1.00
O629   O     0.93933   0.83333   0.31492   0.00000  Uiso   1.00
O630   O     0.72733   0.83333   0.18508   0.00000  Uiso   1.00
C631   C     0.00001   0.08737   0.75007   0.00000  Uiso   1.00
C632   C     0.04302   0.02117   0.74825   0.00000  Uiso   1.00
C633   C     0.33329   0.29059   0.75000   0.00000  Uiso   1.00
C634   C     0.00002   0.04274   0.75011   0.00000  Uiso   1.00
C635   C     0.18351   0.14081   0.77757   0.00000  Uiso   1.00
C636   C     0.14986   0.19240   0.72227   0.00000  Uiso   1.00
C637   C     0.13373   0.14089   0.77791   0.00000  Uiso   1.00
C638   C     0.19960   0.19242   0.72206   0.00000  Uiso   1.00
C639   C     0.30590   0.16706   0.83602   0.00000  Uiso   1.00
C640   C     0.02757   0.16619   0.66381   0.00000  Uiso   1.00
C641   C     0.29021   0.17358   0.88450   0.00000  Uiso   1.00
C642   C     0.33331   0.24597   0.74997   0.00000  Uiso   1.00
C643   C     0.04330   0.16741   0.61441   0.00000  Uiso   1.00
C644   C     0.30236   0.20760   0.94951   0.00000  Uiso   1.00
C645   C     0.02293   0.16996   0.54365   0.00000  Uiso   1.00
C646   C     0.31995   0.19566   0.90516   0.00000  Uiso   1.00
C647   C     0.00848   0.16908   0.59019   0.00000  Uiso   1.00
C648   C     0.24261   0.16275   0.90871   0.00000  Uiso   1.00
C649   C     0.09338   0.16765   0.59125   0.00000  Uiso   1.00
C650   C     0.22223   0.18010   0.95148   0.00000  Uiso   1.00
C651   C     0.10772   0.17577   0.54463   0.00000  Uiso   1.00
C652   C     0.25390   0.19988   0.97289   0.00000  Uiso   1.00
C653   C     0.18899   0.20383   0.54122   0.00000  Uiso   1.00
C654   C     0.07227   0.17292   0.52067   0.00000  Uiso   1.00
C655   C     0.17180   0.17816   0.97405   0.00000  Uiso   1.00
C656   C     0.15654   0.18463   0.52075   0.00000  Uiso   1.00
C657   C     0.13579   0.17449   0.95102   0.00000  Uiso   1.00
C658   C     0.23664   0.21223   0.51729   0.00000  Uiso   1.00
C659   C     0.08670   0.17292   0.97400   0.00000  Uiso   1.00
C660   C     0.29030   0.02140   0.75194   0.00000  Uiso   1.00
C661   C     0.04299   0.31194   0.74820   0.00000  Uiso   1.00
C662   C     0.29028   0.31216   0.75189   0.00000  Uiso   1.00
Cu663  Cu    0.04689   0.16667   0.75000   0.00000  Uiso   1.00
Cu664  Cu    0.28645   0.16666   0.75000   0.00000  Uiso   1.00
H665   H     0.26021   0.22806   0.53378   0.00000  Uiso   1.00
H666   H     0.07665   0.29584   0.74666   0.00000  Uiso   1.00
H667   H     0.25662   0.29624   0.75341   0.00000  Uiso   1.00
H668   H     0.07668   0.03709   0.74672   0.00000  Uiso   1.00
H669   H     0.19603   0.11985   0.79926   0.00000  Uiso   1.00
H670   H     0.13742   0.21306   0.70022   0.00000  Uiso   1.00
H671   H     0.15549   0.13500   0.59107   0.00000  Uiso   1.00
H672   H     0.14241   0.17507   0.62799   0.00000  Uiso   1.00
H673   H     0.19831   0.11170   0.91951   0.00000  Uiso   1.00
H674   H     0.19898   0.13948   0.87233   0.00000  Uiso   1.00
H675   H     0.10124   0.12065   0.84032   0.00000  Uiso   1.00
H676   H     0.06008   0.17088   0.95513   0.00000  Uiso   1.00
H677   H     0.11291   0.08378   0.80080   0.00000  Uiso   1.00
H678   H     0.23201   0.21281   0.65969   0.00000  Uiso   1.00
H679   H     0.22040   0.24957   0.69929   0.00000  Uiso   1.00
H680   H     0.30331   0.16822   0.60715   0.00000  Uiso   1.00
H681   H     0.02329   0.20420   0.88683   0.00000  Uiso   1.00
H682   H     0.32623   0.22405   0.96513   0.00000  Uiso   1.00
H683   H     0.32877   0.16869   0.52566   0.00000  Uiso   1.00
H684   H     0.17692   0.21563   0.57474   0.00000  Uiso   1.00
H685   H     0.14461   0.17624   0.91511   0.00000  Uiso   1.00
H686   H     0.25664   0.03749   0.75349   0.00000  Uiso   1.00
N687   N     0.11736   0.16668   0.74999   0.00000  Uiso   1.00
N688   N     0.21597   0.16666   0.75001   0.00000  Uiso   1.00
N689   N     0.12778   0.15135   0.61334   0.00000  Uiso   1.00
N690   N     0.21990   0.12876   0.89279   0.00000  Uiso   1.00
N691   N     0.10042   0.11393   0.80768   0.00000  Uiso   1.00
N692   N     0.23289   0.21943   0.69232   0.00000  Uiso   1.00
O693   O     0.03958   0.10655   0.75000   0.00000  Uiso   1.00
O694   O     0.29375   0.22678   0.75000   0.00000  Uiso   1.00
O695   O     0.29372   0.10654   0.75001   0.00000  Uiso   1.00
O696   O     0.03961   0.22679   0.75000   0.00000  Uiso   1.00
O697   O     0.01852   0.16668   0.81492   0.00000  Uiso   1.00
O698   O     0.31481   0.16666   0.68509   0.00000  Uiso   1.00
O699   O     0.27267   0.16667   0.81492   0.00000  Uiso   1.00
O700   O     0.06067   0.16667   0.68508   0.00000  Uiso   1.00
C701   C     0.33334   0.08737   0.75007   0.00000  Uiso   1.00
C702   C     0.37635   0.02117   0.74825   0.00000  Uiso   1.00
C703   C     0.66662   0.29059   0.75000   0.00000  Uiso   1.00
C704   C     0.33335   0.04274   0.75011   0.00000  Uiso   1.00
C705   C     0.51684   0.14081   0.77757   0.00000  Uiso   1.00
C706   C     0.48319   0.19240   0.72227   0.00000  Uiso   1.00
C707   C     0.46707   0.14089   0.77791   0.00000  Uiso   1.00
C708   C     0.53294   0.19242   0.72206   0.00000  Uiso   1.00
C709   C     0.63924   0.16706   0.83602   0.00000  Uiso   1.00
C710   C     0.36090   0.16619   0.66381   0.00000  Uiso   1.00
C711   C     0.62354   0.17358   0.88450   0.00000  Uiso   1.00
C712   C     0.66664   0.24597   0.74997   0.00000  Uiso   1.00
C713   C     0.37663   0.16741   0.61441   0.00000  Uiso   1.00
C714   C     0.63569   0.20760   0.94951   0.00000  Uiso   1.00
C715   C     0.35626   0.16996   0.54365   0.00000  Uiso   1.00
C716   C     0.65328   0.19566   0.90516   0.00000  Uiso   1.00
C717   C     0.34181   0.16908   0.59019   0.00000  Uiso   1.00
C718   C     0.57594   0.16275   0.90871   0.00000  Uiso   1.00
C719   C     0.42671   0.16765   0.59125   0.00000  Uiso   1.00
C720   C     0.55557   0.18010   0.95148   0.00000  Uiso   1.00
C721   C     0.44105   0.17577   0.54463   0.00000  Uiso   1.00
C722   C     0.58724   0.19988   0.97289   0.00000  Uiso   1.00
C723   C     0.52233   0.20383   0.54122   0.00000  Uiso   1.00
C724   C     0.40561   0.17292   0.52067   0.00000  Uiso   1.00
C725   C     0.50514   0.17816   0.97405   0.00000  Uiso   1.00
C726   C     0.48987   0.18463   0.52075   0.00000  Uiso   1.00
C727   C     0.46913   0.17449   0.95102   0.00000  Uiso   1.00
C728   C     0.56998   0.21223   0.51729   0.00000  Uiso   1.00
C729   C     0.42003   0.17292   0.97400   0.00000  Uiso   1.00
C730   C     0.62364   0.02140   0.75194   0.00000  Uiso   1.00
C731   C     0.37632   0.31194   0.74820   0.00000  Uiso   1.00
C732   C     0.62361   0.31216   0.75189   0.00000  Uiso   1.00
Cu733  Cu    0.38022   0.16667   0.75000   0.00000  Uiso   1.00
Cu734  Cu    0.61978   0.16666   0.75000   0.00000  Uiso   1.00
H735   H     0.59354   0.22806   0.53378   0.00000  Uiso   1.00
H736   H     0.40998   0.29584   0.74666   0.00000  Uiso   1.00
H737   H     0.58995   0.29624   0.75341   0.00000  Uiso   1.00
H738   H     0.41001   0.03709   0.74672   0.00000  Uiso   1.00
H739   H     0.52937   0.11985   0.79926   0.00000  Uiso   1.00
H740   H     0.47075   0.21306   0.70022   0.00000  Uiso   1.00
H741   H     0.48882   0.13500   0.59107   0.00000  Uiso   1.00
H742   H     0.47574   0.17507   0.62799   0.00000  Uiso   1.00
H743   H     0.53164   0.11170   0.91951   0.00000  Uiso   1.00
H744   H     0.53231   0.13948   0.87233   0.00000  Uiso   1.00
H745   H     0.43457   0.12065   0.84032   0.00000  Uiso   1.00
H746   H     0.39342   0.17088   0.95513   0.00000  Uiso   1.00
H747   H     0.44624   0.08378   0.80080   0.00000  Uiso   1.00
H748   H     0.56534   0.21281   0.65969   0.00000  Uiso   1.00
H749   H     0.55374   0.24957   0.69929   0.00000  Uiso   1.00
H750   H     0.63664   0.16822   0.60715   0.00000  Uiso   1.00
H751   H     0.35662   0.20420   0.88683   0.00000  Uiso   1.00
H752   H     0.65956   0.22405   0.96513   0.00000  Uiso   1.00
H753   H     0.66211   0.16869   0.52566   0.00000  Uiso   1.00
H754   H     0.51025   0.21563   0.57474   0.00000  Uiso   1.00
H755   H     0.47794   0.17624   0.91511   0.00000  Uiso   1.00
H756   H     0.58998   0.03749   0.75349   0.00000  Uiso   1.00
N757   N     0.45069   0.16668   0.74999   0.00000  Uiso   1.00
N758   N     0.54931   0.16666   0.75001   0.00000  Uiso   1.00
N759   N     0.46111   0.15135   0.61334   0.00000  Uiso   1.00
N760   N     0.55324   0.12876   0.89279   0.00000  Uiso   1.00
N761   N     0.43376   0.11393   0.80768   0.00000  Uiso   1.00
N762   N     0.56623   0.21943   0.69232   0.00000  Uiso   1.00
O763   O     0.37291   0.10655   0.75000   0.00000  Uiso   1.00
O764   O     0.62709   0.22678   0.75000   0.00000  Uiso   1.00
O765   O     0.62706   0.10654   0.75001   0.00000  Uiso   1.00
O766   O     0.37294   0.22679   0.75000   0.00000  Uiso   1.00
O767   O     0.35186   0.16668   0.81492   0.00000  Uiso   1.00
O768   O     0.64814   0.16666   0.68509   0.00000  Uiso   1.00
O769   O     0.60600   0.16667   0.81492   0.00000  Uiso   1.00
O770   O     0.39400   0.16667   0.68508   0.00000  Uiso   1.00
C771   C     0.66668   0.08737   0.75007   0.00000  Uiso   1.00
C772   C     0.70969   0.02117   0.74825   0.00000  Uiso   1.00
C773   C     0.99995   0.29059   0.75000   0.00000  Uiso   1.00
C774   C     0.66668   0.04274   0.75011   0.00000  Uiso   1.00
C775   C     0.85018   0.14081   0.77757   0.00000  Uiso   1.00
C776   C     0.81653   0.19240   0.72227   0.00000  Uiso   1.00
C777   C     0.80040   0.14089   0.77791   0.00000  Uiso   1.00
C778   C     0.86627   0.19242   0.72206   0.00000  Uiso   1.00
C779   C     0.97257   0.16706   0.83602   0.00000  Uiso   1.00
C780   C     0.69424   0.16619   0.66381   0.00000  Uiso   1.00
C781   C     0.95688   0.17358   0.88450   0.00000  Uiso   1.00
C782   C     0.99998   0.24597   0.74997   0.00000  Uiso   1.00
C783   C     0.70996   0.16741   0.61441   0.00000  Uiso   1.00
C784   C     0.96902   0.20760   0.94951   0.00000  Uiso   1.00
C785   C     0.68959   0.16996   0.54365   0.00000  Uiso   1.00
C786   C     0.98661   0.19566   0.90516   0.00000  Uiso   1.00
C787   C     0.67514   0.16908   0.59019   0.00000  Uiso   1.00
C788   C     0.90927   0.16275   0.90871   0.00000  Uiso   1.00
C789   C     0.76004   0.16765   0.59125   0.00000  Uiso   1.00
C790   C     0.88890   0.18010   0.95148   0.00000  Uiso   1.00
C791   C     0.77438   0.17577   0.54463   0.00000  Uiso   1.00
C792   C     0.92057   0.19988   0.97289   0.00000  Uiso   1.00
C793   C     0.85566   0.20383   0.54122   0.00000  Uiso   1.00
C794   C     0.73894   0.17292   0.52067   0.00000  Uiso   1.00
C795   C     0.83847   0.17816   0.97405   0.00000  Uiso   1.00
C796   C     0.82321   0.18463   0.52075   0.00000  Uiso   1.00
C797   C     0.80246   0.17449   0.95102   0.00000  Uiso   1.00
C798   C     0.90331   0.21223   0.51729   0.00000  Uiso   1.00
C799   C     0.75337   0.17292   0.97400   0.00000  Uiso   1.00
C800   C     0.95697   0.02140   0.75194   0.00000  Uiso   1.00
C801   C     0.70966   0.31194   0.74820   0.00000  Uiso   1.00
C802   C     0.95694   0.31216   0.75189   0.00000  Uiso   1.00
Cu803  Cu    0.71355   0.16667   0.75000   0.00000  Uiso   1.00
Cu804  Cu    0.95311   0.16666   0.75000   0.00000  Uiso   1.00
H805   H     0.92688   0.22806   0.53378   0.00000  Uiso   1.00
H806   H     0.74332   0.29584   0.74666   0.00000  Uiso   1.00
H807   H     0.92328   0.29624   0.75341   0.00000  Uiso   1.00
H808   H     0.74335   0.03709   0.74672   0.00000  Uiso   1.00
H809   H     0.86270   0.11985   0.79926   0.00000  Uiso   1.00
H810   H     0.80408   0.21306   0.70022   0.00000  Uiso   1.00
H811   H     0.82215   0.13500   0.59107   0.00000  Uiso   1.00
H812   H     0.80908   0.17507   0.62799   0.00000  Uiso   1.00
H813   H     0.86498   0.11170   0.91951   0.00000  Uiso   1.00
H814   H     0.86565   0.13948   0.87233   0.00000  Uiso   1.00
H815   H     0.76790   0.12065   0.84032   0.00000  Uiso   1.00
H816   H     0.72675   0.17088   0.95513   0.00000  Uiso   1.00
H817   H     0.77957   0.08378   0.80080   0.00000  Uiso   1.00
H818   H     0.89868   0.21281   0.65969   0.00000  Uiso   1.00
H819   H     0.88707   0.24957   0.69929   0.00000  Uiso   1.00
H820   H     0.96998   0.16822   0.60715   0.00000  Uiso   1.00
H821   H     0.68995   0.20420   0.88683   0.00000  Uiso   1.00
H822   H     0.99289   0.22405   0.96513   0.00000  Uiso   1.00
H823   H     0.99544   0.16869   0.52566   0.00000  Uiso   1.00
H824   H     0.84358   0.21563   0.57474   0.00000  Uiso   1.00
H825   H     0.81127   0.17624   0.91511   0.00000  Uiso   1.00
H826   H     0.92331   0.03749   0.75349   0.00000  Uiso   1.00
N827   N     0.78403   0.16668   0.74999   0.00000  Uiso   1.00
N828   N     0.88264   0.16666   0.75001   0.00000  Uiso   1.00
N829   N     0.79445   0.15135   0.61334   0.00000  Uiso   1.00
N830   N     0.88657   0.12876   0.89279   0.00000  Uiso   1.00
N831   N     0.76709   0.11393   0.80768   0.00000  Uiso   1.00
N832   N     0.89956   0.21943   0.69232   0.00000  Uiso   1.00
O833   O     0.70625   0.10655   0.75000   0.00000  Uiso   1.00
O834   O     0.96042   0.22678   0.75000   0.00000  Uiso   1.00
O835   O     0.96039   0.10654   0.75001   0.00000  Uiso   1.00
O836   O     0.70628   0.22679   0.75000   0.00000  Uiso   1.00
O837   O     0.68519   0.16668   0.81492   0.00000  Uiso   1.00
O838   O     0.98148   0.16666   0.68509   0.00000  Uiso   1.00
O839   O     0.93933   0.16667   0.81492   0.00000  Uiso   1.00
O840   O     0.72733   0.16667   0.68508   0.00000  Uiso   1.00
C841   C     0.00001   0.42070   0.75007   0.00000  Uiso   1.00
C842   C     0.04302   0.35451   0.74825   0.00000  Uiso   1.00
C843   C     0.33329   0.62392   0.75000   0.00000  Uiso   1.00
C844   C     0.00002   0.37608   0.75011   0.00000  Uiso   1.00
C845   C     0.18351   0.47414   0.77757   0.00000  Uiso   1.00
C846   C     0.14986   0.52573   0.72227   0.00000  Uiso   1.00
C847   C     0.13373   0.47422   0.77791   0.00000  Uiso   1.00
C848   C     0.19960   0.52576   0.72206   0.00000  Uiso   1.00
C849   C     0.30590   0.50039   0.83602   0.00000  Uiso   1.00
C850   C     0.02757   0.49952   0.66381   0.00000  Uiso   1.00
C851   C     0.29021   0.50691   0.88450   0.00000  Uiso   1.00
C852   C     0.33331   0.57930   0.74997   0.00000  Uiso   1.00
C853   C     0.04330   0.50075   0.61441   0.00000  Uiso   1.00
C854   C     0.30236   0.54093   0.94951   0.00000  Uiso   1.00
C855   C     0.02293   0.50329   0.54365   0.00000  Uiso   1.00
C856   C     0.31995   0.52899   0.90516   0.00000  Uiso   1.00
C857   C     0.00848   0.50241   0.59019   0.00000  Uiso   1.00
C858   C     0.24261   0.49609   0.90871   0.00000  Uiso   1.00
C859   C     0.09338   0.50098   0.59125   0.00000  Uiso   1.00
C860   C     0.22223   0.51343   0.95148   0.00000  Uiso   1.00
C861   C     0.10772   0.50910   0.54463   0.00000  Uiso   1.00
C862   C     0.25390   0.53321   0.97289   0.00000  Uiso   1.00
C863   C     0.18899   0.53716   0.54122   0.00000  Uiso   1.00
C864   C     0.07227   0.50626   0.52067   0.00000  Uiso   1.00
C865   C     0.17180   0.51149   0.97405   0.00000  Uiso   1.00
C866   C     0.15654   0.51796   0.52075   0.00000  Uiso   1.00
C867   C     0.13579   0.50782   0.95102   0.00000  Uiso   1.00
C868   C     0.23664   0.54557   0.51729   0.00000  Uiso   1.00
C869   C     0.08670   0.50626   0.97400   0.00000  Uiso   1.00
C870   C     0.29030   0.35473   0.75194   0.00000  Uiso   1.00
C871   C     0.04299   0.64527   0.74820   0.00000  Uiso   1.00
C872   C     0.29028   0.64549   0.75189   0.00000  Uiso   1.00
Cu873  Cu    0.04689   0.50001   0.75000   0.00000  Uiso   1.00
Cu874  Cu    0.28645   0.49999   0.75000   0.00000  Uiso   1.00
H875   H     0.26021   0.56139   0.53378   0.00000  Uiso   1.00
H876   H     0.07665   0.62917   0.74666   0.00000  Uiso   1.00
H877   H     0.25662   0.62957   0.75341   0.00000  Uiso   1.00
H878   H     0.07668   0.37043   0.74672   0.00000  Uiso   1.00
H879   H     0.19603   0.45318   0.79926   0.00000  Uiso   1.00
H880   H     0.13742   0.54639   0.70022   0.00000  Uiso   1.00
H881   H     0.15549   0.46833   0.59107   0.00000  Uiso   1.00
H882   H     0.14241   0.50840   0.62799   0.00000  Uiso   1.00
H883   H     0.19831   0.44503   0.91951   0.00000  Uiso   1.00
H884   H     0.19898   0.47282   0.87233   0.00000  Uiso   1.00
H885   H     0.10124   0.45398   0.84032   0.00000  Uiso   1.00
H886   H     0.06008   0.50421   0.95513   0.00000  Uiso   1.00
H887   H     0.11291   0.41711   0.80080   0.00000  Uiso   1.00
H888   H     0.23201   0.54614   0.65969   0.00000  Uiso   1.00
H889   H     0.22040   0.58290   0.69929   0.00000  Uiso   1.00
H890   H     0.30331   0.50156   0.60715   0.00000  Uiso   1.00
H891   H     0.02329   0.53754   0.88683   0.00000  Uiso   1.00
H892   H     0.32623   0.55739   0.96513   0.00000  Uiso   1.00
H893   H     0.32877   0.50202   0.52566   0.00000  Uiso   1.00
H894   H     0.17692   0.54896   0.57474   0.00000  Uiso   1.00
H895   H     0.14461   0.50957   0.91511   0.00000  Uiso   1.00
H896   H     0.25664   0.37083   0.75349   0.00000  Uiso   1.00
N897   N     0.11736   0.50001   0.74999   0.00000  Uiso   1.00
N898   N     0.21597   0.49999   0.75001   0.00000  Uiso   1.00
N899   N     0.12778   0.48469   0.61334   0.00000  Uiso   1.00
N900   N     0.21990   0.46209   0.89279   0.00000  Uiso   1.00
N901   N     0.10042   0.44727   0.80768   0.00000  Uiso   1.00
N902   N     0.23289   0.55276   0.69232   0.00000  Uiso   1.00
O903   O     0.03958   0.43989   0.75000   0.00000  Uiso   1.00
O904   O     0.29375   0.56011   0.75000   0.00000  Uiso   1.00
O905   O     0.29372   0.43988   0.75001   0.00000  Uiso   1.00
O906   O     0.03961   0.56012   0.75000   0.00000  Uiso   1.00
O907   O     0.01852   0.50001   0.81492   0.00000  Uiso   1.00
O908   O     0.31481   0.49999   0.68509   0.00000  Uiso   1.00
O909   O     0.27267   0.50000   0.81492   0.00000  Uiso   1.00
O910   O     0.06067   0.50000   0.68508   0.00000  Uiso   1.00
C911   C     0.33334   0.42070   0.75007   0.00000  Uiso   1.00
C912   C     0.37635   0.35451   0.74825   0.00000  Uiso   1.00
C913   C     0.66662   0.62392   0.75000   0.00000  Uiso   1.00
C914   C     0.33335   0.37608   0.75011   0.00000  Uiso   1.00
C915   C     0.51684   0.47414   0.77757   0.00000  Uiso   1.00
C916   C     0.48319   0.52573   0.72227   0.00000  Uiso   1.00
C917   C     0.46707   0.47422   0.77791   0.00000  Uiso   1.00
C918   C     0.53294   0.52576   0.72206   0.00000  Uiso   1.00
C919   C     0.63924   0.50039   0.83602   0.00000  Uiso   1.00
C920   C     0.36090   0.49952   0.66381   0.00000  Uiso   1.00
C921   C     0.62354   0.50691   0.88450   0.00000  Uiso   1.00
C922   C     0.66664   0.57930   0.74997   0.00000  Uiso   1.00
C923   C     0.37663   0.50075   0.61441   0.00000  Uiso   1.00
C924   C     0.63569   0.54093   0.94951   0.00000  Uiso   1.00
C925   C     0.35626   0.50329   0.54365   0.00000  Uiso   1.00
C926   C     0.65328   0.52899   0.90516   0.00000  Uiso   1.00
C927   C     0.34181   0.50241   0.59019   0.00000  Uiso   1.00
C928   C     0.57594   0.49609   0.90871   0.00000  Uiso   1.00
C929   C     0.42671   0.50098   0.59125   0.00000  Uiso   1.00
C930   C     0.55557   0.51343   0.95148   0.00000  Uiso   1.00
C931   C     0.44105   0.50910   0.54463   0.00000  Uiso   1.00
C932   C     0.58724   0.53321   0.97289   0.00000  Uiso   1.00
C933   C     0.52233   0.53716   0.54122   0.00000  Uiso   1.00
C934   C     0.40561   0.50626   0.52067   0.00000  Uiso   1.00
C935   C     0.50514   0.51149   0.97405   0.00000  Uiso   1.00
C936   C     0.48987   0.51796   0.52075   0.00000  Uiso   1.00
C937   C     0.46913   0.50782   0.95102   0.00000  Uiso   1.00
C938   C     0.56998   0.54557   0.51729   0.00000  Uiso   1.00
C939   C     0.42003   0.50626   0.97400   0.00000  Uiso   1.00
C940   C     0.62364   0.35473   0.75194   0.00000  Uiso   1.00
C941   C     0.37632   0.64527   0.74820   0.00000  Uiso   1.00
C942   C     0.62361   0.64549   0.75189   0.00000  Uiso   1.00
Cu943  Cu    0.38022   0.50001   0.75000   0.00000  Uiso   1.00
Cu944  Cu    0.61978   0.49999   0.75000   0.00000  Uiso   1.00
H945   H     0.59354   0.56139   0.53378   0.00000  Uiso   1.00
H946   H     0.40998   0.62917   0.74666   0.00000  Uiso   1.00
H947   H     0.58995   0.62957   0.75341   0.00000  Uiso   1.00
H948   H     0.41001   0.37043   0.74672   0.00000  Uiso   1.00
H949   H     0.52937   0.45318   0.79926   0.00000  Uiso   1.00
H950   H     0.47075   0.54639   0.70022   0.00000  Uiso   1.00
H951   H     0.48882   0.46833   0.59107   0.00000  Uiso   1.00
H952   H     0.47574   0.50840   0.62799   0.00000  Uiso   1.00
H953   H     0.53164   0.44503   0.91951   0.00000  Uiso   1.00
H954   H     0.53231   0.47282   0.87233   0.00000  Uiso   1.00
H955   H     0.43457   0.45398   0.84032   0.00000  Uiso   1.00
H956   H     0.39342   0.50421   0.95513   0.00000  Uiso   1.00
H957   H     0.44624   0.41711   0.80080   0.00000  Uiso   1.00
H958   H     0.56534   0.54614   0.65969   0.00000  Uiso   1.00
H959   H     0.55374   0.58290   0.69929   0.00000  Uiso   1.00
H960   H     0.63664   0.50156   0.60715   0.00000  Uiso   1.00
H961   H     0.35662   0.53754   0.88683   0.00000  Uiso   1.00
H962   H     0.65956   0.55739   0.96513   0.00000  Uiso   1.00
H963   H     0.66211   0.50202   0.52566   0.00000  Uiso   1.00
H964   H     0.51025   0.54896   0.57474   0.00000  Uiso   1.00
H965   H     0.47794   0.50957   0.91511   0.00000  Uiso   1.00
H966   H     0.58998   0.37083   0.75349   0.00000  Uiso   1.00
N967   N     0.45069   0.50001   0.74999   0.00000  Uiso   1.00
N968   N     0.54931   0.49999   0.75001   0.00000  Uiso   1.00
N969   N     0.46111   0.48469   0.61334   0.00000  Uiso   1.00
N970   N     0.55324   0.46209   0.89279   0.00000  Uiso   1.00
N971   N     0.43376   0.44727   0.80768   0.00000  Uiso   1.00
N972   N     0.56623   0.55276   0.69232   0.00000  Uiso   1.00
O973   O     0.37291   0.43989   0.75000   0.00000  Uiso   1.00
O974   O     0.62709   0.56011   0.75000   0.00000  Uiso   1.00
O975   O     0.62706   0.43988   0.75001   0.00000  Uiso   1.00
O976   O     0.37294   0.56012   0.75000   0.00000  Uiso   1.00
O977   O     0.35186   0.50001   0.81492   0.00000  Uiso   1.00
O978   O     0.64814   0.49999   0.68509   0.00000  Uiso   1.00
O979   O     0.60600   0.50000   0.81492   0.00000  Uiso   1.00
O980   O     0.39400   0.50000   0.68508   0.00000  Uiso   1.00
C981   C     0.66668   0.42070   0.75007   0.00000  Uiso   1.00
C982   C     0.70969   0.35451   0.74825   0.00000  Uiso   1.00
C983   C     0.99995   0.62392   0.75000   0.00000  Uiso   1.00
C984   C     0.66668   0.37608   0.75011   0.00000  Uiso   1.00
C985   C     0.85018   0.47414   0.77757   0.00000  Uiso   1.00
C986   C     0.81653   0.52573   0.72227   0.00000  Uiso   1.00
C987   C     0.80040   0.47422   0.77791   0.00000  Uiso   1.00
C988   C     0.86627   0.52576   0.72206   0.00000  Uiso   1.00
C989   C     0.97257   0.50039   0.83602   0.00000  Uiso   1.00
C990   C     0.69424   0.49952   0.66381   0.00000  Uiso   1.00
C991   C     0.95688   0.50691   0.88450   0.00000  Uiso   1.00
C992   C     0.99998   0.57930   0.74997   0.00000  Uiso   1.00
C993   C     0.70996   0.50075   0.61441   0.00000  Uiso   1.00
C994   C     0.96902   0.54093   0.94951   0.00000  Uiso   1.00
C995   C     0.68959   0.50329   0.54365   0.00000  Uiso   1.00
C996   C     0.98661   0.52899   0.90516   0.00000  Uiso   1.00
C997   C     0.67514   0.50241   0.59019   0.00000  Uiso   1.00
C998   C     0.90927   0.49609   0.90871   0.00000  Uiso   1.00
C999   C     0.76004   0.50098   0.59125   0.00000  Uiso   1.00
C1000  C     0.88890   0.51343   0.95148   0.00000  Uiso   1.00
C1001  C     0.77438   0.50910   0.54463   0.00000  Uiso   1.00
C1002  C     0.92057   0.53321   0.97289   0.00000  Uiso   1.00
C1003  C     0.85566   0.53716   0.54122   0.00000  Uiso   1.00
C1004  C     0.73894   0.50626   0.52067   0.00000  Uiso   1.00
C1005  C     0.83847   0.51149   0.97405   0.00000  Uiso   1.00
C1006  C     0.82321   0.51796   0.52075   0.00000  Uiso   1.00
C1007  C     0.80246   0.50782   0.95102   0.00000  Uiso   1.00
C1008  C     0.90331   0.54557   0.51729   0.00000  Uiso   1.00
C1009  C     0.75337   0.50626   0.97400   0.00000  Uiso   1.00
C1010  C     0.95697   0.35473   0.75194   0.00000  Uiso   1.00
C1011  C     0.70966   0.64527   0.74820   0.00000  Uiso   1.00
C1012  C     0.95694   0.64549   0.75189   0.00000  Uiso   1.00
Cu1013 Cu    0.71355   0.50001   0.75000   0.00000  Uiso   1.00
Cu1014 Cu    0.95311   0.49999   0.75000   0.00000  Uiso   1.00
H1015  H     0.92688   0.56139   0.53378   0.00000  Uiso   1.00
H1016  H     0.74332   0.62917   0.74666   0.00000  Uiso   1.00
H1017  H     0.92328   0.62957   0.75341   0.00000  Uiso   1.00
H1018  H     0.74335   0.37043   0.74672   0.00000  Uiso   1.00
H1019  H     0.86270   0.45318   0.79926   0.00000  Uiso   1.00
H1020  H     0.80408   0.54639   0.70022   0.00000  Uiso   1.00
H1021  H     0.82215   0.46833   0.59107   0.00000  Uiso   1.00
H1022  H     0.80908   0.50840   0.62799   0.00000  Uiso   1.00
H1023  H     0.86498   0.44503   0.91951   0.00000  Uiso   1.00
H1024  H     0.86565   0.47282   0.87233   0.00000  Uiso   1.00
H1025  H     0.76790   0.45398   0.84032   0.00000  Uiso   1.00
H1026  H     0.72675   0.50421   0.95513   0.00000  Uiso   1.00
H1027  H     0.77957   0.41711   0.80080   0.00000  Uiso   1.00
H1028  H     0.89868   0.54614   0.65969   0.00000  Uiso   1.00
H1029  H     0.88707   0.58290   0.69929   0.00000  Uiso   1.00
H1030  H     0.96998   0.50156   0.60715   0.00000  Uiso   1.00
H1031  H     0.68995   0.53754   0.88683   0.00000  Uiso   1.00
H1032  H     0.99289   0.55739   0.96513   0.00000  Uiso   1.00
H1033  H     0.99544   0.50202   0.52566   0.00000  Uiso   1.00
H1034  H     0.84358   0.54896   0.57474   0.00000  Uiso   1.00
H1035  H     0.81127   0.50957   0.91511   0.00000  Uiso   1.00
H1036  H     0.92331   0.37083   0.75349   0.00000  Uiso   1.00
N1037  N     0.78403   0.50001   0.74999   0.00000  Uiso   1.00
N1038  N     0.88264   0.49999   0.75001   0.00000  Uiso   1.00
N1039  N     0.79445   0.48469   0.61334   0.00000  Uiso   1.00
N1040  N     0.88657   0.46209   0.89279   0.00000  Uiso   1.00
N1041  N     0.76709   0.44727   0.80768   0.00000  Uiso   1.00
N1042  N     0.89956   0.55276   0.69232   0.00000  Uiso   1.00
O1043  O     0.70625   0.43989   0.75000   0.00000  Uiso   1.00
O1044  O     0.96042   0.56011   0.75000   0.00000  Uiso   1.00
O1045  O     0.96039   0.43988   0.75001   0.00000  Uiso   1.00
O1046  O     0.70628   0.56012   0.75000   0.00000  Uiso   1.00
O1047  O     0.68519   0.50001   0.81492   0.00000  Uiso   1.00
O1048  O     0.98148   0.49999   0.68509   0.00000  Uiso   1.00
O1049  O     0.93933   0.50000   0.81492   0.00000  Uiso   1.00
O1050  O     0.72733   0.50000   0.68508   0.00000  Uiso   1.00
C1051  C     0.00001   0.75403   0.75007   0.00000  Uiso   1.00
C1052  C     0.04302   0.68784   0.74825   0.00000  Uiso   1.00
C1053  C     0.33329   0.95725   0.75000   0.00000  Uiso   1.00
C1054  C     0.00002   0.70941   0.75011   0.00000  Uiso   1.00
C1055  C     0.18351   0.80747   0.77757   0.00000  Uiso   1.00
C1056  C     0.14986   0.85906   0.72227   0.00000  Uiso   1.00
C1057  C     0.13373   0.80756   0.77791   0.00000  Uiso   1.00
C1058  C     0.19960   0.85909   0.72206   0.00000  Uiso   1.00
C1059  C     0.30590   0.83372   0.83602   0.00000  Uiso   1.00
C1060  C     0.02757   0.83286   0.66381   0.00000  Uiso   1.00
C1061  C     0.29021   0.84024   0.88450   0.00000  Uiso   1.00
C1062  C     0.33331   0.91263   0.74997   0.00000  Uiso   1.00
C1063  C     0.04330   0.83408   0.61441   0.00000  Uiso   1.00
C1064  C     0.30236   0.87426   0.94951   0.00000  Uiso   1.00
C1065  C     0.02293   0.83662   0.54365   0.00000  Uiso   1.00
C1066  C     0.31995   0.86233   0.90516   0.00000  Uiso   1.00
C1067  C     0.00848   0.83575   0.59019   0.00000  Uiso   1.00
C1068  C     0.24261   0.82942   0.90871   0.00000  Uiso   1.00
C1069  C     0.09338   0.83432   0.59125   0.00000  Uiso   1.00
C1070  C     0.22223   0.84677   0.95148   0.00000  Uiso   1.00
C1071  C     0.10772   0.84244   0.54463   0.00000  Uiso   1.00
C1072  C     0.25390   0.86655   0.97289   0.00000  Uiso   1.00
C1073  C     0.18899   0.87049   0.54122   0.00000  Uiso   1.00
C1074  C     0.07227   0.83959   0.52067   0.00000  Uiso   1.00
C1075  C     0.17180   0.84482   0.97405   0.00000  Uiso   1.00
C1076  C     0.15654   0.85130   0.52075   0.00000  Uiso   1.00
C1077  C     0.13579   0.84115   0.95102   0.00000  Uiso   1.00
C1078  C     0.23664   0.87890   0.51729   0.00000  Uiso   1.00
C1079  C     0.08670   0.83959   0.97400   0.00000  Uiso   1.00
C1080  C     0.29030   0.68806   0.75194   0.00000  Uiso   1.00
C1081  C     0.04299   0.97860   0.74820   0.00000  Uiso   1.00
C1082  C     0.29028   0.97882   0.75189   0.00000  Uiso   1.00
Cu1083 Cu    0.04689   0.83334   0.75000   0.00000  Uiso   1.00
Cu1084 Cu    0.28645   0.83333   0.75000   0.00000  Uiso   1.00
H1085  H     0.26021   0.89472   0.53378   0.00000  Uiso   1.00
H1086  H     0.07665   0.96251   0.74666   0.00000  Uiso   1.00
H1087  H     0.25662   0.96290   0.75341   0.00000  Uiso   1.00
H1088  H     0.07668   0.70376   0.74672   0.00000  Uiso   1.00
H1089  H     0.19603   0.78652   0.79926   0.00000  Uiso   1.00
H1090  H     0.13742   0.87972   0.70022   0.00000  Uiso   1.00
H1091  H     0.15549   0.80166   0.59107   0.00000  Uiso   1.00
H1092  H     0.14241   0.84173   0.62799   0.00000  Uiso   1.00
H1093  H     0.19831   0.77836   0.91951   0.00000  Uiso   1.00
H1094  H     0.19898   0.80615   0.87233   0.00000  Uiso   1.00
H1095  H     0.10124   0.78732   0.84032   0.00000  Uiso   1.00
H1096  H     0.06008   0.83755   0.95513   0.00000  Uiso   1.00
H1097  H     0.11291   0.75044   0.80080   0.00000  Uiso   1.00
H1098  H     0.23201   0.87948   0.65969   0.00000  Uiso   1.00
H1099  H     0.22040   0.91624   0.69929   0.00000  Uiso   1.00
H1100  H     0.30331   0.83489   0.60715   0.00000  Uiso   1.00
H1101  H     0.02329   0.87087   0.88683   0.00000  Uiso   1.00
H1102  H     0.32623   0.89072   0.96513   0.00000  Uiso   1.00
H1103  H     0.32877   0.83535   0.52566   0.00000  Uiso   1.00
H1104  H     0.17692   0.88230   0.57474   0.00000  Uiso   1.00
H1105  H     0.14461   0.84291   0.91511   0.00000  Uiso   1.00
H1106  H     0.25664   0.70416   0.75349   0.00000  Uiso   1.00
N1107  N     0.11736   0.83334   0.74999   0.00000  Uiso   1.00
N1108  N     0.21597   0.83332   0.75001   0.00000  Uiso   1.00
N1109  N     0.12778   0.81802   0.61334   0.00000  Uiso   1.00
N1110  N     0.21990   0.79542   0.89279   0.00000  Uiso   1.00
N1111  N     0.10042   0.78060   0.80768   0.00000  Uiso   1.00
N1112  N     0.23289   0.88609   0.69232   0.00000  Uiso   1.00
O1113  O     0.03958   0.77322   0.75000   0.00000  Uiso   1.00
O1114  O     0.29375   0.89345   0.75000   0.00000  Uiso   1.00
O1115  O     0.29372   0.77321   0.75001   0.00000  Uiso   1.00
O1116  O     0.03961   0.89346   0.75000   0.00000  Uiso   1.00
O1117  O     0.01852   0.83334   0.81492   0.00000  Uiso   1.00
O1118  O     0.31481   0.83332   0.68509   0.00000  Uiso   1.00
O1119  O     0.27267   0.83333   0.81492   0.00000  Uiso   1.00
O1120  O     0.06067   0.83333   0.68508   0.00000  Uiso   1.00
C1121  C     0.33334   0.75403   0.75007   0.00000  Uiso   1.00
C1122  C     0.37635   0.68784   0.74825   0.00000  Uiso   1.00
C1123  C     0.66662   0.95725   0.75000   0.00000  Uiso   1.00
C1124  C     0.33335   0.70941   0.75011   0.00000  Uiso   1.00
C1125  C     0.51684   0.80747   0.77757   0.00000  Uiso   1.00
C1126  C     0.48319   0.85906   0.72227   0.00000  Uiso   1.00
C1127  C     0.46707   0.80756   0.77791   0.00000  Uiso   1.00
C1128  C     0.53294   0.85909   0.72206   0.00000  Uiso   1.00
C1129  C     0.63924   0.83372   0.83602   0.00000  Uiso   1.00
C1130  C     0.36090   0.83286   0.66381   0.00000  Uiso   1.00
C1131  C     0.62354   0.84024   0.88450   0.00000  Uiso   1.00
C1132  C     0.66664   0.91263   0.74997   0.00000  Uiso   1.00
C1133  C     0.37663   0.83408   0.61441   0.00000  Uiso   1.00
C1134  C     0.63569   0.87426   0.94951   0.00000  Uiso   1.00
C1135  C     0.35626   0.83662   0.54365   0.00000  Uiso   1.00
C1136  C     0.65328   0.86233   0.90516   0.00000  Uiso   1.00
C1137  C     0.34181   0.83575   0.59019   0.00000  Uiso   1.00
C1138  C     0.57594   0.82942   0.90871   0.00000  Uiso   1.00
C1139  C     0.42671   0.83432   0.59125   0.00000  Uiso   1.00
C1140  C     0.55557   0.84677   0.95148   0.00000  Uiso   1.00
C1141  C     0.44105   0.84244   0.54463   0.00000  Uiso   1.00
C1142  C     0.58724   0.86655   0.97289   0.00000  Uiso   1.00
C1143  C     0.52233   0.87049   0.54122   0.00000  Uiso   1.00
C1144  C     0.40561   0.83959   0.52067   0.00000  Uiso   1.00
C1145  C     0.50514   0.84482   0.97405   0.00000  Uiso   1.00
C1146  C     0.48987   0.85130   0.52075   0.00000  Uiso   1.00
C1147  C     0.46913   0.84115   0.95102   0.00000  Uiso   1.00
C1148  C     0.56998   0.87890   0.51729   0.00000  Uiso   1.00
C1149  C     0.42003   0.83959   0.97400   0.00000  Uiso   1.00
C1150  C     0.62364   0.68806   0.75194   0.00000  Uiso   1.00
C1151  C     0.37632   0.97860   0.74820   0.00000  Uiso   1.00
C1152  C     0.62361   0.97882   0.75189   0.00000  Uiso   1.00
Cu1153 Cu    0.38022   0.83334   0.75000   0.00000  Uiso   1.00
Cu1154 Cu    0.61978   0.83333   0.75000   0.00000  Uiso   1.00
H1155  H     0.59354   0.89472   0.53378   0.00000  Uiso   1.00
H1156  H     0.40998   0.96251   0.74666   0.00000  Uiso   1.00
H1157  H     0.58995   0.96290   0.75341   0.00000  Uiso   1.00
H1158  H     0.41001   0.70376   0.74672   0.00000  Uiso   1.00
H1159  H     0.52937   0.78652   0.79926   0.00000  Uiso   1.00
H1160  H     0.47075   0.87972   0.70022   0.00000  Uiso   1.00
H1161  H     0.48882   0.80166   0.59107   0.00000  Uiso   1.00
H1162  H     0.47574   0.84173   0.62799   0.00000  Uiso   1.00
H1163  H     0.53164   0.77836   0.91951   0.00000  Uiso   1.00
H1164  H     0.53231   0.80615   0.87233   0.00000  Uiso   1.00
H1165  H     0.43457   0.78732   0.84032   0.00000  Uiso   1.00
H1166  H     0.39342   0.83755   0.95513   0.00000  Uiso   1.00
H1167  H     0.44624   0.75044   0.80080   0.00000  Uiso   1.00
H1168  H     0.56534   0.87948   0.65969   0.00000  Uiso   1.00
H1169  H     0.55374   0.91624   0.69929   0.00000  Uiso   1.00
H1170  H     0.63664   0.83489   0.60715   0.00000  Uiso   1.00
H1171  H     0.35662   0.87087   0.88683   0.00000  Uiso   1.00
H1172  H     0.65956   0.89072   0.96513   0.00000  Uiso   1.00
H1173  H     0.66211   0.83535   0.52566   0.00000  Uiso   1.00
H1174  H     0.51025   0.88230   0.57474   0.00000  Uiso   1.00
H1175  H     0.47794   0.84291   0.91511   0.00000  Uiso   1.00
H1176  H     0.58998   0.70416   0.75349   0.00000  Uiso   1.00
N1177  N     0.45069   0.83334   0.74999   0.00000  Uiso   1.00
N1178  N     0.54931   0.83332   0.75001   0.00000  Uiso   1.00
N1179  N     0.46111   0.81802   0.61334   0.00000  Uiso   1.00
N1180  N     0.55324   0.79542   0.89279   0.00000  Uiso   1.00
N1181  N     0.43376   0.78060   0.80768   0.00000  Uiso   1.00
N1182  N     0.56623   0.88609   0.69232   0.00000  Uiso   1.00
O1183  O     0.37291   0.77322   0.75000   0.00000  Uiso   1.00
O1184  O     0.62709   0.89345   0.75000   0.00000  Uiso   1.00
O1185  O     0.62706   0.77321   0.75001   0.00000  Uiso   1.00
O1186  O     0.37294   0.89346   0.75000   0.00000  Uiso   1.00
O1187  O     0.35186   0.83334   0.81492   0.00000  Uiso   1.00
O1188  O     0.64814   0.83332   0.68509   0.00000  Uiso   1.00
O1189  O     0.60600   0.83333   0.81492   0.00000  Uiso   1.00
O1190  O     0.39400   0.83333   0.68508   0.00000  Uiso   1.00
C1191  C     0.66668   0.75403   0.75007   0.00000  Uiso   1.00
C1192  C     0.70969   0.68784   0.74825   0.00000  Uiso   1.00
C1193  C     0.99995   0.95725   0.75000   0.00000  Uiso   1.00
C1194  C     0.66668   0.70941   0.75011   0.00000  Uiso   1.00
C1195  C     0.85018   0.80747   0.77757   0.00000  Uiso   1.00
C1196  C     0.81653   0.85906   0.72227   0.00000  Uiso   1.00
C1197  C     0.80040   0.80756   0.77791   0.00000  Uiso   1.00
C1198  C     0.86627   0.85909   0.72206   0.00000  Uiso   1.00
C1199  C     0.97257   0.83372   0.83602   0.00000  Uiso   1.00
C1200  C     0.69424   0.83286   0.66381   0.00000  Uiso   1.00
C1201  C     0.95688   0.84024   0.88450   0.00000  Uiso   1.00
C1202  C     0.99998   0.91263   0.74997   0.00000  Uiso   1.00
C1203  C     0.70996   0.83408   0.61441   0.00000  Uiso   1.00
C1204  C     0.96902   0.87426   0.94951   0.00000  Uiso   1.00
C1205  C     0.68959   0.83662   0.54365   0.00000  Uiso   1.00
C1206  C     0.98661   0.86233   0.90516   0.00000  Uiso   1.00
C1207  C     0.67514   0.83575   0.59019   0.00000  Uiso   1.00
C1208  C     0.90927   0.82942   0.90871   0.00000  Uiso   1.00
C1209  C     0.76004   0.83432   0.59125   0.00000  Uiso   1.00
C1210  C     0.88890   0.84677   0.95148   0.00000  Uiso   1.00
C1211  C     0.77438   0.84244   0.54463   0.00000  Uiso   1.00
C1212  C     0.92057   0.86655   0.97289   0.00000  Uiso   1.00
C1213  C     0.85566   0.87049   0.54122   0.00000  Uiso   1.00
C1214  C     0.73894   0.83959   0.52067   0.00000  Uiso   1.00
C1215  C     0.83847   0.84482   0.97405   0.00000  Uiso   1.00
C1216  C     0.82321   0.85130   0.52075   0.00000  Uiso   1.00
C1217  C     0.80246   0.84115   0.95102   0.00000  Uiso   1.00
C1218  C     0.90331   0.87890   0.51729   0.00000  Uiso   1.00
C1219  C     0.75337   0.83959   0.97400   0.00000  Uiso   1.00
C1220  C     0.95697   0.68806   0.75194   0.00000  Uiso   1.00
C1221  C     0.70966   0.97860   0.74820   0.00000  Uiso   1.00
C1222  C     0.95694   0.97882   0.75189   0.00000  Uiso   1.00
Cu1223 Cu    0.71355   0.83334   0.75000   0.00000  Uiso   1.00
Cu1224 Cu    0.95311   0.83333   0.75000   0.00000  Uiso   1.00
H1225  H     0.92688   0.89472   0.53378   0.00000  Uiso   1.00
H1226  H     0.74332   0.96251   0.74666   0.00000  Uiso   1.00
H1227  H     0.92328   0.96290   0.75341   0.00000  Uiso   1.00
H1228  H     0.74335   0.70376   0.74672   0.00000  Uiso   1.00
H1229  H     0.86270   0.78652   0.79926   0.00000  Uiso   1.00
H1230  H     0.80408   0.87972   0.70022   0.00000  Uiso   1.00
H1231  H     0.82215   0.80166   0.59107   0.00000  Uiso   1.00
H1232  H     0.80908   0.84173   0.62799   0.00000  Uiso   1.00
H1233  H     0.86498   0.77836   0.91951   0.00000  Uiso   1.00
H1234  H     0.86565   0.80615   0.87233   0.00000  Uiso   1.00
H1235  H     0.76790   0.78732   0.84032   0.00000  Uiso   1.00
H1236  H     0.72675   0.83755   0.95513   0.00000  Uiso   1.00
H1237  H     0.77957   0.75044   0.80080   0.00000  Uiso   1.00
H1238  H     0.89868   0.87948   0.65969   0.00000  Uiso   1.00
H1239  H     0.88707   0.91624   0.69929   0.00000  Uiso   1.00
H1240  H     0.96998   0.83489   0.60715   0.00000  Uiso   1.00
H1241  H     0.68995   0.87087   0.88683   0.00000  Uiso   1.00
H1242  H     0.99289   0.89072   0.96513   0.00000  Uiso   1.00
H1243  H     0.99544   0.83535   0.52566   0.00000  Uiso   1.00
H1244  H     0.84358   0.88230   0.57474   0.00000  Uiso   1.00
H1245  H     0.81127   0.84291   0.91511   0.00000  Uiso   1.00
H1246  H     0.92331   0.70416   0.75349   0.00000  Uiso   1.00
N1247  N     0.78403   0.83334   0.74999   0.00000  Uiso   1.00
N1248  N     0.88264   0.83332   0.75001   0.00000  Uiso   1.00
N1249  N     0.79445   0.81802   0.61334   0.00000  Uiso   1.00
N1250  N     0.88657   0.79542   0.89279   0.00000  Uiso   1.00
N1251  N     0.76709   0.78060   0.80768   0.00000  Uiso   1.00
N1252  N     0.89956   0.88609   0.69232   0.00000  Uiso   1.00
O1253  O     0.70625   0.77322   0.75000   0.00000  Uiso   1.00
O1254  O     0.96042   0.89345   0.75000   0.00000  Uiso   1.00
O1255  O     0.96039   0.77321   0.75001   0.00000  Uiso   1.00
O1256  O     0.70628   0.89346   0.75000   0.00000  Uiso   1.00
O1257  O     0.68519   0.83334   0.81492   0.00000  Uiso   1.00
O1258  O     0.98148   0.83332   0.68509   0.00000  Uiso   1.00
O1259  O     0.93933   0.83333   0.81492   0.00000  Uiso   1.00
O1260  O     0.72733   0.83333   0.68508   0.00000  Uiso   1.00
loop_
_geom_bond_atom_site_label_1
_geom_bond_atom_site_label_2
_geom_bond_distance
_geom_bond_site_symmetry_2
_ccdc_geom_bond_type
C1     C4      1.450   .     S
C1     O63     1.293   .     A
C1     O205    1.291   1_455 S
C2     H38     1.083   .     S
C2     C4      1.401   .     A
C2     C451    1.383   1_545 S
C3     C32     1.401   .     A
C3     C12     1.450   .     S
C3     C101    1.402   .     S
C4     C170    1.402   1_455 S
C5     C7      1.420   .     A
C5     H39     1.081   .     S
C5     N58     1.364   .     A
C6     N57     1.364   .     A
C6     H40     1.082   .     S
C6     C8      1.420   .     A
C7     N61     1.429   .     S
C7     N57     1.371   .     A
C8     N62     1.429   .     S
C8     N58     1.372   .     A
C9     C11     1.467   .     S
C9     O69     1.293   .     A
C9     O137    1.298   .     S
C10    O70     1.294   .     A
C10    C13     1.478   .     S
C10    O208    1.303   1_455 S
C11    C18     1.407   .     A
C11    C16     1.400   .     A
C12    O64     1.293   .     A
C12    O136    1.291   .     S
C13    C17     1.403   .     A
C13    C19     1.416   .     A
C14    C22     1.400   .     A
C14    C16     1.390   .     A
C14    H52     1.084   .     S
C15    C24     1.400   .     A
C15    C17     1.392   .     A
C15    H193    1.083   1_455 S
C16    H121    1.083   .     S
C17    H190    1.083   1_455 S
C18    N60     1.440   .     S
C18    C20     1.419   .     A
C19    N59     1.442   .     S
C19    C21     1.417   .     A
C20    C22     1.419   .     A
C20    C25     1.422   .     A
C21    C26     1.419   .     A
C21    C24     1.415   .     A
C22    C658    1.395   .     S
C23    C28     1.389   .     A
C23    H54     1.078   .     S
C23    C26     1.410   .     A
C24    C659    1.396   1_554 S
C25    C27     1.411   .     A
C25    C656    1.414   .     S
C26    C655    1.414   1_554 S
C27    C29     1.391   .     A
C27    H55     1.076   .     S
C28    H35     1.084   .     S
C28    C652    1.395   1_554 S
C29    H46     1.082   .     S
C29    C654    1.396   .     S
C30    H56     1.083   .     S
C30    C74     1.402   .     S
C30    C452    1.383   1_545 S
C31    H36     1.083   .     S
C31    C143    1.402   1_455 S
C31    C212    1.383   .     S
C32    H37     1.083   .     S
C32    C240    1.383   .     S
Cu33   O63     1.965   .     S
Cu33   N57     2.014   .     S
Cu33   O67     1.958   .     S
Cu33   O66     1.964   .     S
Cu33   O70     1.948   .     S
Cu33   Cu174   2.680   1_455 S
Cu34   O64     1.965   .     S
Cu34   O69     1.948   .     S
Cu34   O65     1.964   .     S
Cu34   O68     1.958   .     S
Cu34   N58     2.014   .     S
Cu34   Cu103   2.680   .     S
H41    N59     1.046   .     S
H42    N59     1.043   .     S
H43    N60     1.045   .     S
H44    N60     1.042   .     S
H45    N61     1.046   .     S
H47    N61     1.046   .     S
H48    N62     1.046   .     S
H49    N62     1.045   .     S
H50    C87     1.083   .     S
H51    C156    1.083   1_455 S
H53    C85     1.083   .     S
O65    C71     1.291   .     S
O66    C152    1.291   1_455 S
O67    C149    1.298   1_455 S
O68    C80     1.303   .     S
C71    C74     1.450   .     S
C71    O133    1.293   .     A
C72    H108    1.083   .     S
C72    C74     1.401   .     A
C72    C521    1.383   1_545 S
C73    C102    1.401   .     A
C73    C82     1.450   .     S
C73    C171    1.402   .     S
C75    C77     1.420   .     A
C75    H109    1.081   .     S
C75    N128    1.364   .     A
C76    N127    1.364   .     A
C76    H110    1.082   .     S
C76    C78     1.420   .     A
C77    N131    1.429   .     S
C77    N127    1.371   .     A
C78    N132    1.429   .     S
C78    N128    1.372   .     A
C79    C81     1.467   .     S
C79    O139    1.293   .     A
C79    O207    1.298   .     S
C80    O140    1.294   .     A
C80    C83     1.478   .     S
C81    C88     1.407   .     A
C81    C86     1.400   .     A
C82    O134    1.293   .     A
C82    O206    1.291   .     S
C83    C87     1.403   .     A
C83    C89     1.416   .     A
C84    C92     1.400   .     A
C84    C86     1.390   .     A
C84    H122    1.084   .     S
C85    C94     1.400   .     A
C85    C87     1.392   .     A
C86    H191    1.083   .     S
C88    N130    1.440   .     S
C88    C90     1.419   .     A
C89    N129    1.442   .     S
C89    C91     1.417   .     A
C90    C92     1.419   .     A
C90    C95     1.422   .     A
C91    C96     1.419   .     A
C91    C94     1.415   .     A
C92    C728    1.395   .     S
C93    C98     1.389   .     A
C93    H124    1.078   .     S
C93    C96     1.410   .     A
C94    C729    1.396   1_554 S
C95    C97     1.411   .     A
C95    C726    1.414   .     S
C96    C725    1.414   1_554 S
C97    C99     1.391   .     A
C97    H125    1.076   .     S
C98    H105    1.084   .     S
C98    C722    1.395   1_554 S
C99    H116    1.082   .     S
C99    C724    1.396   .     S
C100   H126    1.083   .     S
C100   C144    1.402   .     S
C100   C522    1.383   1_545 S
C101   H106    1.083   .     S
C101   C282    1.383   .     S
C102   H107    1.083   .     S
C102   C310    1.383   .     S
Cu103  O133    1.965   .     S
Cu103  N127    2.014   .     S
Cu103  O137    1.958   .     S
Cu103  O136    1.964   .     S
Cu103  O140    1.948   .     S
Cu104  O134    1.965   .     S
Cu104  O139    1.948   .     S
Cu104  O135    1.964   .     S
Cu104  O138    1.958   .     S
Cu104  N128    2.014   .     S
Cu104  Cu173   2.680   .     S
H111   N129    1.046   .     S
H112   N129    1.043   .     S
H113   N130    1.045   .     S
H114   N130    1.042   .     S
H115   N131    1.046   .     S
H117   N131    1.046   .     S
H118   N132    1.046   .     S
H119   N132    1.045   .     S
H120   C157    1.083   .     S
H123   C155    1.083   .     S
O135   C141    1.291   .     S
O138   C150    1.303   .     S
C141   C144    1.450   .     S
C141   O203    1.293   .     A
C142   H178    1.083   .     S
C142   C144    1.401   .     A
C142   C591    1.383   1_545 S
C143   C172    1.401   .     A
C143   C152    1.450   .     S
C143   C31     1.402   1_655 S
C145   C147    1.420   .     A
C145   H179    1.081   .     S
C145   N198    1.364   .     A
C146   N197    1.364   .     A
C146   H180    1.082   .     S
C146   C148    1.420   .     A
C147   N201    1.429   .     S
C147   N197    1.371   .     A
C148   N202    1.429   .     S
C148   N198    1.372   .     A
C149   C151    1.467   .     S
C149   O209    1.293   .     A
C149   O67     1.298   1_655 S
C150   O210    1.294   .     A
C150   C153    1.478   .     S
C151   C158    1.407   .     A
C151   C156    1.400   .     A
C152   O204    1.293   .     A
C152   O66     1.291   1_655 S
C153   C157    1.403   .     A
C153   C159    1.416   .     A
C154   C162    1.400   .     A
C154   C156    1.390   .     A
C154   H192    1.084   .     S
C155   C164    1.400   .     A
C155   C157    1.392   .     A
C156   H51     1.083   1_655 S
C158   N200    1.440   .     S
C158   C160    1.419   .     A
C159   N199    1.442   .     S
C159   C161    1.417   .     A
C160   C162    1.419   .     A
C160   C165    1.422   .     A
C161   C166    1.419   .     A
C161   C164    1.415   .     A
C162   C798    1.395   .     S
C163   C168    1.389   .     A
C163   H194    1.078   .     S
C163   C166    1.410   .     A
C164   C799    1.396   1_554 S
C165   C167    1.411   .     A
C165   C796    1.414   .     S
C166   C795    1.414   1_554 S
C167   C169    1.391   .     A
C167   H195    1.076   .     S
C168   H175    1.084   .     S
C168   C792    1.395   1_554 S
C169   H186    1.082   .     S
C169   C794    1.396   .     S
C170   H196    1.083   .     S
C170   C4      1.402   1_655 S
C170   C592    1.383   1_545 S
C171   H176    1.083   .     S
C171   C352    1.383   .     S
C172   H177    1.083   .     S
C172   C380    1.383   .     S
Cu173  O203    1.965   .     S
Cu173  N197    2.014   .     S
Cu173  O207    1.958   .     S
Cu173  O206    1.964   .     S
Cu173  O210    1.948   .     S
Cu174  O204    1.965   .     S
Cu174  O209    1.948   .     S
Cu174  O205    1.964   .     S
Cu174  O208    1.958   .     S
Cu174  N198    2.014   .     S
Cu174  Cu33    2.680   1_655 S
H181   N199    1.046   .     S
H182   N199    1.043   .     S
H183   N200    1.045   .     S
H184   N200    1.042   .     S
H185   N201    1.046   .     S
H187   N201    1.046   .     S
H188   N202    1.046   .     S
H189   N202    1.045   .     S
H190   C17     1.083   1_655 S
H193   C15     1.083   1_655 S
O205   C1      1.291   1_655 S
O208   C10     1.303   1_655 S
C211   C214    1.450   .     S
C211   O273    1.293   .     A
C211   O415    1.291   1_455 S
C212   H248    1.083   .     S
C212   C214    1.401   .     A
C213   C242    1.401   .     A
C213   C222    1.450   .     S
C213   C311    1.402   .     S
C214   C380    1.402   1_455 S
C215   C217    1.420   .     A
C215   H249    1.081   .     S
C215   N268    1.364   .     A
C216   N267    1.364   .     A
C216   H250    1.082   .     S
C216   C218    1.420   .     A
C217   N271    1.429   .     S
C217   N267    1.371   .     A
C218   N272    1.429   .     S
C218   N268    1.372   .     A
C219   C221    1.467   .     S
C219   O279    1.293   .     A
C219   O347    1.298   .     S
C220   O280    1.294   .     A
C220   C223    1.478   .     S
C220   O418    1.303   1_455 S
C221   C228    1.407   .     A
C221   C226    1.400   .     A
C222   O274    1.293   .     A
C222   O346    1.291   .     S
C223   C227    1.403   .     A
C223   C229    1.416   .     A
C224   C232    1.400   .     A
C224   C226    1.390   .     A
C224   H262    1.084   .     S
C225   C234    1.400   .     A
C225   C227    1.392   .     A
C225   H403    1.083   1_455 S
C226   H331    1.083   .     S
C227   H400    1.083   1_455 S
C228   N270    1.440   .     S
C228   C230    1.419   .     A
C229   N269    1.442   .     S
C229   C231    1.417   .     A
C230   C232    1.419   .     A
C230   C235    1.422   .     A
C231   C236    1.419   .     A
C231   C234    1.415   .     A
C232   C868    1.395   .     S
C233   C238    1.389   .     A
C233   H264    1.078   .     S
C233   C236    1.410   .     A
C234   C869    1.396   1_554 S
C235   C237    1.411   .     A
C235   C866    1.414   .     S
C236   C865    1.414   1_554 S
C237   C239    1.391   .     A
C237   H265    1.076   .     S
C238   H245    1.084   .     S
C238   C862    1.395   1_554 S
C239   H256    1.082   .     S
C239   C864    1.396   .     S
C240   H266    1.083   .     S
C240   C284    1.402   .     S
C241   H246    1.083   .     S
C241   C353    1.402   1_455 S
C241   C422    1.383   .     S
C242   H247    1.083   .     S
C242   C450    1.383   .     S
Cu243  O273    1.965   .     S
Cu243  N267    2.014   .     S
Cu243  O277    1.958   .     S
Cu243  O276    1.964   .     S
Cu243  O280    1.948   .     S
Cu243  Cu384   2.680   1_455 S
Cu244  O274    1.965   .     S
Cu244  O279    1.948   .     S
Cu244  O275    1.964   .     S
Cu244  O278    1.958   .     S
Cu244  N268    2.014   .     S
Cu244  Cu313   2.680   .     S
H251   N269    1.046   .     S
H252   N269    1.043   .     S
H253   N270    1.045   .     S
H254   N270    1.042   .     S
H255   N271    1.046   .     S
H257   N271    1.046   .     S
H258   N272    1.046   .     S
H259   N272    1.045   .     S
H260   C297    1.083   .     S
H261   C366    1.083   1_455 S
H263   C295    1.083   .     S
O275   C281    1.291   .     S
O276   C362    1.291   1_455 S
O277   C359    1.298   1_455 S
O278   C290    1.303   .     S
C281   C284    1.450   .     S
C281   O343    1.293   .     A
C282   H318    1.083   .     S
C282   C284    1.401   .     A
C283   C312    1.401   .     A
C283   C292    1.450   .     S
C283   C381    1.402   .     S
C285   C287    1.420   .     A
C285   H319    1.081   .     S
C285   N338    1.364   .     A
C286   N337    1.364   .     A
C286   H320    1.082   .     S
C286   C288    1.420   .     A
C287   N341    1.429   .     S
C287   N337    1.371   .     A
C288   N342    1.429   .     S
C288   N338    1.372   .     A
C289   C291    1.467   .     S
C289   O349    1.293   .     A
C289   O417    1.298   .     S
C290   O350    1.294   .     A
C290   C293    1.478   .     S
C291   C298    1.407   .     A
C291   C296    1.400   .     A
C292   O344    1.293   .     A
C292   O416    1.291   .     S
C293   C297    1.403   .     A
C293   C299    1.416   .     A
C294   C302    1.400   .     A
C294   C296    1.390   .     A
C294   H332    1.084   .     S
C295   C304    1.400   .     A
C295   C297    1.392   .     A
C296   H401    1.083   .     S
C298   N340    1.440   .     S
C298   C300    1.419   .     A
C299   N339    1.442   .     S
C299   C301    1.417   .     A
C300   C302    1.419   .     A
C300   C305    1.422   .     A
C301   C306    1.419   .     A
C301   C304    1.415   .     A
C302   C938    1.395   .     S
C303   C308    1.389   .     A
C303   H334    1.078   .     S
C303   C306    1.410   .     A
C304   C939    1.396   1_554 S
C305   C307    1.411   .     A
C305   C936    1.414   .     S
C306   C935    1.414   1_554 S
C307   C309    1.391   .     A
C307   H335    1.076   .     S
C308   H315    1.084   .     S
C308   C932    1.395   1_554 S
C309   H326    1.082   .     S
C309   C934    1.396   .     S
C310   H336    1.083   .     S
C310   C354    1.402   .     S
C311   H316    1.083   .     S
C311   C492    1.383   .     S
C312   H317    1.083   .     S
C312   C520    1.383   .     S
Cu313  O343    1.965   .     S
Cu313  N337    2.014   .     S
Cu313  O347    1.958   .     S
Cu313  O346    1.964   .     S
Cu313  O350    1.948   .     S
Cu314  O344    1.965   .     S
Cu314  O349    1.948   .     S
Cu314  O345    1.964   .     S
Cu314  O348    1.958   .     S
Cu314  N338    2.014   .     S
Cu314  Cu383   2.680   .     S
H321   N339    1.046   .     S
H322   N339    1.043   .     S
H323   N340    1.045   .     S
H324   N340    1.042   .     S
H325   N341    1.046   .     S
H327   N341    1.046   .     S
H328   N342    1.046   .     S
H329   N342    1.045   .     S
H330   C367    1.083   .     S
H333   C365    1.083   .     S
O345   C351    1.291   .     S
O348   C360    1.303   .     S
C351   C354    1.450   .     S
C351   O413    1.293   .     A
C352   H388    1.083   .     S
C352   C354    1.401   .     A
C353   C382    1.401   .     A
C353   C362    1.450   .     S
C353   C241    1.402   1_655 S
C355   C357    1.420   .     A
C355   H389    1.081   .     S
C355   N408    1.364   .     A
C356   N407    1.364   .     A
C356   H390    1.082   .     S
C356   C358    1.420   .     A
C357   N411    1.429   .     S
C357   N407    1.371   .     A
C358   N412    1.429   .     S
C358   N408    1.372   .     A
C359   C361    1.467   .     S
C359   O419    1.293   .     A
C359   O277    1.298   1_655 S
C360   O420    1.294   .     A
C360   C363    1.478   .     S
C361   C368    1.407   .     A
C361   C366    1.400   .     A
C362   O414    1.293   .     A
C362   O276    1.291   1_655 S
C363   C367    1.403   .     A
C363   C369    1.416   .     A
C364   C372    1.400   .     A
C364   C366    1.390   .     A
C364   H402    1.084   .     S
C365   C374    1.400   .     A
C365   C367    1.392   .     A
C366   H261    1.083   1_655 S
C368   N410    1.440   .     S
C368   C370    1.419   .     A
C369   N409    1.442   .     S
C369   C371    1.417   .     A
C370   C372    1.419   .     A
C370   C375    1.422   .     A
C371   C376    1.419   .     A
C371   C374    1.415   .     A
C372   C1008   1.395   .     S
C373   C378    1.389   .     A
C373   H404    1.078   .     S
C373   C376    1.410   .     A
C374   C1009   1.396   1_554 S
C375   C377    1.411   .     A
C375   C1006   1.414   .     S
C376   C1005   1.414   1_554 S
C377   C379    1.391   .     A
C377   H405    1.076   .     S
C378   H385    1.084   .     S
C378   C1002   1.395   1_554 S
C379   H396    1.082   .     S
C379   C1004   1.396   .     S
C380   H406    1.083   .     S
C380   C214    1.402   1_655 S
C381   H386    1.083   .     S
C381   C562    1.383   .     S
C382   H387    1.083   .     S
C382   C590    1.383   .     S
Cu383  O413    1.965   .     S
Cu383  N407    2.014   .     S
Cu383  O417    1.958   .     S
Cu383  O416    1.964   .     S
Cu383  O420    1.948   .     S
Cu384  O414    1.965   .     S
Cu384  O419    1.948   .     S
Cu384  O415    1.964   .     S
Cu384  O418    1.958   .     S
Cu384  N408    2.014   .     S
Cu384  Cu243   2.680   1_655 S
H391   N409    1.046   .     S
H392   N409    1.043   .     S
H393   N410    1.045   .     S
H394   N410    1.042   .     S
H395   N411    1.046   .     S
H397   N411    1.046   .     S
H398   N412    1.046   .     S
H399   N412    1.045   .     S
H400   C227    1.083   1_655 S
H403   C225    1.083   1_655 S
O415   C211    1.291   1_655 S
O418   C220    1.303   1_655 S
C421   C424    1.450   .     S
C421   O483    1.293   .     A
C421   O625    1.291   1_455 S
C422   H458    1.083   .     S
C422   C424    1.401   .     A
C423   C452    1.401   .     A
C423   C432    1.450   .     S
C423   C521    1.402   .     S
C424   C590    1.402   1_455 S
C425   C427    1.420   .     A
C425   H459    1.081   .     S
C425   N478    1.364   .     A
C426   N477    1.364   .     A
C426   H460    1.082   .     S
C426   C428    1.420   .     A
C427   N481    1.429   .     S
C427   N477    1.371   .     A
C428   N482    1.429   .     S
C428   N478    1.372   .     A
C429   C431    1.467   .     S
C429   O489    1.293   .     A
C429   O557    1.298   .     S
C430   O490    1.294   .     A
C430   C433    1.478   .     S
C430   O628    1.303   1_455 S
C431   C438    1.407   .     A
C431   C436    1.400   .     A
C432   O484    1.293   .     A
C432   O556    1.291   .     S
C433   C437    1.403   .     A
C433   C439    1.416   .     A
C434   C442    1.400   .     A
C434   C436    1.390   .     A
C434   H472    1.084   .     S
C435   C444    1.400   .     A
C435   C437    1.392   .     A
C435   H613    1.083   1_455 S
C436   H541    1.083   .     S
C437   H610    1.083   1_455 S
C438   N480    1.440   .     S
C438   C440    1.419   .     A
C439   N479    1.442   .     S
C439   C441    1.417   .     A
C440   C442    1.419   .     A
C440   C445    1.422   .     A
C441   C446    1.419   .     A
C441   C444    1.415   .     A
C442   C1078   1.395   .     S
C443   C448    1.389   .     A
C443   H474    1.078   .     S
C443   C446    1.410   .     A
C444   C1079   1.396   1_554 S
C445   C447    1.411   .     A
C445   C1076   1.414   .     S
C446   C1075   1.414   1_554 S
C447   C449    1.391   .     A
C447   H475    1.076   .     S
C448   H455    1.084   .     S
C448   C1072   1.395   1_554 S
C449   H466    1.082   .     S
C449   C1074   1.396   .     S
C450   H476    1.083   .     S
C450   C494    1.402   .     S
C451   H456    1.083   .     S
C451   C563    1.402   1_455 S
C451   C2      1.383   1_565 S
C452   H457    1.083   .     S
C452   C30     1.383   1_565 S
Cu453  O483    1.965   .     S
Cu453  N477    2.014   .     S
Cu453  O487    1.958   .     S
Cu453  O486    1.964   .     S
Cu453  O490    1.948   .     S
Cu453  Cu594   2.680   1_455 S
Cu454  O484    1.965   .     S
Cu454  O489    1.948   .     S
Cu454  O485    1.964   .     S
Cu454  O488    1.958   .     S
Cu454  N478    2.014   .     S
Cu454  Cu523   2.680   .     S
H461   N479    1.046   .     S
H462   N479    1.043   .     S
H463   N480    1.045   .     S
H464   N480    1.042   .     S
H465   N481    1.046   .     S
H467   N481    1.046   .     S
H468   N482    1.046   .     S
H469   N482    1.045   .     S
H470   C507    1.083   .     S
H471   C576    1.083   1_455 S
H473   C505    1.083   .     S
O485   C491    1.291   .     S
O486   C572    1.291   1_455 S
O487   C569    1.298   1_455 S
O488   C500    1.303   .     S
C491   C494    1.450   .     S
C491   O553    1.293   .     A
C492   H528    1.083   .     S
C492   C494    1.401   .     A
C493   C522    1.401   .     A
C493   C502    1.450   .     S
C493   C591    1.402   .     S
C495   C497    1.420   .     A
C495   H529    1.081   .     S
C495   N548    1.364   .     A
C496   N547    1.364   .     A
C496   H530    1.082   .     S
C496   C498    1.420   .     A
C497   N551    1.429   .     S
C497   N547    1.371   .     A
C498   N552    1.429   .     S
C498   N548    1.372   .     A
C499   C501    1.467   .     S
C499   O559    1.293   .     A
C499   O627    1.298   .     S
C500   O560    1.294   .     A
C500   C503    1.478   .     S
C501   C508    1.407   .     A
C501   C506    1.400   .     A
C502   O554    1.293   .     A
C502   O626    1.291   .     S
C503   C507    1.403   .     A
C503   C509    1.416   .     A
C504   C512    1.400   .     A
C504   C506    1.390   .     A
C504   H542    1.084   .     S
C505   C514    1.400   .     A
C505   C507    1.392   .     A
C506   H611    1.083   .     S
C508   N550    1.440   .     S
C508   C510    1.419   .     A
C509   N549    1.442   .     S
C509   C511    1.417   .     A
C510   C512    1.419   .     A
C510   C515    1.422   .     A
C511   C516    1.419   .     A
C511   C514    1.415   .     A
C512   C1148   1.395   .     S
C513   C518    1.389   .     A
C513   H544    1.078   .     S
C513   C516    1.410   .     A
C514   C1149   1.396   1_554 S
C515   C517    1.411   .     A
C515   C1146   1.414   .     S
C516   C1145   1.414   1_554 S
C517   C519    1.391   .     A
C517   H545    1.076   .     S
C518   H525    1.084   .     S
C518   C1142   1.395   1_554 S
C519   H536    1.082   .     S
C519   C1144   1.396   .     S
C520   H546    1.083   .     S
C520   C564    1.402   .     S
C521   H526    1.083   .     S
C521   C72     1.383   1_565 S
C522   H527    1.083   .     S
C522   C100    1.383   1_565 S
Cu523  O553    1.965   .     S
Cu523  N547    2.014   .     S
Cu523  O557    1.958   .     S
Cu523  O556    1.964   .     S
Cu523  O560    1.948   .     S
Cu524  O554    1.965   .     S
Cu524  O559    1.948   .     S
Cu524  O555    1.964   .     S
Cu524  O558    1.958   .     S
Cu524  N548    2.014   .     S
Cu524  Cu593   2.680   .     S
H531   N549    1.046   .     S
H532   N549    1.043   .     S
H533   N550    1.045   .     S
H534   N550    1.042   .     S
H535   N551    1.046   .     S
H537   N551    1.046   .     S
H538   N552    1.046   .     S
H539   N552    1.045   .     S
H540   C577    1.083   .     S
H543   C575    1.083   .     S
O555   C561    1.291   .     S
O558   C570    1.303   .     S
C561   C564    1.450   .     S
C561   O623    1.293   .     A
C562   H598    1.083   .     S
C562   C564    1.401   .     A
C563   C592    1.401   .     A
C563   C572    1.450   .     S
C563   C451    1.402   1_655 S
C565   C567    1.420   .     A
C565   H599    1.081   .     S
C565   N618    1.364   .     A
C566   N617    1.364   .     A
C566   H600    1.082   .     S
C566   C568    1.420   .     A
C567   N621    1.429   .     S
C567   N617    1.371   .     A
C568   N622    1.429   .     S
C568   N618    1.372   .     A
C569   C571    1.467   .     S
C569   O629    1.293   .     A
C569   O487    1.298   1_655 S
C570   O630    1.294   .     A
C570   C573    1.478   .     S
C571   C578    1.407   .     A
C571   C576    1.400   .     A
C572   O624    1.293   .     A
C572   O486    1.291   1_655 S
C573   C577    1.403   .     A
C573   C579    1.416   .     A
C574   C582    1.400   .     A
C574   C576    1.390   .     A
C574   H612    1.084   .     S
C575   C584    1.400   .     A
C575   C577    1.392   .     A
C576   H471    1.083   1_655 S
C578   N620    1.440   .     S
C578   C580    1.419   .     A
C579   N619    1.442   .     S
C579   C581    1.417   .     A
C580   C582    1.419   .     A
C580   C585    1.422   .     A
C581   C586    1.419   .     A
C581   C584    1.415   .     A
C582   C1218   1.395   .     S
C583   C588    1.389   .     A
C583   H614    1.078   .     S
C583   C586    1.410   .     A
C584   C1219   1.396   1_554 S
C585   C587    1.411   .     A
C585   C1216   1.414   .     S
C586   C1215   1.414   1_554 S
C587   C589    1.391   .     A
C587   H615    1.076   .     S
C588   H595    1.084   .     S
C588   C1212   1.395   1_554 S
C589   H606    1.082   .     S
C589   C1214   1.396   .     S
C590   H616    1.083   .     S
C590   C424    1.402   1_655 S
C591   H596    1.083   .     S
C591   C142    1.383   1_565 S
C592   H597    1.083   .     S
C592   C170    1.383   1_565 S
Cu593  O623    1.965   .     S
Cu593  N617    2.014   .     S
Cu593  O627    1.958   .     S
Cu593  O626    1.964   .     S
Cu593  O630    1.948   .     S
Cu594  O624    1.965   .     S
Cu594  O629    1.948   .     S
Cu594  O625    1.964   .     S
Cu594  O628    1.958   .     S
Cu594  N618    2.014   .     S
Cu594  Cu453   2.680   1_655 S
H601   N619    1.046   .     S
H602   N619    1.043   .     S
H603   N620    1.045   .     S
H604   N620    1.042   .     S
H605   N621    1.046   .     S
H607   N621    1.046   .     S
H608   N622    1.046   .     S
H609   N622    1.045   .     S
H610   C437    1.083   1_655 S
H613   C435    1.083   1_655 S
O625   C421    1.291   1_655 S
O628   C430    1.303   1_655 S
C631   C634    1.450   .     S
C631   O693    1.293   .     A
C631   O835    1.291   1_455 S
C632   H668    1.083   .     S
C632   C634    1.401   .     A
C632   C1081   1.383   1_545 S
C633   C662    1.401   .     A
C633   C642    1.450   .     S
C633   C731    1.402   .     S
C634   C800    1.402   1_455 S
C635   C637    1.420   .     A
C635   H669    1.081   .     S
C635   N688    1.364   .     A
C636   N687    1.364   .     A
C636   H670    1.082   .     S
C636   C638    1.420   .     A
C637   N691    1.429   .     S
C637   N687    1.371   .     A
C638   N692    1.429   .     S
C638   N688    1.372   .     A
C639   C641    1.467   .     S
C639   O699    1.293   .     A
C639   O767    1.298   .     S
C640   O700    1.294   .     A
C640   C643    1.478   .     S
C640   O838    1.303   1_455 S
C641   C648    1.407   .     A
C641   C646    1.400   .     A
C642   O694    1.293   .     A
C642   O766    1.291   .     S
C643   C647    1.403   .     A
C643   C649    1.416   .     A
C644   C652    1.400   .     A
C644   C646    1.390   .     A
C644   H682    1.084   .     S
C645   C654    1.400   .     A
C645   C647    1.392   .     A
C645   H823    1.083   1_455 S
C646   H751    1.083   .     S
C647   H820    1.083   1_455 S
C648   N690    1.440   .     S
C648   C650    1.419   .     A
C649   N689    1.442   .     S
C649   C651    1.417   .     A
C650   C652    1.419   .     A
C650   C655    1.422   .     A
C651   C656    1.419   .     A
C651   C654    1.415   .     A
C652   C28     1.395   1_556 S
C653   C658    1.389   .     A
C653   H684    1.078   .     S
C653   C656    1.410   .     A
C655   C657    1.411   .     A
C655   C26     1.414   1_556 S
C657   C659    1.391   .     A
C657   H685    1.076   .     S
C658   H665    1.084   .     S
C659   H676    1.082   .     S
C659   C24     1.396   1_556 S
C660   H686    1.083   .     S
C660   C704    1.402   .     S
C660   C1082   1.383   1_545 S
C661   H666    1.083   .     S
C661   C773    1.402   1_455 S
C661   C842    1.383   .     S
C662   H667    1.083   .     S
C662   C870    1.383   .     S
Cu663  O693    1.965   .     S
Cu663  N687    2.014   .     S
Cu663  O697    1.958   .     S
Cu663  O696    1.964   .     S
Cu663  O700    1.948   .     S
Cu663  Cu804   2.680   1_455 S
Cu664  O694    1.965   .     S
Cu664  O699    1.948   .     S
Cu664  O695    1.964   .     S
Cu664  O698    1.958   .     S
Cu664  N688    2.014   .     S
Cu664  Cu733   2.680   .     S
H671   N689    1.046   .     S
H672   N689    1.043   .     S
H673   N690    1.045   .     S
H674   N690    1.042   .     S
H675   N691    1.046   .     S
H677   N691    1.046   .     S
H678   N692    1.046   .     S
H679   N692    1.045   .     S
H680   C717    1.083   .     S
H681   C786    1.083   1_455 S
H683   C715    1.083   .     S
O695   C701    1.291   .     S
O696   C782    1.291   1_455 S
O697   C779    1.298   1_455 S
O698   C710    1.303   .     S
C701   C704    1.450   .     S
C701   O763    1.293   .     A
C702   H738    1.083   .     S
C702   C704    1.401   .     A
C702   C1151   1.383   1_545 S
C703   C732    1.401   .     A
C703   C712    1.450   .     S
C703   C801    1.402   .     S
C705   C707    1.420   .     A
C705   H739    1.081   .     S
C705   N758    1.364   .     A
C706   N757    1.364   .     A
C706   H740    1.082   .     S
C706   C708    1.420   .     A
C707   N761    1.429   .     S
C707   N757    1.371   .     A
C708   N762    1.429   .     S
C708   N758    1.372   .     A
C709   C711    1.467   .     S
C709   O769    1.293   .     A
C709   O837    1.298   .     S
C710   O770    1.294   .     A
C710   C713    1.478   .     S
C711   C718    1.407   .     A
C711   C716    1.400   .     A
C712   O764    1.293   .     A
C712   O836    1.291   .     S
C713   C717    1.403   .     A
C713   C719    1.416   .     A
C714   C722    1.400   .     A
C714   C716    1.390   .     A
C714   H752    1.084   .     S
C715   C724    1.400   .     A
C715   C717    1.392   .     A
C716   H821    1.083   .     S
C718   N760    1.440   .     S
C718   C720    1.419   .     A
C719   N759    1.442   .     S
C719   C721    1.417   .     A
C720   C722    1.419   .     A
C720   C725    1.422   .     A
C721   C726    1.419   .     A
C721   C724    1.415   .     A
C722   C98     1.395   1_556 S
C723   C728    1.389   .     A
C723   H754    1.078   .     S
C723   C726    1.410   .     A
C725   C727    1.411   .     A
C725   C96     1.414   1_556 S
C727   C729    1.391   .     A
C727   H755    1.076   .     S
C728   H735    1.084   .     S
C729   H746    1.082   .     S
C729   C94     1.396   1_556 S
C730   H756    1.083   .     S
C730   C774    1.402   .     S
C730   C1152   1.383   1_545 S
C731   H736    1.083   .     S
C731   C912    1.383   .     S
C732   H737    1.083   .     S
C732   C940    1.383   .     S
Cu733  O763    1.965   .     S
Cu733  N757    2.014   .     S
Cu733  O767    1.958   .     S
Cu733  O766    1.964   .     S
Cu733  O770    1.948   .     S
Cu734  O764    1.965   .     S
Cu734  O769    1.948   .     S
Cu734  O765    1.964   .     S
Cu734  O768    1.958   .     S
Cu734  N758    2.014   .     S
Cu734  Cu803   2.680   .     S
H741   N759    1.046   .     S
H742   N759    1.043   .     S
H743   N760    1.045   .     S
H744   N760    1.042   .     S
H745   N761    1.046   .     S
H747   N761    1.046   .     S
H748   N762    1.046   .     S
H749   N762    1.045   .     S
H750   C787    1.083   .     S
H753   C785    1.083   .     S
O765   C771    1.291   .     S
O768   C780    1.303   .     S
C771   C774    1.450   .     S
C771   O833    1.293   .     A
C772   H808    1.083   .     S
C772   C774    1.401   .     A
C772   C1221   1.383   1_545 S
C773   C802    1.401   .     A
C773   C782    1.450   .     S
C773   C661    1.402   1_655 S
C775   C777    1.420   .     A
C775   H809    1.081   .     S
C775   N828    1.364   .     A
C776   N827    1.364   .     A
C776   H810    1.082   .     S
C776   C778    1.420   .     A
C777   N831    1.429   .     S
C777   N827    1.371   .     A
C778   N832    1.429   .     S
C778   N828    1.372   .     A
C779   C781    1.467   .     S
C779   O839    1.293   .     A
C779   O697    1.298   1_655 S
C780   O840    1.294   .     A
C780   C783    1.478   .     S
C781   C788    1.407   .     A
C781   C786    1.400   .     A
C782   O834    1.293   .     A
C782   O696    1.291   1_655 S
C783   C787    1.403   .     A
C783   C789    1.416   .     A
C784   C792    1.400   .     A
C784   C786    1.390   .     A
C784   H822    1.084   .     S
C785   C794    1.400   .     A
C785   C787    1.392   .     A
C786   H681    1.083   1_655 S
C788   N830    1.440   .     S
C788   C790    1.419   .     A
C789   N829    1.442   .     S
C789   C791    1.417   .     A
C790   C792    1.419   .     A
C790   C795    1.422   .     A
C791   C796    1.419   .     A
C791   C794    1.415   .     A
C792   C168    1.395   1_556 S
C793   C798    1.389   .     A
C793   H824    1.078   .     S
C793   C796    1.410   .     A
C795   C797    1.411   .     A
C795   C166    1.414   1_556 S
C797   C799    1.391   .     A
C797   H825    1.076   .     S
C798   H805    1.084   .     S
C799   H816    1.082   .     S
C799   C164    1.396   1_556 S
C800   H826    1.083   .     S
C800   C634    1.402   1_655 S
C800   C1222   1.383   1_545 S
C801   H806    1.083   .     S
C801   C982    1.383   .     S
C802   H807    1.083   .     S
C802   C1010   1.383   .     S
Cu803  O833    1.965   .     S
Cu803  N827    2.014   .     S
Cu803  O837    1.958   .     S
Cu803  O836    1.964   .     S
Cu803  O840    1.948   .     S
Cu804  O834    1.965   .     S
Cu804  O839    1.948   .     S
Cu804  O835    1.964   .     S
Cu804  O838    1.958   .     S
Cu804  N828    2.014   .     S
Cu804  Cu663   2.680   1_655 S
H811   N829    1.046   .     S
H812   N829    1.043   .     S
H813   N830    1.045   .     S
H814   N830    1.042   .     S
H815   N831    1.046   .     S
H817   N831    1.046   .     S
H818   N832    1.046   .     S
H819   N832    1.045   .     S
H820   C647    1.083   1_655 S
H823   C645    1.083   1_655 S
O835   C631    1.291   1_655 S
O838   C640    1.303   1_655 S
C841   C844    1.450   .     S
C841   O903    1.293   .     A
C841   O1045   1.291   1_455 S
C842   H878    1.083   .     S
C842   C844    1.401   .     A
C843   C872    1.401   .     A
C843   C852    1.450   .     S
C843   C941    1.402   .     S
C844   C1010   1.402   1_455 S
C845   C847    1.420   .     A
C845   H879    1.081   .     S
C845   N898    1.364   .     A
C846   N897    1.364   .     A
C846   H880    1.082   .     S
C846   C848    1.420   .     A
C847   N901    1.429   .     S
C847   N897    1.371   .     A
C848   N902    1.429   .     S
C848   N898    1.372   .     A
C849   C851    1.467   .     S
C849   O909    1.293   .     A
C849   O977    1.298   .     S
C850   O910    1.294   .     A
C850   C853    1.478   .     S
C850   O1048   1.303   1_455 S
C851   C858    1.407   .     A
C851   C856    1.400   .     A
C852   O904    1.293   .     A
C852   O976    1.291   .     S
C853   C857    1.403   .     A
C853   C859    1.416   .     A
C854   C862    1.400   .     A
C854   C856    1.390   .     A
C854   H892    1.084   .     S
C855   C864    1.400   .     A
C855   C857    1.392   .     A
C855   H1033   1.083   1_455 S
C856   H961    1.083   .     S
C857   H1030   1.083   1_455 S
C858   N900    1.440   .     S
C858   C860    1.419   .     A
C859   N899    1.442   .     S
C859   C861    1.417   .     A
C860   C862    1.419   .     A
C860   C865    1.422   .     A
C861   C866    1.419   .     A
C861   C864    1.415   .     A
C862   C238    1.395   1_556 S
C863   C868    1.389   .     A
C863   H894    1.078   .     S
C863   C866    1.410   .     A
C865   C867    1.411   .     A
C865   C236    1.414   1_556 S
C867   C869    1.391   .     A
C867   H895    1.076   .     S
C868   H875    1.084   .     S
C869   H886    1.082   .     S
C869   C234    1.396   1_556 S
C870   H896    1.083   .     S
C870   C914    1.402   .     S
C871   H876    1.083   .     S
C871   C983    1.402   1_455 S
C871   C1052   1.383   .     S
C872   H877    1.083   .     S
C872   C1080   1.383   .     S
Cu873  O903    1.965   .     S
Cu873  N897    2.014   .     S
Cu873  O907    1.958   .     S
Cu873  O906    1.964   .     S
Cu873  O910    1.948   .     S
Cu873  Cu1014  2.680   1_455 S
Cu874  O904    1.965   .     S
Cu874  O909    1.948   .     S
Cu874  O905    1.964   .     S
Cu874  O908    1.958   .     S
Cu874  N898    2.014   .     S
Cu874  Cu943   2.680   .     S
H881   N899    1.046   .     S
H882   N899    1.043   .     S
H883   N900    1.045   .     S
H884   N900    1.042   .     S
H885   N901    1.046   .     S
H887   N901    1.046   .     S
H888   N902    1.046   .     S
H889   N902    1.045   .     S
H890   C927    1.083   .     S
H891   C996    1.083   1_455 S
H893   C925    1.083   .     S
O905   C911    1.291   .     S
O906   C992    1.291   1_455 S
O907   C989    1.298   1_455 S
O908   C920    1.303   .     S
C911   C914    1.450   .     S
C911   O973    1.293   .     A
C912   H948    1.083   .     S
C912   C914    1.401   .     A
C913   C942    1.401   .     A
C913   C922    1.450   .     S
C913   C1011   1.402   .     S
C915   C917    1.420   .     A
C915   H949    1.081   .     S
C915   N968    1.364   .     A
C916   N967    1.364   .     A
C916   H950    1.082   .     S
C916   C918    1.420   .     A
C917   N971    1.429   .     S
C917   N967    1.371   .     A
C918   N972    1.429   .     S
C918   N968    1.372   .     A
C919   C921    1.467   .     S
C919   O979    1.293   .     A
C919   O1047   1.298   .     S
C920   O980    1.294   .     A
C920   C923    1.478   .     S
C921   C928    1.407   .     A
C921   C926    1.400   .     A
C922   O974    1.293   .     A
C922   O1046   1.291   .     S
C923   C927    1.403   .     A
C923   C929    1.416   .     A
C924   C932    1.400   .     A
C924   C926    1.390   .     A
C924   H962    1.084   .     S
C925   C934    1.400   .     A
C925   C927    1.392   .     A
C926   H1031   1.083   .     S
C928   N970    1.440   .     S
C928   C930    1.419   .     A
C929   N969    1.442   .     S
C929   C931    1.417   .     A
C930   C932    1.419   .     A
C930   C935    1.422   .     A
C931   C936    1.419   .     A
C931   C934    1.415   .     A
C932   C308    1.395   1_556 S
C933   C938    1.389   .     A
C933   H964    1.078   .     S
C933   C936    1.410   .     A
C935   C937    1.411   .     A
C935   C306    1.414   1_556 S
C937   C939    1.391   .     A
C937   H965    1.076   .     S
C938   H945    1.084   .     S
C939   H956    1.082   .     S
C939   C304    1.396   1_556 S
C940   H966    1.083   .     S
C940   C984    1.402   .     S
C941   H946    1.083   .     S
C941   C1122   1.383   .     S
C942   H947    1.083   .     S
C942   C1150   1.383   .     S
Cu943  O973    1.965   .     S
Cu943  N967    2.014   .     S
Cu943  O977    1.958   .     S
Cu943  O976    1.964   .     S
Cu943  O980    1.948   .     S
Cu944  O974    1.965   .     S
Cu944  O979    1.948   .     S
Cu944  O975    1.964   .     S
Cu944  O978    1.958   .     S
Cu944  N968    2.014   .     S
Cu944  Cu1013  2.680   .     S
H951   N969    1.046   .     S
H952   N969    1.043   .     S
H953   N970    1.045   .     S
H954   N970    1.042   .     S
H955   N971    1.046   .     S
H957   N971    1.046   .     S
H958   N972    1.046   .     S
H959   N972    1.045   .     S
H960   C997    1.083   .     S
H963   C995    1.083   .     S
O975   C981    1.291   .     S
O978   C990    1.303   .     S
C981   C984    1.450   .     S
C981   O1043   1.293   .     A
C982   H1018   1.083   .     S
C982   C984    1.401   .     A
C983   C1012   1.401   .     A
C983   C992    1.450   .     S
C983   C871    1.402   1_655 S
C985   C987    1.420   .     A
C985   H1019   1.081   .     S
C985   N1038   1.364   .     A
C986   N1037   1.364   .     A
C986   H1020   1.082   .     S
C986   C988    1.420   .     A
C987   N1041   1.429   .     S
C987   N1037   1.371   .     A
C988   N1042   1.429   .     S
C988   N1038   1.372   .     A
C989   C991    1.467   .     S
C989   O1049   1.293   .     A
C989   O907    1.298   1_655 S
C990   O1050   1.294   .     A
C990   C993    1.478   .     S
C991   C998    1.407   .     A
C991   C996    1.400   .     A
C992   O1044   1.293   .     A
C992   O906    1.291   1_655 S
C993   C997    1.403   .     A
C993   C999    1.416   .     A
C994   C1002   1.400   .     A
C994   C996    1.390   .     A
C994   H1032   1.084   .     S
C995   C1004   1.400   .     A
C995   C997    1.392   .     A
C996   H891    1.083   1_655 S
C998   N1040   1.440   .     S
C998   C1000   1.419   .     A
C999   N1039   1.442   .     S
C999   C1001   1.417   .     A
C1000  C1002   1.419   .     A
C1000  C1005   1.422   .     A
C1001  C1006   1.419   .     A
C1001  C1004   1.415   .     A
C1002  C378    1.395   1_556 S
C1003  C1008   1.389   .     A
C1003  H1034   1.078   .     S
C1003  C1006   1.410   .     A
C1005  C1007   1.411   .     A
C1005  C376    1.414   1_556 S
C1007  C1009   1.391   .     A
C1007  H1035   1.076   .     S
C1008  H1015   1.084   .     S
C1009  H1026   1.082   .     S
C1009  C374    1.396   1_556 S
C1010  H1036   1.083   .     S
C1010  C844    1.402   1_655 S
C1011  H1016   1.083   .     S
C1011  C1192   1.383   .     S
C1012  H1017   1.083   .     S
C1012  C1220   1.383   .     S
Cu1013 O1043   1.965   .     S
Cu1013 N1037   2.014   .     S
Cu1013 O1047   1.958   .     S
Cu1013 O1046   1.964   .     S
Cu1013 O1050   1.948   .     S
Cu1014 O1044   1.965   .     S
Cu1014 O1049   1.948   .     S
Cu1014 O1045   1.964   .     S
Cu1014 O1048   1.958   .     S
Cu1014 N1038   2.014   .     S
Cu1014 Cu873   2.680   1_655 S
H1021  N1039   1.046   .     S
H1022  N1039   1.043   .     S
H1023  N1040   1.045   .     S
H1024  N1040   1.042   .     S
H1025  N1041   1.046   .     S
H1027  N1041   1.046   .     S
H1028  N1042   1.046   .     S
H1029  N1042   1.045   .     S
H1030  C857    1.083   1_655 S
H1033  C855    1.083   1_655 S
O1045  C841    1.291   1_655 S
O1048  C850    1.303   1_655 S
C1051  C1054   1.450   .     S
C1051  O1113   1.293   .     A
C1051  O1255   1.291   1_455 S
C1052  H1088   1.083   .     S
C1052  C1054   1.401   .     A
C1053  C1082   1.401   .     A
C1053  C1062   1.450   .     S
C1053  C1151   1.402   .     S
C1054  C1220   1.402   1_455 S
C1055  C1057   1.420   .     A
C1055  H1089   1.081   .     S
C1055  N1108   1.364   .     A
C1056  N1107   1.364   .     A
C1056  H1090   1.082   .     S
C1056  C1058   1.420   .     A
C1057  N1111   1.429   .     S
C1057  N1107   1.371   .     A
C1058  N1112   1.429   .     S
C1058  N1108   1.372   .     A
C1059  C1061   1.467   .     S
C1059  O1119   1.293   .     A
C1059  O1187   1.298   .     S
C1060  O1120   1.294   .     A
C1060  C1063   1.478   .     S
C1060  O1258   1.303   1_455 S
C1061  C1068   1.407   .     A
C1061  C1066   1.400   .     A
C1062  O1114   1.293   .     A
C1062  O1186   1.291   .     S
C1063  C1067   1.403   .     A
C1063  C1069   1.416   .     A
C1064  C1072   1.400   .     A
C1064  C1066   1.390   .     A
C1064  H1102   1.084   .     S
C1065  C1074   1.400   .     A
C1065  C1067   1.392   .     A
C1065  H1243   1.083   1_455 S
C1066  H1171   1.083   .     S
C1067  H1240   1.083   1_455 S
C1068  N1110   1.440   .     S
C1068  C1070   1.419   .     A
C1069  N1109   1.442   .     S
C1069  C1071   1.417   .     A
C1070  C1072   1.419   .     A
C1070  C1075   1.422   .     A
C1071  C1076   1.419   .     A
C1071  C1074   1.415   .     A
C1072  C448    1.395   1_556 S
C1073  C1078   1.389   .     A
C1073  H1104   1.078   .     S
C1073  C1076   1.410   .     A
C1075  C1077   1.411   .     A
C1075  C446    1.414   1_556 S
C1077  C1079   1.391   .     A
C1077  H1105   1.076   .     S
C1078  H1085   1.084   .     S
C1079  H1096   1.082   .     S
C1079  C444    1.396   1_556 S
C1080  H1106   1.083   .     S
C1080  C1124   1.402   .     S
C1081  H1086   1.083   .     S
C1081  C1193   1.402   1_455 S
C1081  C632    1.383   1_565 S
C1082  H1087   1.083   .     S
C1082  C660    1.383   1_565 S
Cu1083 O1113   1.965   .     S
Cu1083 N1107   2.014   .     S
Cu1083 O1117   1.958   .     S
Cu1083 O1116   1.964   .     S
Cu1083 O1120   1.948   .     S
Cu1083 Cu1224  2.680   1_455 S
Cu1084 O1114   1.965   .     S
Cu1084 O1119   1.948   .     S
Cu1084 O1115   1.964   .     S
Cu1084 O1118   1.958   .     S
Cu1084 N1108   2.014   .     S
Cu1084 Cu1153  2.680   .     S
H1091  N1109   1.046   .     S
H1092  N1109   1.043   .     S
H1093  N1110   1.045   .     S
H1094  N1110   1.042   .     S
H1095  N1111   1.046   .     S
H1097  N1111   1.046   .     S
H1098  N1112   1.046   .     S
H1099  N1112   1.045   .     S
H1100  C1137   1.083   .     S
H1101  C1206   1.083   1_455 S
H1103  C1135   1.083   .     S
O1115  C1121   1.291   .     S
O1116  C1202   1.291   1_455 S
O1117  C1199   1.298   1_455 S
O1118  C1130   1.303   .     S
C1121  C1124   1.450   .     S
C1121  O1183   1.293   .     A
C1122  H1158   1.083   .     S
C1122  C1124   1.401   .     A
C1123  C1152   1.401   .     A
C1123  C1132   1.450   .     S
C1123  C1221   1.402   .     S
C1125  C1127   1.420   .     A
C1125  H1159   1.081   .     S
C1125  N1178   1.364   .     A
C1126  N1177   1.364   .     A
C1126  H1160   1.082   .     S
C1126  C1128   1.420   .     A
C1127  N1181   1.429   .     S
C1127  N1177   1.371   .     A
C1128  N1182   1.429   .     S
C1128  N1178   1.372   .     A
C1129  C1131   1.467   .     S
C1129  O1189   1.293   .     A
C1129  O1257   1.298   .     S
C1130  O1190   1.294   .     A
C1130  C1133   1.478   .     S
C1131  C1138   1.407   .     A
C1131  C1136   1.400   .     A
C1132  O1184   1.293   .     A
C1132  O1256   1.291   .     S
C1133  C1137   1.403   .     A
C1133  C1139   1.416   .     A
C1134  C1142   1.400   .     A
C1134  C1136   1.390   .     A
C1134  H1172   1.084   .     S
C1135  C1144   1.400   .     A
C1135  C1137   1.392   .     A
C1136  H1241   1.083   .     S
C1138  N1180   1.440   .     S
C1138  C1140   1.419   .     A
C1139  N1179   1.442   .     S
C1139  C1141   1.417   .     A
C1140  C1142   1.419   .     A
C1140  C1145   1.422   .     A
C1141  C1146   1.419   .     A
C1141  C1144   1.415   .     A
C1142  C518    1.395   1_556 S
C1143  C1148   1.389   .     A
C1143  H1174   1.078   .     S
C1143  C1146   1.410   .     A
C1145  C1147   1.411   .     A
C1145  C516    1.414   1_556 S
C1147  C1149   1.391   .     A
C1147  H1175   1.076   .     S
C1148  H1155   1.084   .     S
C1149  H1166   1.082   .     S
C1149  C514    1.396   1_556 S
C1150  H1176   1.083   .     S
C1150  C1194   1.402   .     S
C1151  H1156   1.083   .     S
C1151  C702    1.383   1_565 S
C1152  H1157   1.083   .     S
C1152  C730    1.383   1_565 S
Cu1153 O1183   1.965   .     S
Cu1153 N1177   2.014   .     S
Cu1153 O1187   1.958   .     S
Cu1153 O1186   1.964   .     S
Cu1153 O1190   1.948   .     S
Cu1154 O1184   1.965   .     S
Cu1154 O1189   1.948   .     S
Cu1154 O1185   1.964   .     S
Cu1154 O1188   1.958   .     S
Cu1154 N1178   2.014   .     S
Cu1154 Cu1223  2.680   .     S
H1161  N1179   1.046   .     S
H1162  N1179   1.043   .     S
H1163  N1180   1.045   .     S
H1164  N1180   1.042   .     S
H1165  N1181   1.046   .     S
H1167  N1181   1.046   .     S
H1168  N1182   1.046   .     S
H1169  N1182   1.045   .     S
H1170  C1207   1.083   .     S
H1173  C1205   1.083   .     S
O1185  C1191   1.291   .     S
O1188  C1200   1.303   .     S
C1191  C1194   1.450   .     S
C1191  O1253   1.293   .     A
C1192  H1228   1.083   .     S
C1192  C1194   1.401   .     A
C1193  C1222   1.401   .     A
C1193  C1202   1.450   .     S
C1193  C1081   1.402   1_655 S
C1195  C1197   1.420   .     A
C1195  H1229   1.081   .     S
C1195  N1248   1.364   .     A
C1196  N1247   1.364   .     A
C1196  H1230   1.082   .     S
C1196  C1198   1.420   .     A
C1197  N1251   1.429   .     S
C1197  N1247   1.371   .     A
C1198  N1252   1.429   .     S
C1198  N1248   1.372   .     A
C1199  C1201   1.467   .     S
C1199  O1259   1.293   .     A
C1199  O1117   1.298   1_655 S
C1200  O1260   1.294   .     A
C1200  C1203   1.478   .     S
C1201  C1208   1.407   .     A
C1201  C1206   1.400   .     A
C1202  O1254   1.293   .     A
C1202  O1116   1.291   1_655 S
C1203  C1207   1.403   .     A
C1203  C1209   1.416   .     A
C1204  C1212   1.400   .     A
C1204  C1206   1.390   .     A
C1204  H1242   1.084   .     S
C1205  C1214   1.400   .     A
C1205  C1207   1.392   .     A
C1206  H1101   1.083   1_655 S
C1208  N1250   1.440   .     S
C1208  C1210   1.419   .     A
C1209  N1249   1.442   .     S
C1209  C1211   1.417   .     A
C1210  C1212   1.419   .     A
C1210  C1215   1.422   .     A
C1211  C1216   1.419   .     A
C1211  C1214   1.415   .     A
C1212  C588    1.395   1_556 S
C1213  C1218   1.389   .     A
C1213  H1244   1.078   .     S
C1213  C1216   1.410   .     A
C1215  C1217   1.411   .     A
C1215  C586    1.414   1_556 S
C1217  C1219   1.391   .     A
C1217  H1245   1.076   .     S
C1218  H1225   1.084   .     S
C1219  H1236   1.082   .     S
C1219  C584    1.396   1_556 S
C1220  H1246   1.083   .     S
C1220  C1054   1.402   1_655 S
C1221  H1226   1.083   .     S
C1221  C772    1.383   1_565 S
C1222  H1227   1.083   .     S
C1222  C800    1.383   1_565 S
Cu1223 O1253   1.965   .     S
Cu1223 N1247   2.014   .     S
Cu1223 O1257   1.958   .     S
Cu1223 O1256   1.964   .     S
Cu1223 O1260   1.948   .     S
Cu1224 O1254   1.965   .     S
Cu1224 O1259   1.948   .     S
Cu1224 O1255   1.964   .     S
Cu1224 O1258   1.958   .     S
Cu1224 N1248   2.014   .     S
Cu1224 Cu1083  2.680   1_655 S
H1231  N1249   1.046   .     S
H1232  N1249   1.043   .     S
H1233  N1250   1.045   .     S
H1234  N1250   1.042   .     S
H1235  N1251   1.046   .     S
H1237  N1251   1.046   .     S
H1238  N1252   1.046   .     S
H1239  N1252   1.045   .     S
H1240  C1067   1.083   1_655 S
H1243  C1065   1.083   1_655 S
O1255  C1051   1.291   1_655 S
O1258  C1060   1.303   1_655 S
