data_str_m2_o1_o16_pcu_sym.178
_audit_creation_date              2020-01-03
_audit_creation_method            'Materials Studio'
_symmetry_space_group_name_H-M    'P1'
_symmetry_Int_Tables_number       1
_symmetry_cell_setting            triclinic
loop_
_symmetry_equiv_pos_as_xyz
  x,y,z
_cell_length_a                    28.5584
_cell_length_b                    32.5101
_cell_length_c                    26.9360
_cell_angle_alpha                 90.1918
_cell_angle_beta                  73.1698
_cell_angle_gamma                 90.2837
loop_
_atom_site_label
_atom_site_type_symbol
_atom_site_fract_x
_atom_site_fract_y
_atom_site_fract_z
_atom_site_U_iso_or_equiv
_atom_site_adp_type
_atom_site_occupancy
C1     C     0.16670   0.24592   0.25029   0.00000  Uiso   1.00
C2     C     0.14873   0.14595   0.48738   0.00000  Uiso   1.00
C3     C     0.16400   0.14625   0.43237   0.00000  Uiso   1.00
C4     C     0.18431   0.15255   0.01430   0.00000  Uiso   1.00
C5     C     0.23440   0.15624   0.48591   0.00000  Uiso   1.00
C6     C     0.24918   0.14858   0.43298   0.00000  Uiso   1.00
C7     C     0.21459   0.14175   0.40703   0.00000  Uiso   1.00
C8     C     0.17163   0.15728   0.06829   0.00000  Uiso   1.00
C9     C     0.25626   0.17016   0.06457   0.00000  Uiso   1.00
C10    C     0.12804   0.15041   0.40516   0.00000  Uiso   1.00
C11    C     0.21066   0.31229   0.23796   0.00000  Uiso   1.00
C12    C     0.14123   0.16161   0.34944   0.00000  Uiso   1.00
C13    C     0.21016   0.02149   0.23830   0.00000  Uiso   1.00
C14    C     0.16553   0.04261   0.25134   0.00000  Uiso   1.00
C15    C     0.12082   0.02068   0.26416   0.00000  Uiso   1.00
C16    C     0.12187   0.31123   0.26472   0.00000  Uiso   1.00
C17    C     0.16652   0.29043   0.25089   0.00000  Uiso   1.00
C18    C     0.29922   0.19017   0.28465   0.00000  Uiso   1.00
C19    C     0.01547   0.19009   0.28472   0.00000  Uiso   1.00
C20    C     0.03413   0.14325   0.21525   0.00000  Uiso   1.00
C21    C     0.31784   0.14319   0.21533   0.00000  Uiso   1.00
C22    C     0.16628   0.08733   0.25064   0.00000  Uiso   1.00
C23    C     0.19261   0.16675   0.15012   0.00000  Uiso   1.00
C24    C     0.26948   0.16646   0.01092   0.00000  Uiso   1.00
C25    C     0.20734   0.16490   0.09349   0.00000  Uiso   1.00
C26    C     0.07864   0.14402   0.43221   0.00000  Uiso   1.00
C27    C     0.06479   0.13596   0.48516   0.00000  Uiso   1.00
C28    C     0.09875   0.13864   0.01296   0.00000  Uiso   1.00
Cu29   Cu    0.11978   0.16666   0.25000   0.00000  Uiso   1.00
Cu30   Cu    0.21355   0.16667   0.25000   0.00000  Uiso   1.00
H31    H     0.28418   0.17718   0.08332   0.00000  Uiso   1.00
H32    H     0.24479   0.03783   0.22788   0.00000  Uiso   1.00
H33    H     0.08768   0.29432   0.27683   0.00000  Uiso   1.00
H34    H     0.27310   0.20903   0.31240   0.00000  Uiso   1.00
H35    H     0.02669   0.20888   0.31251   0.00000  Uiso   1.00
H36    H     0.06028   0.12444   0.18744   0.00000  Uiso   1.00
H37    H     0.30660   0.12431   0.18763   0.00000  Uiso   1.00
H38    H     0.28769   0.14750   0.41154   0.00000  Uiso   1.00
H39    H     0.30701   0.17190   0.48865   0.00000  Uiso   1.00
H40    H     0.13408   0.15544   0.09160   0.00000  Uiso   1.00
H41    H     0.05070   0.14451   0.41228   0.00000  Uiso   1.00
H42    H     0.08494   0.13347   0.05414   0.00000  Uiso   1.00
H43    H     0.02728   0.12836   0.00538   0.00000  Uiso   1.00
H44    H     0.22884   0.13142   0.36753   0.00000  Uiso   1.00
H45    H     0.24552   0.29655   0.22724   0.00000  Uiso   1.00
N46    N     0.04931   0.16666   0.24998   0.00000  Uiso   1.00
N47    N     0.28402   0.16669   0.25000   0.00000  Uiso   1.00
O48    O     0.12708   0.22678   0.25000   0.00000  Uiso   1.00
O49    O     0.20627   0.22679   0.25000   0.00000  Uiso   1.00
O50    O     0.10775   0.16665   0.32549   0.00000  Uiso   1.00
O51    O     0.18694   0.16666   0.32549   0.00000  Uiso   1.00
O52    O     0.12706   0.10654   0.24999   0.00000  Uiso   1.00
O53    O     0.20625   0.10655   0.25000   0.00000  Uiso   1.00
O54    O     0.14640   0.16667   0.17451   0.00000  Uiso   1.00
O55    O     0.22559   0.16668   0.17451   0.00000  Uiso   1.00
O56    O     0.07649   0.04101   0.28128   0.00000  Uiso   1.00
C57    C     0.05004   0.03551   0.24485   0.00000  Uiso   1.00
H58    H     0.07216   0.04445   0.20504   0.00000  Uiso   1.00
H59    H     0.01747   0.05574   0.25589   0.00000  Uiso   1.00
H60    H     0.03657   0.00336   0.24506   0.00000  Uiso   1.00
C61    C     0.50003   0.24592   0.25029   0.00000  Uiso   1.00
C62    C     0.48207   0.14595   0.48738   0.00000  Uiso   1.00
C63    C     0.49733   0.14625   0.43237   0.00000  Uiso   1.00
C64    C     0.51764   0.15255   0.01430   0.00000  Uiso   1.00
C65    C     0.56773   0.15624   0.48591   0.00000  Uiso   1.00
C66    C     0.58251   0.14858   0.43298   0.00000  Uiso   1.00
C67    C     0.54793   0.14175   0.40703   0.00000  Uiso   1.00
C68    C     0.50496   0.15728   0.06829   0.00000  Uiso   1.00
C69    C     0.58959   0.17016   0.06457   0.00000  Uiso   1.00
C70    C     0.46137   0.15041   0.40516   0.00000  Uiso   1.00
C71    C     0.54399   0.31229   0.23796   0.00000  Uiso   1.00
C72    C     0.47456   0.16161   0.34944   0.00000  Uiso   1.00
C73    C     0.54349   0.02149   0.23830   0.00000  Uiso   1.00
C74    C     0.49887   0.04261   0.25134   0.00000  Uiso   1.00
C75    C     0.45415   0.02068   0.26416   0.00000  Uiso   1.00
C76    C     0.45520   0.31123   0.26472   0.00000  Uiso   1.00
C77    C     0.49986   0.29043   0.25089   0.00000  Uiso   1.00
C78    C     0.63256   0.19017   0.28465   0.00000  Uiso   1.00
C79    C     0.34881   0.19009   0.28472   0.00000  Uiso   1.00
C80    C     0.36747   0.14325   0.21525   0.00000  Uiso   1.00
C81    C     0.65117   0.14319   0.21533   0.00000  Uiso   1.00
C82    C     0.49961   0.08733   0.25064   0.00000  Uiso   1.00
C83    C     0.52594   0.16675   0.15012   0.00000  Uiso   1.00
C84    C     0.60281   0.16646   0.01092   0.00000  Uiso   1.00
C85    C     0.54067   0.16490   0.09349   0.00000  Uiso   1.00
C86    C     0.41197   0.14402   0.43221   0.00000  Uiso   1.00
C87    C     0.39812   0.13596   0.48516   0.00000  Uiso   1.00
C88    C     0.43208   0.13864   0.01296   0.00000  Uiso   1.00
Cu89   Cu    0.45311   0.16666   0.25000   0.00000  Uiso   1.00
Cu90   Cu    0.54689   0.16667   0.25000   0.00000  Uiso   1.00
H91    H     0.61751   0.17718   0.08332   0.00000  Uiso   1.00
H92    H     0.57812   0.03783   0.22788   0.00000  Uiso   1.00
H93    H     0.42101   0.29432   0.27683   0.00000  Uiso   1.00
H94    H     0.60643   0.20903   0.31240   0.00000  Uiso   1.00
H95    H     0.36003   0.20888   0.31251   0.00000  Uiso   1.00
H96    H     0.39361   0.12444   0.18744   0.00000  Uiso   1.00
H97    H     0.63993   0.12431   0.18763   0.00000  Uiso   1.00
H98    H     0.62102   0.14750   0.41154   0.00000  Uiso   1.00
H99    H     0.64035   0.17190   0.48865   0.00000  Uiso   1.00
H100   H     0.46741   0.15544   0.09160   0.00000  Uiso   1.00
H101   H     0.38403   0.14451   0.41228   0.00000  Uiso   1.00
H102   H     0.41828   0.13347   0.05414   0.00000  Uiso   1.00
H103   H     0.36062   0.12836   0.00538   0.00000  Uiso   1.00
H104   H     0.56218   0.13142   0.36753   0.00000  Uiso   1.00
H105   H     0.57885   0.29655   0.22724   0.00000  Uiso   1.00
N106   N     0.38265   0.16666   0.24998   0.00000  Uiso   1.00
N107   N     0.61735   0.16669   0.25000   0.00000  Uiso   1.00
O108   O     0.46042   0.22678   0.25000   0.00000  Uiso   1.00
O109   O     0.53961   0.22679   0.25000   0.00000  Uiso   1.00
O110   O     0.44108   0.16665   0.32549   0.00000  Uiso   1.00
O111   O     0.52027   0.16666   0.32549   0.00000  Uiso   1.00
O112   O     0.46039   0.10654   0.24999   0.00000  Uiso   1.00
O113   O     0.53958   0.10655   0.25000   0.00000  Uiso   1.00
O114   O     0.47973   0.16667   0.17451   0.00000  Uiso   1.00
O115   O     0.55892   0.16668   0.17451   0.00000  Uiso   1.00
O116   O     0.40982   0.04101   0.28128   0.00000  Uiso   1.00
C117   C     0.38337   0.03551   0.24485   0.00000  Uiso   1.00
H118   H     0.40549   0.04445   0.20504   0.00000  Uiso   1.00
H119   H     0.35080   0.05574   0.25589   0.00000  Uiso   1.00
H120   H     0.36990   0.00336   0.24506   0.00000  Uiso   1.00
C121   C     0.83336   0.24592   0.25029   0.00000  Uiso   1.00
C122   C     0.81540   0.14595   0.48738   0.00000  Uiso   1.00
C123   C     0.83066   0.14625   0.43237   0.00000  Uiso   1.00
C124   C     0.85097   0.15255   0.01430   0.00000  Uiso   1.00
C125   C     0.90107   0.15624   0.48591   0.00000  Uiso   1.00
C126   C     0.91585   0.14858   0.43298   0.00000  Uiso   1.00
C127   C     0.88126   0.14175   0.40703   0.00000  Uiso   1.00
C128   C     0.83830   0.15728   0.06829   0.00000  Uiso   1.00
C129   C     0.92293   0.17016   0.06457   0.00000  Uiso   1.00
C130   C     0.79471   0.15041   0.40516   0.00000  Uiso   1.00
C131   C     0.87732   0.31229   0.23796   0.00000  Uiso   1.00
C132   C     0.80789   0.16161   0.34944   0.00000  Uiso   1.00
C133   C     0.87682   0.02149   0.23830   0.00000  Uiso   1.00
C134   C     0.83220   0.04261   0.25134   0.00000  Uiso   1.00
C135   C     0.78749   0.02068   0.26416   0.00000  Uiso   1.00
C136   C     0.78853   0.31123   0.26472   0.00000  Uiso   1.00
C137   C     0.83319   0.29043   0.25089   0.00000  Uiso   1.00
C138   C     0.96589   0.19017   0.28465   0.00000  Uiso   1.00
C139   C     0.68214   0.19009   0.28472   0.00000  Uiso   1.00
C140   C     0.70080   0.14325   0.21525   0.00000  Uiso   1.00
C141   C     0.98451   0.14319   0.21533   0.00000  Uiso   1.00
C142   C     0.83294   0.08733   0.25064   0.00000  Uiso   1.00
C143   C     0.85927   0.16675   0.15012   0.00000  Uiso   1.00
C144   C     0.93614   0.16646   0.01092   0.00000  Uiso   1.00
C145   C     0.87401   0.16490   0.09349   0.00000  Uiso   1.00
C146   C     0.74530   0.14402   0.43221   0.00000  Uiso   1.00
C147   C     0.73146   0.13596   0.48516   0.00000  Uiso   1.00
C148   C     0.76542   0.13864   0.01296   0.00000  Uiso   1.00
Cu149  Cu    0.78645   0.16666   0.25000   0.00000  Uiso   1.00
Cu150  Cu    0.88022   0.16667   0.25000   0.00000  Uiso   1.00
H151   H     0.95085   0.17718   0.08332   0.00000  Uiso   1.00
H152   H     0.91145   0.03783   0.22788   0.00000  Uiso   1.00
H153   H     0.75434   0.29432   0.27683   0.00000  Uiso   1.00
H154   H     0.93977   0.20903   0.31240   0.00000  Uiso   1.00
H155   H     0.69336   0.20888   0.31251   0.00000  Uiso   1.00
H156   H     0.72694   0.12444   0.18744   0.00000  Uiso   1.00
H157   H     0.97327   0.12431   0.18763   0.00000  Uiso   1.00
H158   H     0.95435   0.14750   0.41154   0.00000  Uiso   1.00
H159   H     0.97368   0.17190   0.48865   0.00000  Uiso   1.00
H160   H     0.80074   0.15544   0.09160   0.00000  Uiso   1.00
H161   H     0.71737   0.14451   0.41228   0.00000  Uiso   1.00
H162   H     0.75161   0.13347   0.05414   0.00000  Uiso   1.00
H163   H     0.69395   0.12836   0.00538   0.00000  Uiso   1.00
H164   H     0.89551   0.13142   0.36753   0.00000  Uiso   1.00
H165   H     0.91218   0.29655   0.22724   0.00000  Uiso   1.00
N166   N     0.71598   0.16666   0.24998   0.00000  Uiso   1.00
N167   N     0.95069   0.16669   0.25000   0.00000  Uiso   1.00
O168   O     0.79375   0.22678   0.25000   0.00000  Uiso   1.00
O169   O     0.87294   0.22679   0.25000   0.00000  Uiso   1.00
O170   O     0.77441   0.16665   0.32549   0.00000  Uiso   1.00
O171   O     0.85360   0.16666   0.32549   0.00000  Uiso   1.00
O172   O     0.79373   0.10654   0.24999   0.00000  Uiso   1.00
O173   O     0.87292   0.10655   0.25000   0.00000  Uiso   1.00
O174   O     0.81306   0.16667   0.17451   0.00000  Uiso   1.00
O175   O     0.89225   0.16668   0.17451   0.00000  Uiso   1.00
O176   O     0.74315   0.04101   0.28128   0.00000  Uiso   1.00
C177   C     0.71670   0.03551   0.24485   0.00000  Uiso   1.00
H178   H     0.73883   0.04445   0.20504   0.00000  Uiso   1.00
H179   H     0.68414   0.05574   0.25589   0.00000  Uiso   1.00
H180   H     0.70324   0.00336   0.24506   0.00000  Uiso   1.00
C181   C     0.16670   0.57925   0.25029   0.00000  Uiso   1.00
C182   C     0.14873   0.47929   0.48738   0.00000  Uiso   1.00
C183   C     0.16400   0.47959   0.43237   0.00000  Uiso   1.00
C184   C     0.18431   0.48589   0.01430   0.00000  Uiso   1.00
C185   C     0.23440   0.48958   0.48591   0.00000  Uiso   1.00
C186   C     0.24918   0.48191   0.43298   0.00000  Uiso   1.00
C187   C     0.21459   0.47508   0.40703   0.00000  Uiso   1.00
C188   C     0.17163   0.49061   0.06829   0.00000  Uiso   1.00
C189   C     0.25626   0.50350   0.06457   0.00000  Uiso   1.00
C190   C     0.12804   0.48374   0.40516   0.00000  Uiso   1.00
C191   C     0.21066   0.64562   0.23796   0.00000  Uiso   1.00
C192   C     0.14123   0.49494   0.34944   0.00000  Uiso   1.00
C193   C     0.21016   0.35482   0.23830   0.00000  Uiso   1.00
C194   C     0.16553   0.37594   0.25134   0.00000  Uiso   1.00
C195   C     0.12082   0.35401   0.26416   0.00000  Uiso   1.00
C196   C     0.12187   0.64456   0.26472   0.00000  Uiso   1.00
C197   C     0.16652   0.62377   0.25089   0.00000  Uiso   1.00
C198   C     0.29922   0.52350   0.28465   0.00000  Uiso   1.00
C199   C     0.01547   0.52342   0.28472   0.00000  Uiso   1.00
C200   C     0.03413   0.47658   0.21525   0.00000  Uiso   1.00
C201   C     0.31784   0.47652   0.21533   0.00000  Uiso   1.00
C202   C     0.16628   0.42066   0.25064   0.00000  Uiso   1.00
C203   C     0.19261   0.50008   0.15012   0.00000  Uiso   1.00
C204   C     0.26948   0.49980   0.01092   0.00000  Uiso   1.00
C205   C     0.20734   0.49824   0.09349   0.00000  Uiso   1.00
C206   C     0.07864   0.47736   0.43221   0.00000  Uiso   1.00
C207   C     0.06479   0.46929   0.48516   0.00000  Uiso   1.00
C208   C     0.09875   0.47198   0.01296   0.00000  Uiso   1.00
Cu209  Cu    0.11978   0.49999   0.25000   0.00000  Uiso   1.00
Cu210  Cu    0.21355   0.50001   0.25000   0.00000  Uiso   1.00
H211   H     0.28418   0.51051   0.08332   0.00000  Uiso   1.00
H212   H     0.24479   0.37116   0.22788   0.00000  Uiso   1.00
H213   H     0.08768   0.62765   0.27683   0.00000  Uiso   1.00
H214   H     0.27310   0.54237   0.31240   0.00000  Uiso   1.00
H215   H     0.02669   0.54222   0.31251   0.00000  Uiso   1.00
H216   H     0.06028   0.45778   0.18744   0.00000  Uiso   1.00
H217   H     0.30660   0.45764   0.18763   0.00000  Uiso   1.00
H218   H     0.28769   0.48083   0.41154   0.00000  Uiso   1.00
H219   H     0.30701   0.50523   0.48865   0.00000  Uiso   1.00
H220   H     0.13408   0.48877   0.09160   0.00000  Uiso   1.00
H221   H     0.05070   0.47784   0.41228   0.00000  Uiso   1.00
H222   H     0.08494   0.46681   0.05414   0.00000  Uiso   1.00
H223   H     0.02728   0.46169   0.00538   0.00000  Uiso   1.00
H224   H     0.22884   0.46475   0.36753   0.00000  Uiso   1.00
H225   H     0.24552   0.62989   0.22724   0.00000  Uiso   1.00
N226   N     0.04931   0.49999   0.24998   0.00000  Uiso   1.00
N227   N     0.28402   0.50002   0.25000   0.00000  Uiso   1.00
O228   O     0.12708   0.56011   0.25000   0.00000  Uiso   1.00
O229   O     0.20627   0.56012   0.25000   0.00000  Uiso   1.00
O230   O     0.10775   0.49998   0.32549   0.00000  Uiso   1.00
O231   O     0.18694   0.49999   0.32549   0.00000  Uiso   1.00
O232   O     0.12706   0.43988   0.24999   0.00000  Uiso   1.00
O233   O     0.20625   0.43989   0.25000   0.00000  Uiso   1.00
O234   O     0.14640   0.50001   0.17451   0.00000  Uiso   1.00
O235   O     0.22559   0.50002   0.17451   0.00000  Uiso   1.00
O236   O     0.07649   0.37434   0.28128   0.00000  Uiso   1.00
C237   C     0.05004   0.36884   0.24485   0.00000  Uiso   1.00
H238   H     0.07216   0.37778   0.20504   0.00000  Uiso   1.00
H239   H     0.01747   0.38907   0.25589   0.00000  Uiso   1.00
H240   H     0.03657   0.33670   0.24506   0.00000  Uiso   1.00
C241   C     0.50003   0.57925   0.25029   0.00000  Uiso   1.00
C242   C     0.48207   0.47929   0.48738   0.00000  Uiso   1.00
C243   C     0.49733   0.47959   0.43237   0.00000  Uiso   1.00
C244   C     0.51764   0.48589   0.01430   0.00000  Uiso   1.00
C245   C     0.56773   0.48958   0.48591   0.00000  Uiso   1.00
C246   C     0.58251   0.48191   0.43298   0.00000  Uiso   1.00
C247   C     0.54793   0.47508   0.40703   0.00000  Uiso   1.00
C248   C     0.50496   0.49061   0.06829   0.00000  Uiso   1.00
C249   C     0.58959   0.50350   0.06457   0.00000  Uiso   1.00
C250   C     0.46137   0.48374   0.40516   0.00000  Uiso   1.00
C251   C     0.54399   0.64562   0.23796   0.00000  Uiso   1.00
C252   C     0.47456   0.49494   0.34944   0.00000  Uiso   1.00
C253   C     0.54349   0.35482   0.23830   0.00000  Uiso   1.00
C254   C     0.49887   0.37594   0.25134   0.00000  Uiso   1.00
C255   C     0.45415   0.35401   0.26416   0.00000  Uiso   1.00
C256   C     0.45520   0.64456   0.26472   0.00000  Uiso   1.00
C257   C     0.49986   0.62377   0.25089   0.00000  Uiso   1.00
C258   C     0.63256   0.52350   0.28465   0.00000  Uiso   1.00
C259   C     0.34881   0.52342   0.28472   0.00000  Uiso   1.00
C260   C     0.36747   0.47658   0.21525   0.00000  Uiso   1.00
C261   C     0.65117   0.47652   0.21533   0.00000  Uiso   1.00
C262   C     0.49961   0.42066   0.25064   0.00000  Uiso   1.00
C263   C     0.52594   0.50008   0.15012   0.00000  Uiso   1.00
C264   C     0.60281   0.49980   0.01092   0.00000  Uiso   1.00
C265   C     0.54067   0.49824   0.09349   0.00000  Uiso   1.00
C266   C     0.41197   0.47736   0.43221   0.00000  Uiso   1.00
C267   C     0.39812   0.46929   0.48516   0.00000  Uiso   1.00
C268   C     0.43208   0.47198   0.01296   0.00000  Uiso   1.00
Cu269  Cu    0.45311   0.49999   0.25000   0.00000  Uiso   1.00
Cu270  Cu    0.54689   0.50001   0.25000   0.00000  Uiso   1.00
H271   H     0.61751   0.51051   0.08332   0.00000  Uiso   1.00
H272   H     0.57812   0.37116   0.22788   0.00000  Uiso   1.00
H273   H     0.42101   0.62765   0.27683   0.00000  Uiso   1.00
H274   H     0.60643   0.54237   0.31240   0.00000  Uiso   1.00
H275   H     0.36003   0.54222   0.31251   0.00000  Uiso   1.00
H276   H     0.39361   0.45778   0.18744   0.00000  Uiso   1.00
H277   H     0.63993   0.45764   0.18763   0.00000  Uiso   1.00
H278   H     0.62102   0.48083   0.41154   0.00000  Uiso   1.00
H279   H     0.64035   0.50523   0.48865   0.00000  Uiso   1.00
H280   H     0.46741   0.48877   0.09160   0.00000  Uiso   1.00
H281   H     0.38403   0.47784   0.41228   0.00000  Uiso   1.00
H282   H     0.41828   0.46681   0.05414   0.00000  Uiso   1.00
H283   H     0.36062   0.46169   0.00538   0.00000  Uiso   1.00
H284   H     0.56218   0.46475   0.36753   0.00000  Uiso   1.00
H285   H     0.57885   0.62989   0.22724   0.00000  Uiso   1.00
N286   N     0.38265   0.49999   0.24998   0.00000  Uiso   1.00
N287   N     0.61735   0.50002   0.25000   0.00000  Uiso   1.00
O288   O     0.46042   0.56011   0.25000   0.00000  Uiso   1.00
O289   O     0.53961   0.56012   0.25000   0.00000  Uiso   1.00
O290   O     0.44108   0.49998   0.32549   0.00000  Uiso   1.00
O291   O     0.52027   0.49999   0.32549   0.00000  Uiso   1.00
O292   O     0.46039   0.43988   0.24999   0.00000  Uiso   1.00
O293   O     0.53958   0.43989   0.25000   0.00000  Uiso   1.00
O294   O     0.47973   0.50001   0.17451   0.00000  Uiso   1.00
O295   O     0.55892   0.50002   0.17451   0.00000  Uiso   1.00
O296   O     0.40982   0.37434   0.28128   0.00000  Uiso   1.00
C297   C     0.38337   0.36884   0.24485   0.00000  Uiso   1.00
H298   H     0.40549   0.37778   0.20504   0.00000  Uiso   1.00
H299   H     0.35080   0.38907   0.25589   0.00000  Uiso   1.00
H300   H     0.36990   0.33670   0.24506   0.00000  Uiso   1.00
C301   C     0.83336   0.57925   0.25029   0.00000  Uiso   1.00
C302   C     0.81540   0.47929   0.48738   0.00000  Uiso   1.00
C303   C     0.83066   0.47959   0.43237   0.00000  Uiso   1.00
C304   C     0.85097   0.48589   0.01430   0.00000  Uiso   1.00
C305   C     0.90107   0.48958   0.48591   0.00000  Uiso   1.00
C306   C     0.91585   0.48191   0.43298   0.00000  Uiso   1.00
C307   C     0.88126   0.47508   0.40703   0.00000  Uiso   1.00
C308   C     0.83830   0.49061   0.06829   0.00000  Uiso   1.00
C309   C     0.92293   0.50350   0.06457   0.00000  Uiso   1.00
C310   C     0.79471   0.48374   0.40516   0.00000  Uiso   1.00
C311   C     0.87732   0.64562   0.23796   0.00000  Uiso   1.00
C312   C     0.80789   0.49494   0.34944   0.00000  Uiso   1.00
C313   C     0.87682   0.35482   0.23830   0.00000  Uiso   1.00
C314   C     0.83220   0.37594   0.25134   0.00000  Uiso   1.00
C315   C     0.78749   0.35401   0.26416   0.00000  Uiso   1.00
C316   C     0.78853   0.64456   0.26472   0.00000  Uiso   1.00
C317   C     0.83319   0.62377   0.25089   0.00000  Uiso   1.00
C318   C     0.96589   0.52350   0.28465   0.00000  Uiso   1.00
C319   C     0.68214   0.52342   0.28472   0.00000  Uiso   1.00
C320   C     0.70080   0.47658   0.21525   0.00000  Uiso   1.00
C321   C     0.98451   0.47652   0.21533   0.00000  Uiso   1.00
C322   C     0.83294   0.42066   0.25064   0.00000  Uiso   1.00
C323   C     0.85927   0.50008   0.15012   0.00000  Uiso   1.00
C324   C     0.93614   0.49980   0.01092   0.00000  Uiso   1.00
C325   C     0.87401   0.49824   0.09349   0.00000  Uiso   1.00
C326   C     0.74530   0.47736   0.43221   0.00000  Uiso   1.00
C327   C     0.73146   0.46929   0.48516   0.00000  Uiso   1.00
C328   C     0.76542   0.47198   0.01296   0.00000  Uiso   1.00
Cu329  Cu    0.78645   0.49999   0.25000   0.00000  Uiso   1.00
Cu330  Cu    0.88022   0.50001   0.25000   0.00000  Uiso   1.00
H331   H     0.95085   0.51051   0.08332   0.00000  Uiso   1.00
H332   H     0.91145   0.37116   0.22788   0.00000  Uiso   1.00
H333   H     0.75434   0.62765   0.27683   0.00000  Uiso   1.00
H334   H     0.93977   0.54237   0.31240   0.00000  Uiso   1.00
H335   H     0.69336   0.54222   0.31251   0.00000  Uiso   1.00
H336   H     0.72694   0.45778   0.18744   0.00000  Uiso   1.00
H337   H     0.97327   0.45764   0.18763   0.00000  Uiso   1.00
H338   H     0.95435   0.48083   0.41154   0.00000  Uiso   1.00
H339   H     0.97368   0.50523   0.48865   0.00000  Uiso   1.00
H340   H     0.80074   0.48877   0.09160   0.00000  Uiso   1.00
H341   H     0.71737   0.47784   0.41228   0.00000  Uiso   1.00
H342   H     0.75161   0.46681   0.05414   0.00000  Uiso   1.00
H343   H     0.69395   0.46169   0.00538   0.00000  Uiso   1.00
H344   H     0.89551   0.46475   0.36753   0.00000  Uiso   1.00
H345   H     0.91218   0.62989   0.22724   0.00000  Uiso   1.00
N346   N     0.71598   0.49999   0.24998   0.00000  Uiso   1.00
N347   N     0.95069   0.50002   0.25000   0.00000  Uiso   1.00
O348   O     0.79375   0.56011   0.25000   0.00000  Uiso   1.00
O349   O     0.87294   0.56012   0.25000   0.00000  Uiso   1.00
O350   O     0.77441   0.49998   0.32549   0.00000  Uiso   1.00
O351   O     0.85360   0.49999   0.32549   0.00000  Uiso   1.00
O352   O     0.79373   0.43988   0.24999   0.00000  Uiso   1.00
O353   O     0.87292   0.43989   0.25000   0.00000  Uiso   1.00
O354   O     0.81306   0.50001   0.17451   0.00000  Uiso   1.00
O355   O     0.89225   0.50002   0.17451   0.00000  Uiso   1.00
O356   O     0.74315   0.37434   0.28128   0.00000  Uiso   1.00
C357   C     0.71670   0.36884   0.24485   0.00000  Uiso   1.00
H358   H     0.73883   0.37778   0.20504   0.00000  Uiso   1.00
H359   H     0.68414   0.38907   0.25589   0.00000  Uiso   1.00
H360   H     0.70324   0.33670   0.24506   0.00000  Uiso   1.00
C361   C     0.16670   0.91259   0.25029   0.00000  Uiso   1.00
C362   C     0.14873   0.81262   0.48738   0.00000  Uiso   1.00
C363   C     0.16400   0.81292   0.43237   0.00000  Uiso   1.00
C364   C     0.18431   0.81922   0.01430   0.00000  Uiso   1.00
C365   C     0.23440   0.82291   0.48591   0.00000  Uiso   1.00
C366   C     0.24918   0.81525   0.43298   0.00000  Uiso   1.00
C367   C     0.21459   0.80842   0.40703   0.00000  Uiso   1.00
C368   C     0.17163   0.82394   0.06829   0.00000  Uiso   1.00
C369   C     0.25626   0.83683   0.06457   0.00000  Uiso   1.00
C370   C     0.12804   0.81707   0.40516   0.00000  Uiso   1.00
C371   C     0.21066   0.97895   0.23796   0.00000  Uiso   1.00
C372   C     0.14123   0.82828   0.34944   0.00000  Uiso   1.00
C373   C     0.21016   0.68816   0.23830   0.00000  Uiso   1.00
C374   C     0.16553   0.70928   0.25134   0.00000  Uiso   1.00
C375   C     0.12082   0.68735   0.26416   0.00000  Uiso   1.00
C376   C     0.12187   0.97790   0.26472   0.00000  Uiso   1.00
C377   C     0.16652   0.95710   0.25089   0.00000  Uiso   1.00
C378   C     0.29922   0.85684   0.28465   0.00000  Uiso   1.00
C379   C     0.01547   0.85676   0.28472   0.00000  Uiso   1.00
C380   C     0.03413   0.80992   0.21525   0.00000  Uiso   1.00
C381   C     0.31784   0.80985   0.21533   0.00000  Uiso   1.00
C382   C     0.16628   0.75400   0.25064   0.00000  Uiso   1.00
C383   C     0.19261   0.83342   0.15012   0.00000  Uiso   1.00
C384   C     0.26948   0.83313   0.01092   0.00000  Uiso   1.00
C385   C     0.20734   0.83157   0.09349   0.00000  Uiso   1.00
C386   C     0.07864   0.81069   0.43221   0.00000  Uiso   1.00
C387   C     0.06479   0.80263   0.48516   0.00000  Uiso   1.00
C388   C     0.09875   0.80531   0.01296   0.00000  Uiso   1.00
Cu389  Cu    0.11978   0.83333   0.25000   0.00000  Uiso   1.00
Cu390  Cu    0.21355   0.83334   0.25000   0.00000  Uiso   1.00
H391   H     0.28418   0.84384   0.08332   0.00000  Uiso   1.00
H392   H     0.24479   0.70450   0.22788   0.00000  Uiso   1.00
H393   H     0.08768   0.96098   0.27683   0.00000  Uiso   1.00
H394   H     0.27310   0.87570   0.31240   0.00000  Uiso   1.00
H395   H     0.02669   0.87555   0.31251   0.00000  Uiso   1.00
H396   H     0.06028   0.79111   0.18744   0.00000  Uiso   1.00
H397   H     0.30660   0.79098   0.18763   0.00000  Uiso   1.00
H398   H     0.28769   0.81417   0.41154   0.00000  Uiso   1.00
H399   H     0.30701   0.83857   0.48865   0.00000  Uiso   1.00
H400   H     0.13408   0.82211   0.09160   0.00000  Uiso   1.00
H401   H     0.05070   0.81118   0.41228   0.00000  Uiso   1.00
H402   H     0.08494   0.80014   0.05414   0.00000  Uiso   1.00
H403   H     0.02728   0.79503   0.00538   0.00000  Uiso   1.00
H404   H     0.22884   0.79808   0.36753   0.00000  Uiso   1.00
H405   H     0.24552   0.96322   0.22724   0.00000  Uiso   1.00
N406   N     0.04931   0.83332   0.24998   0.00000  Uiso   1.00
N407   N     0.28402   0.83335   0.25000   0.00000  Uiso   1.00
O408   O     0.12708   0.89345   0.25000   0.00000  Uiso   1.00
O409   O     0.20627   0.89346   0.25000   0.00000  Uiso   1.00
O410   O     0.10775   0.83332   0.32549   0.00000  Uiso   1.00
O411   O     0.18694   0.83333   0.32549   0.00000  Uiso   1.00
O412   O     0.12706   0.77321   0.24999   0.00000  Uiso   1.00
O413   O     0.20625   0.77322   0.25000   0.00000  Uiso   1.00
O414   O     0.14640   0.83334   0.17451   0.00000  Uiso   1.00
O415   O     0.22559   0.83335   0.17451   0.00000  Uiso   1.00
O416   O     0.07649   0.70768   0.28128   0.00000  Uiso   1.00
C417   C     0.05004   0.70218   0.24485   0.00000  Uiso   1.00
H418   H     0.07216   0.71112   0.20504   0.00000  Uiso   1.00
H419   H     0.01747   0.72241   0.25589   0.00000  Uiso   1.00
H420   H     0.03657   0.67003   0.24506   0.00000  Uiso   1.00
C421   C     0.50003   0.91259   0.25029   0.00000  Uiso   1.00
C422   C     0.48207   0.81262   0.48738   0.00000  Uiso   1.00
C423   C     0.49733   0.81292   0.43237   0.00000  Uiso   1.00
C424   C     0.51764   0.81922   0.01430   0.00000  Uiso   1.00
C425   C     0.56773   0.82291   0.48591   0.00000  Uiso   1.00
C426   C     0.58251   0.81525   0.43298   0.00000  Uiso   1.00
C427   C     0.54793   0.80842   0.40703   0.00000  Uiso   1.00
C428   C     0.50496   0.82394   0.06829   0.00000  Uiso   1.00
C429   C     0.58959   0.83683   0.06457   0.00000  Uiso   1.00
C430   C     0.46137   0.81707   0.40516   0.00000  Uiso   1.00
C431   C     0.54399   0.97895   0.23796   0.00000  Uiso   1.00
C432   C     0.47456   0.82828   0.34944   0.00000  Uiso   1.00
C433   C     0.54349   0.68816   0.23830   0.00000  Uiso   1.00
C434   C     0.49887   0.70928   0.25134   0.00000  Uiso   1.00
C435   C     0.45415   0.68735   0.26416   0.00000  Uiso   1.00
C436   C     0.45520   0.97790   0.26472   0.00000  Uiso   1.00
C437   C     0.49986   0.95710   0.25089   0.00000  Uiso   1.00
C438   C     0.63256   0.85684   0.28465   0.00000  Uiso   1.00
C439   C     0.34881   0.85676   0.28472   0.00000  Uiso   1.00
C440   C     0.36747   0.80992   0.21525   0.00000  Uiso   1.00
C441   C     0.65117   0.80985   0.21533   0.00000  Uiso   1.00
C442   C     0.49961   0.75400   0.25064   0.00000  Uiso   1.00
C443   C     0.52594   0.83342   0.15012   0.00000  Uiso   1.00
C444   C     0.60281   0.83313   0.01092   0.00000  Uiso   1.00
C445   C     0.54067   0.83157   0.09349   0.00000  Uiso   1.00
C446   C     0.41197   0.81069   0.43221   0.00000  Uiso   1.00
C447   C     0.39812   0.80263   0.48516   0.00000  Uiso   1.00
C448   C     0.43208   0.80531   0.01296   0.00000  Uiso   1.00
Cu449  Cu    0.45311   0.83333   0.25000   0.00000  Uiso   1.00
Cu450  Cu    0.54689   0.83334   0.25000   0.00000  Uiso   1.00
H451   H     0.61751   0.84384   0.08332   0.00000  Uiso   1.00
H452   H     0.57812   0.70450   0.22788   0.00000  Uiso   1.00
H453   H     0.42101   0.96098   0.27683   0.00000  Uiso   1.00
H454   H     0.60643   0.87570   0.31240   0.00000  Uiso   1.00
H455   H     0.36003   0.87555   0.31251   0.00000  Uiso   1.00
H456   H     0.39361   0.79111   0.18744   0.00000  Uiso   1.00
H457   H     0.63993   0.79098   0.18763   0.00000  Uiso   1.00
H458   H     0.62102   0.81417   0.41154   0.00000  Uiso   1.00
H459   H     0.64035   0.83857   0.48865   0.00000  Uiso   1.00
H460   H     0.46741   0.82211   0.09160   0.00000  Uiso   1.00
H461   H     0.38403   0.81118   0.41228   0.00000  Uiso   1.00
H462   H     0.41828   0.80014   0.05414   0.00000  Uiso   1.00
H463   H     0.36062   0.79503   0.00538   0.00000  Uiso   1.00
H464   H     0.56218   0.79808   0.36753   0.00000  Uiso   1.00
H465   H     0.57885   0.96322   0.22724   0.00000  Uiso   1.00
N466   N     0.38265   0.83332   0.24998   0.00000  Uiso   1.00
N467   N     0.61735   0.83335   0.25000   0.00000  Uiso   1.00
O468   O     0.46042   0.89345   0.25000   0.00000  Uiso   1.00
O469   O     0.53961   0.89346   0.25000   0.00000  Uiso   1.00
O470   O     0.44108   0.83332   0.32549   0.00000  Uiso   1.00
O471   O     0.52027   0.83333   0.32549   0.00000  Uiso   1.00
O472   O     0.46039   0.77321   0.24999   0.00000  Uiso   1.00
O473   O     0.53958   0.77322   0.25000   0.00000  Uiso   1.00
O474   O     0.47973   0.83334   0.17451   0.00000  Uiso   1.00
O475   O     0.55892   0.83335   0.17451   0.00000  Uiso   1.00
O476   O     0.40982   0.70768   0.28128   0.00000  Uiso   1.00
C477   C     0.38337   0.70218   0.24485   0.00000  Uiso   1.00
H478   H     0.40549   0.71112   0.20504   0.00000  Uiso   1.00
H479   H     0.35080   0.72241   0.25589   0.00000  Uiso   1.00
H480   H     0.36990   0.67003   0.24506   0.00000  Uiso   1.00
C481   C     0.83336   0.91259   0.25029   0.00000  Uiso   1.00
C482   C     0.81540   0.81262   0.48738   0.00000  Uiso   1.00
C483   C     0.83066   0.81292   0.43237   0.00000  Uiso   1.00
C484   C     0.85097   0.81922   0.01430   0.00000  Uiso   1.00
C485   C     0.90107   0.82291   0.48591   0.00000  Uiso   1.00
C486   C     0.91585   0.81525   0.43298   0.00000  Uiso   1.00
C487   C     0.88126   0.80842   0.40703   0.00000  Uiso   1.00
C488   C     0.83830   0.82394   0.06829   0.00000  Uiso   1.00
C489   C     0.92293   0.83683   0.06457   0.00000  Uiso   1.00
C490   C     0.79471   0.81707   0.40516   0.00000  Uiso   1.00
C491   C     0.87732   0.97895   0.23796   0.00000  Uiso   1.00
C492   C     0.80789   0.82828   0.34944   0.00000  Uiso   1.00
C493   C     0.87682   0.68816   0.23830   0.00000  Uiso   1.00
C494   C     0.83220   0.70928   0.25134   0.00000  Uiso   1.00
C495   C     0.78749   0.68735   0.26416   0.00000  Uiso   1.00
C496   C     0.78853   0.97790   0.26472   0.00000  Uiso   1.00
C497   C     0.83319   0.95710   0.25089   0.00000  Uiso   1.00
C498   C     0.96589   0.85684   0.28465   0.00000  Uiso   1.00
C499   C     0.68214   0.85676   0.28472   0.00000  Uiso   1.00
C500   C     0.70080   0.80992   0.21525   0.00000  Uiso   1.00
C501   C     0.98451   0.80985   0.21533   0.00000  Uiso   1.00
C502   C     0.83294   0.75400   0.25064   0.00000  Uiso   1.00
C503   C     0.85927   0.83342   0.15012   0.00000  Uiso   1.00
C504   C     0.93614   0.83313   0.01092   0.00000  Uiso   1.00
C505   C     0.87401   0.83157   0.09349   0.00000  Uiso   1.00
C506   C     0.74530   0.81069   0.43221   0.00000  Uiso   1.00
C507   C     0.73146   0.80263   0.48516   0.00000  Uiso   1.00
C508   C     0.76542   0.80531   0.01296   0.00000  Uiso   1.00
Cu509  Cu    0.78645   0.83333   0.25000   0.00000  Uiso   1.00
Cu510  Cu    0.88022   0.83334   0.25000   0.00000  Uiso   1.00
H511   H     0.95085   0.84384   0.08332   0.00000  Uiso   1.00
H512   H     0.91145   0.70450   0.22788   0.00000  Uiso   1.00
H513   H     0.75434   0.96098   0.27683   0.00000  Uiso   1.00
H514   H     0.93977   0.87570   0.31240   0.00000  Uiso   1.00
H515   H     0.69336   0.87555   0.31251   0.00000  Uiso   1.00
H516   H     0.72694   0.79111   0.18744   0.00000  Uiso   1.00
H517   H     0.97327   0.79098   0.18763   0.00000  Uiso   1.00
H518   H     0.95435   0.81417   0.41154   0.00000  Uiso   1.00
H519   H     0.97368   0.83857   0.48865   0.00000  Uiso   1.00
H520   H     0.80074   0.82211   0.09160   0.00000  Uiso   1.00
H521   H     0.71737   0.81118   0.41228   0.00000  Uiso   1.00
H522   H     0.75161   0.80014   0.05414   0.00000  Uiso   1.00
H523   H     0.69395   0.79503   0.00538   0.00000  Uiso   1.00
H524   H     0.89551   0.79808   0.36753   0.00000  Uiso   1.00
H525   H     0.91218   0.96322   0.22724   0.00000  Uiso   1.00
N526   N     0.71598   0.83332   0.24998   0.00000  Uiso   1.00
N527   N     0.95069   0.83335   0.25000   0.00000  Uiso   1.00
O528   O     0.79375   0.89345   0.25000   0.00000  Uiso   1.00
O529   O     0.87294   0.89346   0.25000   0.00000  Uiso   1.00
O530   O     0.77441   0.83332   0.32549   0.00000  Uiso   1.00
O531   O     0.85360   0.83333   0.32549   0.00000  Uiso   1.00
O532   O     0.79373   0.77321   0.24999   0.00000  Uiso   1.00
O533   O     0.87292   0.77322   0.25000   0.00000  Uiso   1.00
O534   O     0.81306   0.83334   0.17451   0.00000  Uiso   1.00
O535   O     0.89225   0.83335   0.17451   0.00000  Uiso   1.00
O536   O     0.74315   0.70768   0.28128   0.00000  Uiso   1.00
C537   C     0.71670   0.70218   0.24485   0.00000  Uiso   1.00
H538   H     0.73883   0.71112   0.20504   0.00000  Uiso   1.00
H539   H     0.68414   0.72241   0.25589   0.00000  Uiso   1.00
H540   H     0.70324   0.67003   0.24506   0.00000  Uiso   1.00
C541   C     0.16670   0.24592   0.75029   0.00000  Uiso   1.00
C542   C     0.14873   0.14595   0.98738   0.00000  Uiso   1.00
C543   C     0.16400   0.14625   0.93237   0.00000  Uiso   1.00
C544   C     0.18431   0.15255   0.51430   0.00000  Uiso   1.00
C545   C     0.23440   0.15624   0.98591   0.00000  Uiso   1.00
C546   C     0.24918   0.14858   0.93298   0.00000  Uiso   1.00
C547   C     0.21459   0.14175   0.90703   0.00000  Uiso   1.00
C548   C     0.17163   0.15728   0.56829   0.00000  Uiso   1.00
C549   C     0.25626   0.17016   0.56457   0.00000  Uiso   1.00
C550   C     0.12804   0.15041   0.90516   0.00000  Uiso   1.00
C551   C     0.21066   0.31229   0.73796   0.00000  Uiso   1.00
C552   C     0.14123   0.16161   0.84944   0.00000  Uiso   1.00
C553   C     0.21016   0.02149   0.73830   0.00000  Uiso   1.00
C554   C     0.16553   0.04261   0.75134   0.00000  Uiso   1.00
C555   C     0.12082   0.02068   0.76416   0.00000  Uiso   1.00
C556   C     0.12187   0.31123   0.76472   0.00000  Uiso   1.00
C557   C     0.16652   0.29043   0.75089   0.00000  Uiso   1.00
C558   C     0.29922   0.19017   0.78465   0.00000  Uiso   1.00
C559   C     0.01547   0.19009   0.78472   0.00000  Uiso   1.00
C560   C     0.03413   0.14325   0.71525   0.00000  Uiso   1.00
C561   C     0.31784   0.14319   0.71533   0.00000  Uiso   1.00
C562   C     0.16628   0.08733   0.75064   0.00000  Uiso   1.00
C563   C     0.19261   0.16675   0.65012   0.00000  Uiso   1.00
C564   C     0.26948   0.16646   0.51092   0.00000  Uiso   1.00
C565   C     0.20734   0.16490   0.59349   0.00000  Uiso   1.00
C566   C     0.07864   0.14402   0.93221   0.00000  Uiso   1.00
C567   C     0.06479   0.13596   0.98516   0.00000  Uiso   1.00
C568   C     0.09875   0.13864   0.51296   0.00000  Uiso   1.00
Cu569  Cu    0.11978   0.16666   0.75000   0.00000  Uiso   1.00
Cu570  Cu    0.21355   0.16667   0.75000   0.00000  Uiso   1.00
H571   H     0.28418   0.17718   0.58332   0.00000  Uiso   1.00
H572   H     0.24479   0.03783   0.72788   0.00000  Uiso   1.00
H573   H     0.08768   0.29432   0.77683   0.00000  Uiso   1.00
H574   H     0.27310   0.20903   0.81240   0.00000  Uiso   1.00
H575   H     0.02669   0.20888   0.81251   0.00000  Uiso   1.00
H576   H     0.06028   0.12444   0.68744   0.00000  Uiso   1.00
H577   H     0.30660   0.12431   0.68763   0.00000  Uiso   1.00
H578   H     0.28769   0.14750   0.91154   0.00000  Uiso   1.00
H579   H     0.30701   0.17190   0.98865   0.00000  Uiso   1.00
H580   H     0.13408   0.15544   0.59160   0.00000  Uiso   1.00
H581   H     0.05070   0.14451   0.91228   0.00000  Uiso   1.00
H582   H     0.08494   0.13347   0.55414   0.00000  Uiso   1.00
H583   H     0.02728   0.12836   0.50538   0.00000  Uiso   1.00
H584   H     0.22884   0.13142   0.86753   0.00000  Uiso   1.00
H585   H     0.24552   0.29655   0.72724   0.00000  Uiso   1.00
N586   N     0.04931   0.16666   0.74998   0.00000  Uiso   1.00
N587   N     0.28402   0.16669   0.75000   0.00000  Uiso   1.00
O588   O     0.12708   0.22678   0.75000   0.00000  Uiso   1.00
O589   O     0.20627   0.22679   0.75000   0.00000  Uiso   1.00
O590   O     0.10775   0.16665   0.82549   0.00000  Uiso   1.00
O591   O     0.18694   0.16666   0.82549   0.00000  Uiso   1.00
O592   O     0.12706   0.10654   0.74999   0.00000  Uiso   1.00
O593   O     0.20625   0.10655   0.75000   0.00000  Uiso   1.00
O594   O     0.14640   0.16667   0.67451   0.00000  Uiso   1.00
O595   O     0.22559   0.16668   0.67451   0.00000  Uiso   1.00
O596   O     0.07649   0.04101   0.78128   0.00000  Uiso   1.00
C597   C     0.05004   0.03551   0.74485   0.00000  Uiso   1.00
H598   H     0.07216   0.04445   0.70504   0.00000  Uiso   1.00
H599   H     0.01747   0.05574   0.75589   0.00000  Uiso   1.00
H600   H     0.03657   0.00336   0.74506   0.00000  Uiso   1.00
C601   C     0.50003   0.24592   0.75029   0.00000  Uiso   1.00
C602   C     0.48207   0.14595   0.98738   0.00000  Uiso   1.00
C603   C     0.49733   0.14625   0.93237   0.00000  Uiso   1.00
C604   C     0.51764   0.15255   0.51430   0.00000  Uiso   1.00
C605   C     0.56773   0.15624   0.98591   0.00000  Uiso   1.00
C606   C     0.58251   0.14858   0.93298   0.00000  Uiso   1.00
C607   C     0.54793   0.14175   0.90703   0.00000  Uiso   1.00
C608   C     0.50496   0.15728   0.56829   0.00000  Uiso   1.00
C609   C     0.58959   0.17016   0.56457   0.00000  Uiso   1.00
C610   C     0.46137   0.15041   0.90516   0.00000  Uiso   1.00
C611   C     0.54399   0.31229   0.73796   0.00000  Uiso   1.00
C612   C     0.47456   0.16161   0.84944   0.00000  Uiso   1.00
C613   C     0.54349   0.02149   0.73830   0.00000  Uiso   1.00
C614   C     0.49887   0.04261   0.75134   0.00000  Uiso   1.00
C615   C     0.45415   0.02068   0.76416   0.00000  Uiso   1.00
C616   C     0.45520   0.31123   0.76472   0.00000  Uiso   1.00
C617   C     0.49986   0.29043   0.75089   0.00000  Uiso   1.00
C618   C     0.63256   0.19017   0.78465   0.00000  Uiso   1.00
C619   C     0.34881   0.19009   0.78472   0.00000  Uiso   1.00
C620   C     0.36747   0.14325   0.71525   0.00000  Uiso   1.00
C621   C     0.65117   0.14319   0.71533   0.00000  Uiso   1.00
C622   C     0.49961   0.08733   0.75064   0.00000  Uiso   1.00
C623   C     0.52594   0.16675   0.65012   0.00000  Uiso   1.00
C624   C     0.60281   0.16646   0.51092   0.00000  Uiso   1.00
C625   C     0.54067   0.16490   0.59349   0.00000  Uiso   1.00
C626   C     0.41197   0.14402   0.93221   0.00000  Uiso   1.00
C627   C     0.39812   0.13596   0.98516   0.00000  Uiso   1.00
C628   C     0.43208   0.13864   0.51296   0.00000  Uiso   1.00
Cu629  Cu    0.45311   0.16666   0.75000   0.00000  Uiso   1.00
Cu630  Cu    0.54689   0.16667   0.75000   0.00000  Uiso   1.00
H631   H     0.61751   0.17718   0.58332   0.00000  Uiso   1.00
H632   H     0.57812   0.03783   0.72788   0.00000  Uiso   1.00
H633   H     0.42101   0.29432   0.77683   0.00000  Uiso   1.00
H634   H     0.60643   0.20903   0.81240   0.00000  Uiso   1.00
H635   H     0.36003   0.20888   0.81251   0.00000  Uiso   1.00
H636   H     0.39361   0.12444   0.68744   0.00000  Uiso   1.00
H637   H     0.63993   0.12431   0.68763   0.00000  Uiso   1.00
H638   H     0.62102   0.14750   0.91154   0.00000  Uiso   1.00
H639   H     0.64035   0.17190   0.98865   0.00000  Uiso   1.00
H640   H     0.46741   0.15544   0.59160   0.00000  Uiso   1.00
H641   H     0.38403   0.14451   0.91228   0.00000  Uiso   1.00
H642   H     0.41828   0.13347   0.55414   0.00000  Uiso   1.00
H643   H     0.36062   0.12836   0.50538   0.00000  Uiso   1.00
H644   H     0.56218   0.13142   0.86753   0.00000  Uiso   1.00
H645   H     0.57885   0.29655   0.72724   0.00000  Uiso   1.00
N646   N     0.38265   0.16666   0.74998   0.00000  Uiso   1.00
N647   N     0.61735   0.16669   0.75000   0.00000  Uiso   1.00
O648   O     0.46042   0.22678   0.75000   0.00000  Uiso   1.00
O649   O     0.53961   0.22679   0.75000   0.00000  Uiso   1.00
O650   O     0.44108   0.16665   0.82549   0.00000  Uiso   1.00
O651   O     0.52027   0.16666   0.82549   0.00000  Uiso   1.00
O652   O     0.46039   0.10654   0.74999   0.00000  Uiso   1.00
O653   O     0.53958   0.10655   0.75000   0.00000  Uiso   1.00
O654   O     0.47973   0.16667   0.67451   0.00000  Uiso   1.00
O655   O     0.55892   0.16668   0.67451   0.00000  Uiso   1.00
O656   O     0.40982   0.04101   0.78128   0.00000  Uiso   1.00
C657   C     0.38337   0.03551   0.74485   0.00000  Uiso   1.00
H658   H     0.40549   0.04445   0.70504   0.00000  Uiso   1.00
H659   H     0.35080   0.05574   0.75589   0.00000  Uiso   1.00
H660   H     0.36990   0.00336   0.74506   0.00000  Uiso   1.00
C661   C     0.83336   0.24592   0.75029   0.00000  Uiso   1.00
C662   C     0.81540   0.14595   0.98738   0.00000  Uiso   1.00
C663   C     0.83066   0.14625   0.93237   0.00000  Uiso   1.00
C664   C     0.85097   0.15255   0.51430   0.00000  Uiso   1.00
C665   C     0.90107   0.15624   0.98591   0.00000  Uiso   1.00
C666   C     0.91585   0.14858   0.93298   0.00000  Uiso   1.00
C667   C     0.88126   0.14175   0.90703   0.00000  Uiso   1.00
C668   C     0.83830   0.15728   0.56829   0.00000  Uiso   1.00
C669   C     0.92293   0.17016   0.56457   0.00000  Uiso   1.00
C670   C     0.79471   0.15041   0.90516   0.00000  Uiso   1.00
C671   C     0.87732   0.31229   0.73796   0.00000  Uiso   1.00
C672   C     0.80789   0.16161   0.84944   0.00000  Uiso   1.00
C673   C     0.87682   0.02149   0.73830   0.00000  Uiso   1.00
C674   C     0.83220   0.04261   0.75134   0.00000  Uiso   1.00
C675   C     0.78749   0.02068   0.76416   0.00000  Uiso   1.00
C676   C     0.78853   0.31123   0.76472   0.00000  Uiso   1.00
C677   C     0.83319   0.29043   0.75089   0.00000  Uiso   1.00
C678   C     0.96589   0.19017   0.78465   0.00000  Uiso   1.00
C679   C     0.68214   0.19009   0.78472   0.00000  Uiso   1.00
C680   C     0.70080   0.14325   0.71525   0.00000  Uiso   1.00
C681   C     0.98451   0.14319   0.71533   0.00000  Uiso   1.00
C682   C     0.83294   0.08733   0.75064   0.00000  Uiso   1.00
C683   C     0.85927   0.16675   0.65012   0.00000  Uiso   1.00
C684   C     0.93614   0.16646   0.51092   0.00000  Uiso   1.00
C685   C     0.87401   0.16490   0.59349   0.00000  Uiso   1.00
C686   C     0.74530   0.14402   0.93221   0.00000  Uiso   1.00
C687   C     0.73146   0.13596   0.98516   0.00000  Uiso   1.00
C688   C     0.76542   0.13864   0.51296   0.00000  Uiso   1.00
Cu689  Cu    0.78645   0.16666   0.75000   0.00000  Uiso   1.00
Cu690  Cu    0.88022   0.16667   0.75000   0.00000  Uiso   1.00
H691   H     0.95085   0.17718   0.58332   0.00000  Uiso   1.00
H692   H     0.91145   0.03783   0.72788   0.00000  Uiso   1.00
H693   H     0.75434   0.29432   0.77683   0.00000  Uiso   1.00
H694   H     0.93977   0.20903   0.81240   0.00000  Uiso   1.00
H695   H     0.69336   0.20888   0.81251   0.00000  Uiso   1.00
H696   H     0.72694   0.12444   0.68744   0.00000  Uiso   1.00
H697   H     0.97327   0.12431   0.68763   0.00000  Uiso   1.00
H698   H     0.95435   0.14750   0.91154   0.00000  Uiso   1.00
H699   H     0.97368   0.17190   0.98865   0.00000  Uiso   1.00
H700   H     0.80074   0.15544   0.59160   0.00000  Uiso   1.00
H701   H     0.71737   0.14451   0.91228   0.00000  Uiso   1.00
H702   H     0.75161   0.13347   0.55414   0.00000  Uiso   1.00
H703   H     0.69395   0.12836   0.50538   0.00000  Uiso   1.00
H704   H     0.89551   0.13142   0.86753   0.00000  Uiso   1.00
H705   H     0.91218   0.29655   0.72724   0.00000  Uiso   1.00
N706   N     0.71598   0.16666   0.74998   0.00000  Uiso   1.00
N707   N     0.95069   0.16669   0.75000   0.00000  Uiso   1.00
O708   O     0.79375   0.22678   0.75000   0.00000  Uiso   1.00
O709   O     0.87294   0.22679   0.75000   0.00000  Uiso   1.00
O710   O     0.77441   0.16665   0.82549   0.00000  Uiso   1.00
O711   O     0.85360   0.16666   0.82549   0.00000  Uiso   1.00
O712   O     0.79373   0.10654   0.74999   0.00000  Uiso   1.00
O713   O     0.87292   0.10655   0.75000   0.00000  Uiso   1.00
O714   O     0.81306   0.16667   0.67451   0.00000  Uiso   1.00
O715   O     0.89225   0.16668   0.67451   0.00000  Uiso   1.00
O716   O     0.74315   0.04101   0.78128   0.00000  Uiso   1.00
C717   C     0.71670   0.03551   0.74485   0.00000  Uiso   1.00
H718   H     0.73883   0.04445   0.70504   0.00000  Uiso   1.00
H719   H     0.68414   0.05574   0.75589   0.00000  Uiso   1.00
H720   H     0.70324   0.00336   0.74506   0.00000  Uiso   1.00
C721   C     0.16670   0.57925   0.75029   0.00000  Uiso   1.00
C722   C     0.14873   0.47929   0.98738   0.00000  Uiso   1.00
C723   C     0.16400   0.47959   0.93237   0.00000  Uiso   1.00
C724   C     0.18431   0.48589   0.51430   0.00000  Uiso   1.00
C725   C     0.23440   0.48958   0.98591   0.00000  Uiso   1.00
C726   C     0.24918   0.48191   0.93298   0.00000  Uiso   1.00
C727   C     0.21459   0.47508   0.90703   0.00000  Uiso   1.00
C728   C     0.17163   0.49061   0.56829   0.00000  Uiso   1.00
C729   C     0.25626   0.50350   0.56457   0.00000  Uiso   1.00
C730   C     0.12804   0.48374   0.90516   0.00000  Uiso   1.00
C731   C     0.21066   0.64562   0.73796   0.00000  Uiso   1.00
C732   C     0.14123   0.49494   0.84944   0.00000  Uiso   1.00
C733   C     0.21016   0.35482   0.73830   0.00000  Uiso   1.00
C734   C     0.16553   0.37594   0.75134   0.00000  Uiso   1.00
C735   C     0.12082   0.35401   0.76416   0.00000  Uiso   1.00
C736   C     0.12187   0.64456   0.76472   0.00000  Uiso   1.00
C737   C     0.16652   0.62377   0.75089   0.00000  Uiso   1.00
C738   C     0.29922   0.52350   0.78465   0.00000  Uiso   1.00
C739   C     0.01547   0.52342   0.78472   0.00000  Uiso   1.00
C740   C     0.03413   0.47658   0.71525   0.00000  Uiso   1.00
C741   C     0.31784   0.47652   0.71533   0.00000  Uiso   1.00
C742   C     0.16628   0.42066   0.75064   0.00000  Uiso   1.00
C743   C     0.19261   0.50008   0.65012   0.00000  Uiso   1.00
C744   C     0.26948   0.49980   0.51092   0.00000  Uiso   1.00
C745   C     0.20734   0.49824   0.59349   0.00000  Uiso   1.00
C746   C     0.07864   0.47736   0.93221   0.00000  Uiso   1.00
C747   C     0.06479   0.46929   0.98516   0.00000  Uiso   1.00
C748   C     0.09875   0.47198   0.51296   0.00000  Uiso   1.00
Cu749  Cu    0.11978   0.49999   0.75000   0.00000  Uiso   1.00
Cu750  Cu    0.21355   0.50001   0.75000   0.00000  Uiso   1.00
H751   H     0.28418   0.51051   0.58332   0.00000  Uiso   1.00
H752   H     0.24479   0.37116   0.72788   0.00000  Uiso   1.00
H753   H     0.08768   0.62765   0.77683   0.00000  Uiso   1.00
H754   H     0.27310   0.54237   0.81240   0.00000  Uiso   1.00
H755   H     0.02669   0.54222   0.81251   0.00000  Uiso   1.00
H756   H     0.06028   0.45778   0.68744   0.00000  Uiso   1.00
H757   H     0.30660   0.45764   0.68763   0.00000  Uiso   1.00
H758   H     0.28769   0.48083   0.91154   0.00000  Uiso   1.00
H759   H     0.30701   0.50523   0.98865   0.00000  Uiso   1.00
H760   H     0.13408   0.48877   0.59160   0.00000  Uiso   1.00
H761   H     0.05070   0.47784   0.91228   0.00000  Uiso   1.00
H762   H     0.08494   0.46681   0.55414   0.00000  Uiso   1.00
H763   H     0.02728   0.46169   0.50538   0.00000  Uiso   1.00
H764   H     0.22884   0.46475   0.86753   0.00000  Uiso   1.00
H765   H     0.24552   0.62989   0.72724   0.00000  Uiso   1.00
N766   N     0.04931   0.49999   0.74998   0.00000  Uiso   1.00
N767   N     0.28402   0.50002   0.75000   0.00000  Uiso   1.00
O768   O     0.12708   0.56011   0.75000   0.00000  Uiso   1.00
O769   O     0.20627   0.56012   0.75000   0.00000  Uiso   1.00
O770   O     0.10775   0.49998   0.82549   0.00000  Uiso   1.00
O771   O     0.18694   0.49999   0.82549   0.00000  Uiso   1.00
O772   O     0.12706   0.43988   0.74999   0.00000  Uiso   1.00
O773   O     0.20625   0.43989   0.75000   0.00000  Uiso   1.00
O774   O     0.14640   0.50001   0.67451   0.00000  Uiso   1.00
O775   O     0.22559   0.50002   0.67451   0.00000  Uiso   1.00
O776   O     0.07649   0.37434   0.78128   0.00000  Uiso   1.00
C777   C     0.05004   0.36884   0.74485   0.00000  Uiso   1.00
H778   H     0.07216   0.37778   0.70504   0.00000  Uiso   1.00
H779   H     0.01747   0.38907   0.75589   0.00000  Uiso   1.00
H780   H     0.03657   0.33670   0.74506   0.00000  Uiso   1.00
C781   C     0.50003   0.57925   0.75029   0.00000  Uiso   1.00
C782   C     0.48207   0.47929   0.98738   0.00000  Uiso   1.00
C783   C     0.49733   0.47959   0.93237   0.00000  Uiso   1.00
C784   C     0.51764   0.48589   0.51430   0.00000  Uiso   1.00
C785   C     0.56773   0.48958   0.98591   0.00000  Uiso   1.00
C786   C     0.58251   0.48191   0.93298   0.00000  Uiso   1.00
C787   C     0.54793   0.47508   0.90703   0.00000  Uiso   1.00
C788   C     0.50496   0.49061   0.56829   0.00000  Uiso   1.00
C789   C     0.58959   0.50350   0.56457   0.00000  Uiso   1.00
C790   C     0.46137   0.48374   0.90516   0.00000  Uiso   1.00
C791   C     0.54399   0.64562   0.73796   0.00000  Uiso   1.00
C792   C     0.47456   0.49494   0.84944   0.00000  Uiso   1.00
C793   C     0.54349   0.35482   0.73830   0.00000  Uiso   1.00
C794   C     0.49887   0.37594   0.75134   0.00000  Uiso   1.00
C795   C     0.45415   0.35401   0.76416   0.00000  Uiso   1.00
C796   C     0.45520   0.64456   0.76472   0.00000  Uiso   1.00
C797   C     0.49986   0.62377   0.75089   0.00000  Uiso   1.00
C798   C     0.63256   0.52350   0.78465   0.00000  Uiso   1.00
C799   C     0.34881   0.52342   0.78472   0.00000  Uiso   1.00
C800   C     0.36747   0.47658   0.71525   0.00000  Uiso   1.00
C801   C     0.65117   0.47652   0.71533   0.00000  Uiso   1.00
C802   C     0.49961   0.42066   0.75064   0.00000  Uiso   1.00
C803   C     0.52594   0.50008   0.65012   0.00000  Uiso   1.00
C804   C     0.60281   0.49980   0.51092   0.00000  Uiso   1.00
C805   C     0.54067   0.49824   0.59349   0.00000  Uiso   1.00
C806   C     0.41197   0.47736   0.93221   0.00000  Uiso   1.00
C807   C     0.39812   0.46929   0.98516   0.00000  Uiso   1.00
C808   C     0.43208   0.47198   0.51296   0.00000  Uiso   1.00
Cu809  Cu    0.45311   0.49999   0.75000   0.00000  Uiso   1.00
Cu810  Cu    0.54689   0.50001   0.75000   0.00000  Uiso   1.00
H811   H     0.61751   0.51051   0.58332   0.00000  Uiso   1.00
H812   H     0.57812   0.37116   0.72788   0.00000  Uiso   1.00
H813   H     0.42101   0.62765   0.77683   0.00000  Uiso   1.00
H814   H     0.60643   0.54237   0.81240   0.00000  Uiso   1.00
H815   H     0.36003   0.54222   0.81251   0.00000  Uiso   1.00
H816   H     0.39361   0.45778   0.68744   0.00000  Uiso   1.00
H817   H     0.63993   0.45764   0.68763   0.00000  Uiso   1.00
H818   H     0.62102   0.48083   0.91154   0.00000  Uiso   1.00
H819   H     0.64035   0.50523   0.98865   0.00000  Uiso   1.00
H820   H     0.46741   0.48877   0.59160   0.00000  Uiso   1.00
H821   H     0.38403   0.47784   0.91228   0.00000  Uiso   1.00
H822   H     0.41828   0.46681   0.55414   0.00000  Uiso   1.00
H823   H     0.36062   0.46169   0.50538   0.00000  Uiso   1.00
H824   H     0.56218   0.46475   0.86753   0.00000  Uiso   1.00
H825   H     0.57885   0.62989   0.72724   0.00000  Uiso   1.00
N826   N     0.38265   0.49999   0.74998   0.00000  Uiso   1.00
N827   N     0.61735   0.50002   0.75000   0.00000  Uiso   1.00
O828   O     0.46042   0.56011   0.75000   0.00000  Uiso   1.00
O829   O     0.53961   0.56012   0.75000   0.00000  Uiso   1.00
O830   O     0.44108   0.49998   0.82549   0.00000  Uiso   1.00
O831   O     0.52027   0.49999   0.82549   0.00000  Uiso   1.00
O832   O     0.46039   0.43988   0.74999   0.00000  Uiso   1.00
O833   O     0.53958   0.43989   0.75000   0.00000  Uiso   1.00
O834   O     0.47973   0.50001   0.67451   0.00000  Uiso   1.00
O835   O     0.55892   0.50002   0.67451   0.00000  Uiso   1.00
O836   O     0.40982   0.37434   0.78128   0.00000  Uiso   1.00
C837   C     0.38337   0.36884   0.74485   0.00000  Uiso   1.00
H838   H     0.40549   0.37778   0.70504   0.00000  Uiso   1.00
H839   H     0.35080   0.38907   0.75589   0.00000  Uiso   1.00
H840   H     0.36990   0.33670   0.74506   0.00000  Uiso   1.00
C841   C     0.83336   0.57925   0.75029   0.00000  Uiso   1.00
C842   C     0.81540   0.47929   0.98738   0.00000  Uiso   1.00
C843   C     0.83066   0.47959   0.93237   0.00000  Uiso   1.00
C844   C     0.85097   0.48589   0.51430   0.00000  Uiso   1.00
C845   C     0.90107   0.48958   0.98591   0.00000  Uiso   1.00
C846   C     0.91585   0.48191   0.93298   0.00000  Uiso   1.00
C847   C     0.88126   0.47508   0.90703   0.00000  Uiso   1.00
C848   C     0.83830   0.49061   0.56829   0.00000  Uiso   1.00
C849   C     0.92293   0.50350   0.56457   0.00000  Uiso   1.00
C850   C     0.79471   0.48374   0.90516   0.00000  Uiso   1.00
C851   C     0.87732   0.64562   0.73796   0.00000  Uiso   1.00
C852   C     0.80789   0.49494   0.84944   0.00000  Uiso   1.00
C853   C     0.87682   0.35482   0.73830   0.00000  Uiso   1.00
C854   C     0.83220   0.37594   0.75134   0.00000  Uiso   1.00
C855   C     0.78749   0.35401   0.76416   0.00000  Uiso   1.00
C856   C     0.78853   0.64456   0.76472   0.00000  Uiso   1.00
C857   C     0.83319   0.62377   0.75089   0.00000  Uiso   1.00
C858   C     0.96589   0.52350   0.78465   0.00000  Uiso   1.00
C859   C     0.68214   0.52342   0.78472   0.00000  Uiso   1.00
C860   C     0.70080   0.47658   0.71525   0.00000  Uiso   1.00
C861   C     0.98451   0.47652   0.71533   0.00000  Uiso   1.00
C862   C     0.83294   0.42066   0.75064   0.00000  Uiso   1.00
C863   C     0.85927   0.50008   0.65012   0.00000  Uiso   1.00
C864   C     0.93614   0.49980   0.51092   0.00000  Uiso   1.00
C865   C     0.87401   0.49824   0.59349   0.00000  Uiso   1.00
C866   C     0.74530   0.47736   0.93221   0.00000  Uiso   1.00
C867   C     0.73146   0.46929   0.98516   0.00000  Uiso   1.00
C868   C     0.76542   0.47198   0.51296   0.00000  Uiso   1.00
Cu869  Cu    0.78645   0.49999   0.75000   0.00000  Uiso   1.00
Cu870  Cu    0.88022   0.50001   0.75000   0.00000  Uiso   1.00
H871   H     0.95085   0.51051   0.58332   0.00000  Uiso   1.00
H872   H     0.91145   0.37116   0.72788   0.00000  Uiso   1.00
H873   H     0.75434   0.62765   0.77683   0.00000  Uiso   1.00
H874   H     0.93977   0.54237   0.81240   0.00000  Uiso   1.00
H875   H     0.69336   0.54222   0.81251   0.00000  Uiso   1.00
H876   H     0.72694   0.45778   0.68744   0.00000  Uiso   1.00
H877   H     0.97327   0.45764   0.68763   0.00000  Uiso   1.00
H878   H     0.95435   0.48083   0.91154   0.00000  Uiso   1.00
H879   H     0.97368   0.50523   0.98865   0.00000  Uiso   1.00
H880   H     0.80074   0.48877   0.59160   0.00000  Uiso   1.00
H881   H     0.71737   0.47784   0.91228   0.00000  Uiso   1.00
H882   H     0.75161   0.46681   0.55414   0.00000  Uiso   1.00
H883   H     0.69395   0.46169   0.50538   0.00000  Uiso   1.00
H884   H     0.89551   0.46475   0.86753   0.00000  Uiso   1.00
H885   H     0.91218   0.62989   0.72724   0.00000  Uiso   1.00
N886   N     0.71598   0.49999   0.74998   0.00000  Uiso   1.00
N887   N     0.95069   0.50002   0.75000   0.00000  Uiso   1.00
O888   O     0.79375   0.56011   0.75000   0.00000  Uiso   1.00
O889   O     0.87294   0.56012   0.75000   0.00000  Uiso   1.00
O890   O     0.77441   0.49998   0.82549   0.00000  Uiso   1.00
O891   O     0.85360   0.49999   0.82549   0.00000  Uiso   1.00
O892   O     0.79373   0.43988   0.74999   0.00000  Uiso   1.00
O893   O     0.87292   0.43989   0.75000   0.00000  Uiso   1.00
O894   O     0.81306   0.50001   0.67451   0.00000  Uiso   1.00
O895   O     0.89225   0.50002   0.67451   0.00000  Uiso   1.00
O896   O     0.74315   0.37434   0.78128   0.00000  Uiso   1.00
C897   C     0.71670   0.36884   0.74485   0.00000  Uiso   1.00
H898   H     0.73883   0.37778   0.70504   0.00000  Uiso   1.00
H899   H     0.68414   0.38907   0.75589   0.00000  Uiso   1.00
H900   H     0.70324   0.33670   0.74506   0.00000  Uiso   1.00
C901   C     0.16670   0.91259   0.75029   0.00000  Uiso   1.00
C902   C     0.14873   0.81262   0.98738   0.00000  Uiso   1.00
C903   C     0.16400   0.81292   0.93237   0.00000  Uiso   1.00
C904   C     0.18431   0.81922   0.51430   0.00000  Uiso   1.00
C905   C     0.23440   0.82291   0.98591   0.00000  Uiso   1.00
C906   C     0.24918   0.81525   0.93298   0.00000  Uiso   1.00
C907   C     0.21459   0.80842   0.90703   0.00000  Uiso   1.00
C908   C     0.17163   0.82394   0.56829   0.00000  Uiso   1.00
C909   C     0.25626   0.83683   0.56457   0.00000  Uiso   1.00
C910   C     0.12804   0.81707   0.90516   0.00000  Uiso   1.00
C911   C     0.21066   0.97895   0.73796   0.00000  Uiso   1.00
C912   C     0.14123   0.82828   0.84944   0.00000  Uiso   1.00
C913   C     0.21016   0.68816   0.73830   0.00000  Uiso   1.00
C914   C     0.16553   0.70928   0.75134   0.00000  Uiso   1.00
C915   C     0.12082   0.68735   0.76416   0.00000  Uiso   1.00
C916   C     0.12187   0.97790   0.76472   0.00000  Uiso   1.00
C917   C     0.16652   0.95710   0.75089   0.00000  Uiso   1.00
C918   C     0.29922   0.85684   0.78465   0.00000  Uiso   1.00
C919   C     0.01547   0.85676   0.78472   0.00000  Uiso   1.00
C920   C     0.03413   0.80992   0.71525   0.00000  Uiso   1.00
C921   C     0.31784   0.80985   0.71533   0.00000  Uiso   1.00
C922   C     0.16628   0.75400   0.75064   0.00000  Uiso   1.00
C923   C     0.19261   0.83342   0.65012   0.00000  Uiso   1.00
C924   C     0.26948   0.83313   0.51092   0.00000  Uiso   1.00
C925   C     0.20734   0.83157   0.59349   0.00000  Uiso   1.00
C926   C     0.07864   0.81069   0.93221   0.00000  Uiso   1.00
C927   C     0.06479   0.80263   0.98516   0.00000  Uiso   1.00
C928   C     0.09875   0.80531   0.51296   0.00000  Uiso   1.00
Cu929  Cu    0.11978   0.83333   0.75000   0.00000  Uiso   1.00
Cu930  Cu    0.21355   0.83334   0.75000   0.00000  Uiso   1.00
H931   H     0.28418   0.84384   0.58332   0.00000  Uiso   1.00
H932   H     0.24479   0.70450   0.72788   0.00000  Uiso   1.00
H933   H     0.08768   0.96098   0.77683   0.00000  Uiso   1.00
H934   H     0.27310   0.87570   0.81240   0.00000  Uiso   1.00
H935   H     0.02669   0.87555   0.81251   0.00000  Uiso   1.00
H936   H     0.06028   0.79111   0.68744   0.00000  Uiso   1.00
H937   H     0.30660   0.79098   0.68763   0.00000  Uiso   1.00
H938   H     0.28769   0.81417   0.91154   0.00000  Uiso   1.00
H939   H     0.30701   0.83857   0.98865   0.00000  Uiso   1.00
H940   H     0.13408   0.82211   0.59160   0.00000  Uiso   1.00
H941   H     0.05070   0.81118   0.91228   0.00000  Uiso   1.00
H942   H     0.08494   0.80014   0.55414   0.00000  Uiso   1.00
H943   H     0.02728   0.79503   0.50538   0.00000  Uiso   1.00
H944   H     0.22884   0.79808   0.86753   0.00000  Uiso   1.00
H945   H     0.24552   0.96322   0.72724   0.00000  Uiso   1.00
N946   N     0.04931   0.83332   0.74998   0.00000  Uiso   1.00
N947   N     0.28402   0.83335   0.75000   0.00000  Uiso   1.00
O948   O     0.12708   0.89345   0.75000   0.00000  Uiso   1.00
O949   O     0.20627   0.89346   0.75000   0.00000  Uiso   1.00
O950   O     0.10775   0.83332   0.82549   0.00000  Uiso   1.00
O951   O     0.18694   0.83333   0.82549   0.00000  Uiso   1.00
O952   O     0.12706   0.77321   0.74999   0.00000  Uiso   1.00
O953   O     0.20625   0.77322   0.75000   0.00000  Uiso   1.00
O954   O     0.14640   0.83334   0.67451   0.00000  Uiso   1.00
O955   O     0.22559   0.83335   0.67451   0.00000  Uiso   1.00
O956   O     0.07649   0.70768   0.78128   0.00000  Uiso   1.00
C957   C     0.05004   0.70218   0.74485   0.00000  Uiso   1.00
H958   H     0.07216   0.71112   0.70504   0.00000  Uiso   1.00
H959   H     0.01747   0.72241   0.75589   0.00000  Uiso   1.00
H960   H     0.03657   0.67003   0.74506   0.00000  Uiso   1.00
C961   C     0.50003   0.91259   0.75029   0.00000  Uiso   1.00
C962   C     0.48207   0.81262   0.98738   0.00000  Uiso   1.00
C963   C     0.49733   0.81292   0.93237   0.00000  Uiso   1.00
C964   C     0.51764   0.81922   0.51430   0.00000  Uiso   1.00
C965   C     0.56773   0.82291   0.98591   0.00000  Uiso   1.00
C966   C     0.58251   0.81525   0.93298   0.00000  Uiso   1.00
C967   C     0.54793   0.80842   0.90703   0.00000  Uiso   1.00
C968   C     0.50496   0.82394   0.56829   0.00000  Uiso   1.00
C969   C     0.58959   0.83683   0.56457   0.00000  Uiso   1.00
C970   C     0.46137   0.81707   0.90516   0.00000  Uiso   1.00
C971   C     0.54399   0.97895   0.73796   0.00000  Uiso   1.00
C972   C     0.47456   0.82828   0.84944   0.00000  Uiso   1.00
C973   C     0.54349   0.68816   0.73830   0.00000  Uiso   1.00
C974   C     0.49887   0.70928   0.75134   0.00000  Uiso   1.00
C975   C     0.45415   0.68735   0.76416   0.00000  Uiso   1.00
C976   C     0.45520   0.97790   0.76472   0.00000  Uiso   1.00
C977   C     0.49986   0.95710   0.75089   0.00000  Uiso   1.00
C978   C     0.63256   0.85684   0.78465   0.00000  Uiso   1.00
C979   C     0.34881   0.85676   0.78472   0.00000  Uiso   1.00
C980   C     0.36747   0.80992   0.71525   0.00000  Uiso   1.00
C981   C     0.65117   0.80985   0.71533   0.00000  Uiso   1.00
C982   C     0.49961   0.75400   0.75064   0.00000  Uiso   1.00
C983   C     0.52594   0.83342   0.65012   0.00000  Uiso   1.00
C984   C     0.60281   0.83313   0.51092   0.00000  Uiso   1.00
C985   C     0.54067   0.83157   0.59349   0.00000  Uiso   1.00
C986   C     0.41197   0.81069   0.93221   0.00000  Uiso   1.00
C987   C     0.39812   0.80263   0.98516   0.00000  Uiso   1.00
C988   C     0.43208   0.80531   0.51296   0.00000  Uiso   1.00
Cu989  Cu    0.45311   0.83333   0.75000   0.00000  Uiso   1.00
Cu990  Cu    0.54689   0.83334   0.75000   0.00000  Uiso   1.00
H991   H     0.61751   0.84384   0.58332   0.00000  Uiso   1.00
H992   H     0.57812   0.70450   0.72788   0.00000  Uiso   1.00
H993   H     0.42101   0.96098   0.77683   0.00000  Uiso   1.00
H994   H     0.60643   0.87570   0.81240   0.00000  Uiso   1.00
H995   H     0.36003   0.87555   0.81251   0.00000  Uiso   1.00
H996   H     0.39361   0.79111   0.68744   0.00000  Uiso   1.00
H997   H     0.63993   0.79098   0.68763   0.00000  Uiso   1.00
H998   H     0.62102   0.81417   0.91154   0.00000  Uiso   1.00
H999   H     0.64035   0.83857   0.98865   0.00000  Uiso   1.00
H1000  H     0.46741   0.82211   0.59160   0.00000  Uiso   1.00
H1001  H     0.38403   0.81118   0.91228   0.00000  Uiso   1.00
H1002  H     0.41828   0.80014   0.55414   0.00000  Uiso   1.00
H1003  H     0.36062   0.79503   0.50538   0.00000  Uiso   1.00
H1004  H     0.56218   0.79808   0.86753   0.00000  Uiso   1.00
H1005  H     0.57885   0.96322   0.72724   0.00000  Uiso   1.00
N1006  N     0.38265   0.83332   0.74998   0.00000  Uiso   1.00
N1007  N     0.61735   0.83335   0.75000   0.00000  Uiso   1.00
O1008  O     0.46042   0.89345   0.75000   0.00000  Uiso   1.00
O1009  O     0.53961   0.89346   0.75000   0.00000  Uiso   1.00
O1010  O     0.44108   0.83332   0.82549   0.00000  Uiso   1.00
O1011  O     0.52027   0.83333   0.82549   0.00000  Uiso   1.00
O1012  O     0.46039   0.77321   0.74999   0.00000  Uiso   1.00
O1013  O     0.53958   0.77322   0.75000   0.00000  Uiso   1.00
O1014  O     0.47973   0.83334   0.67451   0.00000  Uiso   1.00
O1015  O     0.55892   0.83335   0.67451   0.00000  Uiso   1.00
O1016  O     0.40982   0.70768   0.78128   0.00000  Uiso   1.00
C1017  C     0.38337   0.70218   0.74485   0.00000  Uiso   1.00
H1018  H     0.40549   0.71112   0.70504   0.00000  Uiso   1.00
H1019  H     0.35080   0.72241   0.75589   0.00000  Uiso   1.00
H1020  H     0.36990   0.67003   0.74506   0.00000  Uiso   1.00
C1021  C     0.83336   0.91259   0.75029   0.00000  Uiso   1.00
C1022  C     0.81540   0.81262   0.98738   0.00000  Uiso   1.00
C1023  C     0.83066   0.81292   0.93237   0.00000  Uiso   1.00
C1024  C     0.85097   0.81922   0.51430   0.00000  Uiso   1.00
C1025  C     0.90107   0.82291   0.98591   0.00000  Uiso   1.00
C1026  C     0.91585   0.81525   0.93298   0.00000  Uiso   1.00
C1027  C     0.88126   0.80842   0.90703   0.00000  Uiso   1.00
C1028  C     0.83830   0.82394   0.56829   0.00000  Uiso   1.00
C1029  C     0.92293   0.83683   0.56457   0.00000  Uiso   1.00
C1030  C     0.79471   0.81707   0.90516   0.00000  Uiso   1.00
C1031  C     0.87732   0.97895   0.73796   0.00000  Uiso   1.00
C1032  C     0.80789   0.82828   0.84944   0.00000  Uiso   1.00
C1033  C     0.87682   0.68816   0.73830   0.00000  Uiso   1.00
C1034  C     0.83220   0.70928   0.75134   0.00000  Uiso   1.00
C1035  C     0.78749   0.68735   0.76416   0.00000  Uiso   1.00
C1036  C     0.78853   0.97790   0.76472   0.00000  Uiso   1.00
C1037  C     0.83319   0.95710   0.75089   0.00000  Uiso   1.00
C1038  C     0.96589   0.85684   0.78465   0.00000  Uiso   1.00
C1039  C     0.68214   0.85676   0.78472   0.00000  Uiso   1.00
C1040  C     0.70080   0.80992   0.71525   0.00000  Uiso   1.00
C1041  C     0.98451   0.80985   0.71533   0.00000  Uiso   1.00
C1042  C     0.83294   0.75400   0.75064   0.00000  Uiso   1.00
C1043  C     0.85927   0.83342   0.65012   0.00000  Uiso   1.00
C1044  C     0.93614   0.83313   0.51092   0.00000  Uiso   1.00
C1045  C     0.87401   0.83157   0.59349   0.00000  Uiso   1.00
C1046  C     0.74530   0.81069   0.93221   0.00000  Uiso   1.00
C1047  C     0.73146   0.80263   0.98516   0.00000  Uiso   1.00
C1048  C     0.76542   0.80531   0.51296   0.00000  Uiso   1.00
Cu1049 Cu    0.78645   0.83333   0.75000   0.00000  Uiso   1.00
Cu1050 Cu    0.88022   0.83334   0.75000   0.00000  Uiso   1.00
H1051  H     0.95085   0.84384   0.58332   0.00000  Uiso   1.00
H1052  H     0.91145   0.70450   0.72788   0.00000  Uiso   1.00
H1053  H     0.75434   0.96098   0.77683   0.00000  Uiso   1.00
H1054  H     0.93977   0.87570   0.81240   0.00000  Uiso   1.00
H1055  H     0.69336   0.87555   0.81251   0.00000  Uiso   1.00
H1056  H     0.72694   0.79111   0.68744   0.00000  Uiso   1.00
H1057  H     0.97327   0.79098   0.68763   0.00000  Uiso   1.00
H1058  H     0.95435   0.81417   0.91154   0.00000  Uiso   1.00
H1059  H     0.97368   0.83857   0.98865   0.00000  Uiso   1.00
H1060  H     0.80074   0.82211   0.59160   0.00000  Uiso   1.00
H1061  H     0.71737   0.81118   0.91228   0.00000  Uiso   1.00
H1062  H     0.75161   0.80014   0.55414   0.00000  Uiso   1.00
H1063  H     0.69395   0.79503   0.50538   0.00000  Uiso   1.00
H1064  H     0.89551   0.79808   0.86753   0.00000  Uiso   1.00
H1065  H     0.91218   0.96322   0.72724   0.00000  Uiso   1.00
N1066  N     0.71598   0.83332   0.74998   0.00000  Uiso   1.00
N1067  N     0.95069   0.83335   0.75000   0.00000  Uiso   1.00
O1068  O     0.79375   0.89345   0.75000   0.00000  Uiso   1.00
O1069  O     0.87294   0.89346   0.75000   0.00000  Uiso   1.00
O1070  O     0.77441   0.83332   0.82549   0.00000  Uiso   1.00
O1071  O     0.85360   0.83333   0.82549   0.00000  Uiso   1.00
O1072  O     0.79373   0.77321   0.74999   0.00000  Uiso   1.00
O1073  O     0.87292   0.77322   0.75000   0.00000  Uiso   1.00
O1074  O     0.81306   0.83334   0.67451   0.00000  Uiso   1.00
O1075  O     0.89225   0.83335   0.67451   0.00000  Uiso   1.00
O1076  O     0.74315   0.70768   0.78128   0.00000  Uiso   1.00
C1077  C     0.71670   0.70218   0.74485   0.00000  Uiso   1.00
H1078  H     0.73883   0.71112   0.70504   0.00000  Uiso   1.00
H1079  H     0.68414   0.72241   0.75589   0.00000  Uiso   1.00
H1080  H     0.70324   0.67003   0.74506   0.00000  Uiso   1.00
loop_
_geom_bond_atom_site_label_1
_geom_bond_atom_site_label_2
_geom_bond_distance
_geom_bond_site_symmetry_2
_ccdc_geom_bond_type
C1     C17     1.447   .     S
C1     O48     1.290   .     A
C1     O49     1.291   .     A
C2     C3      1.418   .     A
C2     C544    1.424   .     S
C2     C568    1.413   .     S
C3     C10     1.431   .     A
C3     C7      1.416   .     A
C4     C8      1.401   .     A
C4     C542    1.424   1_554 S
C4     C545    1.418   1_554 S
C5     C6      1.387   .     A
C5     C544    1.418   .     S
C5     C564    1.398   .     S
C6     H38     1.085   .     S
C6     C7      1.382   .     A
C7     H44     1.076   .     S
C8     C25     1.400   .     A
C8     H40     1.076   .     S
C9     C24     1.389   .     A
C9     C25     1.399   .     A
C9     H31     1.083   .     S
C10    C26     1.403   .     A
C10    C12     1.484   .     S
C11    H45     1.083   .     S
C11    C17     1.398   .     A
C11    C193    1.383   .     S
C12    O50     1.310   .     A
C12    O51     1.288   .     A
C13    H32     1.084   .     S
C13    C14     1.402   .     A
C13    C371    1.383   1_545 S
C14    C22     1.454   .     S
C14    C15     1.413   .     A
C15    O56     1.386   .     S
C15    C376    1.392   1_545 S
C16    H33     1.083   .     S
C16    C17     1.398   .     A
C16    C195    1.392   .     S
C18    N47     1.367   .     A
C18    H34     1.082   .     S
C18    C79     1.417   .     S
C19    N46     1.367   .     A
C19    H35     1.082   .     S
C19    C138    1.417   1_455 S
C20    H36     1.082   .     S
C20    N46     1.367   .     A
C20    C141    1.417   1_455 S
C21    H37     1.082   .     S
C21    N47     1.367   .     A
C21    C80     1.417   .     S
C22    O53     1.294   .     A
C22    O52     1.290   .     A
C23    O55     1.295   .     A
C23    C25     1.461   .     S
C23    O54     1.293   .     A
C24    C545    1.398   1_554 S
C24    H579    1.080   1_554 S
C26    C27     1.391   .     A
C26    H41     1.083   .     S
C27    C568    1.389   .     S
C27    H583    1.080   .     S
C28    H42     1.078   .     S
C28    C567    1.389   1_554 S
C28    C542    1.413   1_554 S
Cu29   N46     2.013   .     S
Cu29   Cu30    2.678   .     S
Cu29   O50     1.962   .     S
Cu29   O54     1.954   .     S
Cu29   O48     1.965   .     S
Cu29   O52     1.966   .     S
Cu30   O51     1.954   .     S
Cu30   O55     1.962   .     S
Cu30   O49     1.966   .     S
Cu30   O53     1.965   .     S
Cu30   N47     2.012   .     S
H39    C564    1.080   .     S
H43    C567    1.080   1_554 S
O56    C57     1.412   .     S
C57    H58     1.114   .     S
C57    H59     1.109   .     S
C57    H60     1.111   .     S
C61    C77     1.447   .     S
C61    O108    1.290   .     A
C61    O109    1.291   .     A
C62    C63     1.418   .     A
C62    C604    1.424   .     S
C62    C628    1.413   .     S
C63    C70     1.431   .     A
C63    C67     1.416   .     A
C64    C68     1.401   .     A
C64    C602    1.424   1_554 S
C64    C605    1.418   1_554 S
C65    C66     1.387   .     A
C65    C604    1.418   .     S
C65    C624    1.398   .     S
C66    H98     1.085   .     S
C66    C67     1.382   .     A
C67    H104    1.076   .     S
C68    C85     1.400   .     A
C68    H100    1.076   .     S
C69    C84     1.389   .     A
C69    C85     1.399   .     A
C69    H91     1.083   .     S
C70    C86     1.403   .     A
C70    C72     1.484   .     S
C71    H105    1.083   .     S
C71    C77     1.398   .     A
C71    C253    1.383   .     S
C72    O110    1.310   .     A
C72    O111    1.288   .     A
C73    H92     1.084   .     S
C73    C74     1.402   .     A
C73    C431    1.383   1_545 S
C74    C82     1.454   .     S
C74    C75     1.413   .     A
C75    O116    1.386   .     S
C75    C436    1.392   1_545 S
C76    H93     1.083   .     S
C76    C77     1.398   .     A
C76    C255    1.392   .     S
C78    N107    1.367   .     A
C78    H94     1.082   .     S
C78    C139    1.417   .     S
C79    N106    1.367   .     A
C79    H95     1.082   .     S
C80    H96     1.082   .     S
C80    N106    1.367   .     A
C81    H97     1.082   .     S
C81    N107    1.367   .     A
C81    C140    1.417   .     S
C82    O113    1.294   .     A
C82    O112    1.290   .     A
C83    O115    1.295   .     A
C83    C85     1.461   .     S
C83    O114    1.293   .     A
C84    C605    1.398   1_554 S
C84    H639    1.080   1_554 S
C86    C87     1.391   .     A
C86    H101    1.083   .     S
C87    C628    1.389   .     S
C87    H643    1.080   .     S
C88    H102    1.078   .     S
C88    C627    1.389   1_554 S
C88    C602    1.413   1_554 S
Cu89   N106    2.013   .     S
Cu89   Cu90    2.678   .     S
Cu89   O110    1.962   .     S
Cu89   O114    1.954   .     S
Cu89   O108    1.965   .     S
Cu89   O112    1.966   .     S
Cu90   O111    1.954   .     S
Cu90   O115    1.962   .     S
Cu90   O109    1.966   .     S
Cu90   O113    1.965   .     S
Cu90   N107    2.012   .     S
H99    C624    1.080   .     S
H103   C627    1.080   1_554 S
O116   C117    1.412   .     S
C117   H118    1.114   .     S
C117   H119    1.109   .     S
C117   H120    1.111   .     S
C121   C137    1.447   .     S
C121   O168    1.290   .     A
C121   O169    1.291   .     A
C122   C123    1.418   .     A
C122   C664    1.424   .     S
C122   C688    1.413   .     S
C123   C130    1.431   .     A
C123   C127    1.416   .     A
C124   C128    1.401   .     A
C124   C662    1.424   1_554 S
C124   C665    1.418   1_554 S
C125   C126    1.387   .     A
C125   C664    1.418   .     S
C125   C684    1.398   .     S
C126   H158    1.085   .     S
C126   C127    1.382   .     A
C127   H164    1.076   .     S
C128   C145    1.400   .     A
C128   H160    1.076   .     S
C129   C144    1.389   .     A
C129   C145    1.399   .     A
C129   H151    1.083   .     S
C130   C146    1.403   .     A
C130   C132    1.484   .     S
C131   H165    1.083   .     S
C131   C137    1.398   .     A
C131   C313    1.383   .     S
C132   O170    1.310   .     A
C132   O171    1.288   .     A
C133   H152    1.084   .     S
C133   C134    1.402   .     A
C133   C491    1.383   1_545 S
C134   C142    1.454   .     S
C134   C135    1.413   .     A
C135   O176    1.386   .     S
C135   C496    1.392   1_545 S
C136   H153    1.083   .     S
C136   C137    1.398   .     A
C136   C315    1.392   .     S
C138   N167    1.367   .     A
C138   H154    1.082   .     S
C138   C19     1.417   1_655 S
C139   N166    1.367   .     A
C139   H155    1.082   .     S
C140   H156    1.082   .     S
C140   N166    1.367   .     A
C141   H157    1.082   .     S
C141   N167    1.367   .     A
C141   C20     1.417   1_655 S
C142   O173    1.294   .     A
C142   O172    1.290   .     A
C143   O175    1.295   .     A
C143   C145    1.461   .     S
C143   O174    1.293   .     A
C144   C665    1.398   1_554 S
C144   H699    1.080   1_554 S
C146   C147    1.391   .     A
C146   H161    1.083   .     S
C147   C688    1.389   .     S
C147   H703    1.080   .     S
C148   H162    1.078   .     S
C148   C687    1.389   1_554 S
C148   C662    1.413   1_554 S
Cu149  N166    2.013   .     S
Cu149  Cu150   2.678   .     S
Cu149  O170    1.962   .     S
Cu149  O174    1.954   .     S
Cu149  O168    1.965   .     S
Cu149  O172    1.966   .     S
Cu150  O171    1.954   .     S
Cu150  O175    1.962   .     S
Cu150  O169    1.966   .     S
Cu150  O173    1.965   .     S
Cu150  N167    2.012   .     S
H159   C684    1.080   .     S
H163   C687    1.080   1_554 S
O176   C177    1.412   .     S
C177   H178    1.114   .     S
C177   H179    1.109   .     S
C177   H180    1.111   .     S
C181   C197    1.447   .     S
C181   O228    1.290   .     A
C181   O229    1.291   .     A
C182   C183    1.418   .     A
C182   C724    1.424   .     S
C182   C748    1.413   .     S
C183   C190    1.431   .     A
C183   C187    1.416   .     A
C184   C188    1.401   .     A
C184   C722    1.424   1_554 S
C184   C725    1.418   1_554 S
C185   C186    1.387   .     A
C185   C724    1.418   .     S
C185   C744    1.398   .     S
C186   H218    1.085   .     S
C186   C187    1.382   .     A
C187   H224    1.076   .     S
C188   C205    1.400   .     A
C188   H220    1.076   .     S
C189   C204    1.389   .     A
C189   C205    1.399   .     A
C189   H211    1.083   .     S
C190   C206    1.403   .     A
C190   C192    1.484   .     S
C191   H225    1.083   .     S
C191   C197    1.398   .     A
C191   C373    1.383   .     S
C192   O230    1.310   .     A
C192   O231    1.288   .     A
C193   H212    1.084   .     S
C193   C194    1.402   .     A
C194   C202    1.454   .     S
C194   C195    1.413   .     A
C195   O236    1.386   .     S
C196   H213    1.083   .     S
C196   C197    1.398   .     A
C196   C375    1.392   .     S
C198   N227    1.367   .     A
C198   H214    1.082   .     S
C198   C259    1.417   .     S
C199   N226    1.367   .     A
C199   H215    1.082   .     S
C199   C318    1.417   1_455 S
C200   H216    1.082   .     S
C200   N226    1.367   .     A
C200   C321    1.417   1_455 S
C201   H217    1.082   .     S
C201   N227    1.367   .     A
C201   C260    1.417   .     S
C202   O233    1.294   .     A
C202   O232    1.290   .     A
C203   O235    1.295   .     A
C203   C205    1.461   .     S
C203   O234    1.293   .     A
C204   C725    1.398   1_554 S
C204   H759    1.080   1_554 S
C206   C207    1.391   .     A
C206   H221    1.083   .     S
C207   C748    1.389   .     S
C207   H763    1.080   .     S
C208   H222    1.078   .     S
C208   C747    1.389   1_554 S
C208   C722    1.413   1_554 S
Cu209  N226    2.013   .     S
Cu209  Cu210   2.678   .     S
Cu209  O230    1.962   .     S
Cu209  O234    1.954   .     S
Cu209  O228    1.965   .     S
Cu209  O232    1.966   .     S
Cu210  O231    1.954   .     S
Cu210  O235    1.962   .     S
Cu210  O229    1.966   .     S
Cu210  O233    1.965   .     S
Cu210  N227    2.012   .     S
H219   C744    1.080   .     S
H223   C747    1.080   1_554 S
O236   C237    1.412   .     S
C237   H238    1.114   .     S
C237   H239    1.109   .     S
C237   H240    1.111   .     S
C241   C257    1.447   .     S
C241   O288    1.290   .     A
C241   O289    1.291   .     A
C242   C243    1.418   .     A
C242   C784    1.424   .     S
C242   C808    1.413   .     S
C243   C250    1.431   .     A
C243   C247    1.416   .     A
C244   C248    1.401   .     A
C244   C782    1.424   1_554 S
C244   C785    1.418   1_554 S
C245   C246    1.387   .     A
C245   C784    1.418   .     S
C245   C804    1.398   .     S
C246   H278    1.085   .     S
C246   C247    1.382   .     A
C247   H284    1.076   .     S
C248   C265    1.400   .     A
C248   H280    1.076   .     S
C249   C264    1.389   .     A
C249   C265    1.399   .     A
C249   H271    1.083   .     S
C250   C266    1.403   .     A
C250   C252    1.484   .     S
C251   H285    1.083   .     S
C251   C257    1.398   .     A
C251   C433    1.383   .     S
C252   O290    1.310   .     A
C252   O291    1.288   .     A
C253   H272    1.084   .     S
C253   C254    1.402   .     A
C254   C262    1.454   .     S
C254   C255    1.413   .     A
C255   O296    1.386   .     S
C256   H273    1.083   .     S
C256   C257    1.398   .     A
C256   C435    1.392   .     S
C258   N287    1.367   .     A
C258   H274    1.082   .     S
C258   C319    1.417   .     S
C259   N286    1.367   .     A
C259   H275    1.082   .     S
C260   H276    1.082   .     S
C260   N286    1.367   .     A
C261   H277    1.082   .     S
C261   N287    1.367   .     A
C261   C320    1.417   .     S
C262   O293    1.294   .     A
C262   O292    1.290   .     A
C263   O295    1.295   .     A
C263   C265    1.461   .     S
C263   O294    1.293   .     A
C264   C785    1.398   1_554 S
C264   H819    1.080   1_554 S
C266   C267    1.391   .     A
C266   H281    1.083   .     S
C267   C808    1.389   .     S
C267   H823    1.080   .     S
C268   H282    1.078   .     S
C268   C807    1.389   1_554 S
C268   C782    1.413   1_554 S
Cu269  N286    2.013   .     S
Cu269  Cu270   2.678   .     S
Cu269  O290    1.962   .     S
Cu269  O294    1.954   .     S
Cu269  O288    1.965   .     S
Cu269  O292    1.966   .     S
Cu270  O291    1.954   .     S
Cu270  O295    1.962   .     S
Cu270  O289    1.966   .     S
Cu270  O293    1.965   .     S
Cu270  N287    2.012   .     S
H279   C804    1.080   .     S
H283   C807    1.080   1_554 S
O296   C297    1.412   .     S
C297   H298    1.114   .     S
C297   H299    1.109   .     S
C297   H300    1.111   .     S
C301   C317    1.447   .     S
C301   O348    1.290   .     A
C301   O349    1.291   .     A
C302   C303    1.418   .     A
C302   C844    1.424   .     S
C302   C868    1.413   .     S
C303   C310    1.431   .     A
C303   C307    1.416   .     A
C304   C308    1.401   .     A
C304   C842    1.424   1_554 S
C304   C845    1.418   1_554 S
C305   C306    1.387   .     A
C305   C844    1.418   .     S
C305   C864    1.398   .     S
C306   H338    1.085   .     S
C306   C307    1.382   .     A
C307   H344    1.076   .     S
C308   C325    1.400   .     A
C308   H340    1.076   .     S
C309   C324    1.389   .     A
C309   C325    1.399   .     A
C309   H331    1.083   .     S
C310   C326    1.403   .     A
C310   C312    1.484   .     S
C311   H345    1.083   .     S
C311   C317    1.398   .     A
C311   C493    1.383   .     S
C312   O350    1.310   .     A
C312   O351    1.288   .     A
C313   H332    1.084   .     S
C313   C314    1.402   .     A
C314   C322    1.454   .     S
C314   C315    1.413   .     A
C315   O356    1.386   .     S
C316   H333    1.083   .     S
C316   C317    1.398   .     A
C316   C495    1.392   .     S
C318   N347    1.367   .     A
C318   H334    1.082   .     S
C318   C199    1.417   1_655 S
C319   N346    1.367   .     A
C319   H335    1.082   .     S
C320   H336    1.082   .     S
C320   N346    1.367   .     A
C321   H337    1.082   .     S
C321   N347    1.367   .     A
C321   C200    1.417   1_655 S
C322   O353    1.294   .     A
C322   O352    1.290   .     A
C323   O355    1.295   .     A
C323   C325    1.461   .     S
C323   O354    1.293   .     A
C324   C845    1.398   1_554 S
C324   H879    1.080   1_554 S
C326   C327    1.391   .     A
C326   H341    1.083   .     S
C327   C868    1.389   .     S
C327   H883    1.080   .     S
C328   H342    1.078   .     S
C328   C867    1.389   1_554 S
C328   C842    1.413   1_554 S
Cu329  N346    2.013   .     S
Cu329  Cu330   2.678   .     S
Cu329  O350    1.962   .     S
Cu329  O354    1.954   .     S
Cu329  O348    1.965   .     S
Cu329  O352    1.966   .     S
Cu330  O351    1.954   .     S
Cu330  O355    1.962   .     S
Cu330  O349    1.966   .     S
Cu330  O353    1.965   .     S
Cu330  N347    2.012   .     S
H339   C864    1.080   .     S
H343   C867    1.080   1_554 S
O356   C357    1.412   .     S
C357   H358    1.114   .     S
C357   H359    1.109   .     S
C357   H360    1.111   .     S
C361   C377    1.447   .     S
C361   O408    1.290   .     A
C361   O409    1.291   .     A
C362   C363    1.418   .     A
C362   C904    1.424   .     S
C362   C928    1.413   .     S
C363   C370    1.431   .     A
C363   C367    1.416   .     A
C364   C368    1.401   .     A
C364   C902    1.424   1_554 S
C364   C905    1.418   1_554 S
C365   C366    1.387   .     A
C365   C904    1.418   .     S
C365   C924    1.398   .     S
C366   H398    1.085   .     S
C366   C367    1.382   .     A
C367   H404    1.076   .     S
C368   C385    1.400   .     A
C368   H400    1.076   .     S
C369   C384    1.389   .     A
C369   C385    1.399   .     A
C369   H391    1.083   .     S
C370   C386    1.403   .     A
C370   C372    1.484   .     S
C371   H405    1.083   .     S
C371   C377    1.398   .     A
C371   C13     1.383   1_565 S
C372   O410    1.310   .     A
C372   O411    1.288   .     A
C373   H392    1.084   .     S
C373   C374    1.402   .     A
C374   C382    1.454   .     S
C374   C375    1.413   .     A
C375   O416    1.386   .     S
C376   H393    1.083   .     S
C376   C377    1.398   .     A
C376   C15     1.392   1_565 S
C378   N407    1.367   .     A
C378   H394    1.082   .     S
C378   C439    1.417   .     S
C379   N406    1.367   .     A
C379   H395    1.082   .     S
C379   C498    1.417   1_455 S
C380   H396    1.082   .     S
C380   N406    1.367   .     A
C380   C501    1.417   1_455 S
C381   H397    1.082   .     S
C381   N407    1.367   .     A
C381   C440    1.417   .     S
C382   O413    1.294   .     A
C382   O412    1.290   .     A
C383   O415    1.295   .     A
C383   C385    1.461   .     S
C383   O414    1.293   .     A
C384   C905    1.398   1_554 S
C384   H939    1.080   1_554 S
C386   C387    1.391   .     A
C386   H401    1.083   .     S
C387   C928    1.389   .     S
C387   H943    1.080   .     S
C388   H402    1.078   .     S
C388   C927    1.389   1_554 S
C388   C902    1.413   1_554 S
Cu389  N406    2.013   .     S
Cu389  Cu390   2.678   .     S
Cu389  O410    1.962   .     S
Cu389  O414    1.954   .     S
Cu389  O408    1.965   .     S
Cu389  O412    1.966   .     S
Cu390  O411    1.954   .     S
Cu390  O415    1.962   .     S
Cu390  O409    1.966   .     S
Cu390  O413    1.965   .     S
Cu390  N407    2.012   .     S
H399   C924    1.080   .     S
H403   C927    1.080   1_554 S
O416   C417    1.412   .     S
C417   H418    1.114   .     S
C417   H419    1.109   .     S
C417   H420    1.111   .     S
C421   C437    1.447   .     S
C421   O468    1.290   .     A
C421   O469    1.291   .     A
C422   C423    1.418   .     A
C422   C964    1.424   .     S
C422   C988    1.413   .     S
C423   C430    1.431   .     A
C423   C427    1.416   .     A
C424   C428    1.401   .     A
C424   C962    1.424   1_554 S
C424   C965    1.418   1_554 S
C425   C426    1.387   .     A
C425   C964    1.418   .     S
C425   C984    1.398   .     S
C426   H458    1.085   .     S
C426   C427    1.382   .     A
C427   H464    1.076   .     S
C428   C445    1.400   .     A
C428   H460    1.076   .     S
C429   C444    1.389   .     A
C429   C445    1.399   .     A
C429   H451    1.083   .     S
C430   C446    1.403   .     A
C430   C432    1.484   .     S
C431   H465    1.083   .     S
C431   C437    1.398   .     A
C431   C73     1.383   1_565 S
C432   O470    1.310   .     A
C432   O471    1.288   .     A
C433   H452    1.084   .     S
C433   C434    1.402   .     A
C434   C442    1.454   .     S
C434   C435    1.413   .     A
C435   O476    1.386   .     S
C436   H453    1.083   .     S
C436   C437    1.398   .     A
C436   C75     1.392   1_565 S
C438   N467    1.367   .     A
C438   H454    1.082   .     S
C438   C499    1.417   .     S
C439   N466    1.367   .     A
C439   H455    1.082   .     S
C440   H456    1.082   .     S
C440   N466    1.367   .     A
C441   H457    1.082   .     S
C441   N467    1.367   .     A
C441   C500    1.417   .     S
C442   O473    1.294   .     A
C442   O472    1.290   .     A
C443   O475    1.295   .     A
C443   C445    1.461   .     S
C443   O474    1.293   .     A
C444   C965    1.398   1_554 S
C444   H999    1.080   1_554 S
C446   C447    1.391   .     A
C446   H461    1.083   .     S
C447   C988    1.389   .     S
C447   H1003   1.080   .     S
C448   H462    1.078   .     S
C448   C987    1.389   1_554 S
C448   C962    1.413   1_554 S
Cu449  N466    2.013   .     S
Cu449  Cu450   2.678   .     S
Cu449  O470    1.962   .     S
Cu449  O474    1.954   .     S
Cu449  O468    1.965   .     S
Cu449  O472    1.966   .     S
Cu450  O471    1.954   .     S
Cu450  O475    1.962   .     S
Cu450  O469    1.966   .     S
Cu450  O473    1.965   .     S
Cu450  N467    2.012   .     S
H459   C984    1.080   .     S
H463   C987    1.080   1_554 S
O476   C477    1.412   .     S
C477   H478    1.114   .     S
C477   H479    1.109   .     S
C477   H480    1.111   .     S
C481   C497    1.447   .     S
C481   O528    1.290   .     A
C481   O529    1.291   .     A
C482   C483    1.418   .     A
C482   C1024   1.424   .     S
C482   C1048   1.413   .     S
C483   C490    1.431   .     A
C483   C487    1.416   .     A
C484   C488    1.401   .     A
C484   C1022   1.424   1_554 S
C484   C1025   1.418   1_554 S
C485   C486    1.387   .     A
C485   C1024   1.418   .     S
C485   C1044   1.398   .     S
C486   H518    1.085   .     S
C486   C487    1.382   .     A
C487   H524    1.076   .     S
C488   C505    1.400   .     A
C488   H520    1.076   .     S
C489   C504    1.389   .     A
C489   C505    1.399   .     A
C489   H511    1.083   .     S
C490   C506    1.403   .     A
C490   C492    1.484   .     S
C491   H525    1.083   .     S
C491   C497    1.398   .     A
C491   C133    1.383   1_565 S
C492   O530    1.310   .     A
C492   O531    1.288   .     A
C493   H512    1.084   .     S
C493   C494    1.402   .     A
C494   C502    1.454   .     S
C494   C495    1.413   .     A
C495   O536    1.386   .     S
C496   H513    1.083   .     S
C496   C497    1.398   .     A
C496   C135    1.392   1_565 S
C498   N527    1.367   .     A
C498   H514    1.082   .     S
C498   C379    1.417   1_655 S
C499   N526    1.367   .     A
C499   H515    1.082   .     S
C500   H516    1.082   .     S
C500   N526    1.367   .     A
C501   H517    1.082   .     S
C501   N527    1.367   .     A
C501   C380    1.417   1_655 S
C502   O533    1.294   .     A
C502   O532    1.290   .     A
C503   O535    1.295   .     A
C503   C505    1.461   .     S
C503   O534    1.293   .     A
C504   C1025   1.398   1_554 S
C504   H1059   1.080   1_554 S
C506   C507    1.391   .     A
C506   H521    1.083   .     S
C507   C1048   1.389   .     S
C507   H1063   1.080   .     S
C508   H522    1.078   .     S
C508   C1047   1.389   1_554 S
C508   C1022   1.413   1_554 S
Cu509  N526    2.013   .     S
Cu509  Cu510   2.678   .     S
Cu509  O530    1.962   .     S
Cu509  O534    1.954   .     S
Cu509  O528    1.965   .     S
Cu509  O532    1.966   .     S
Cu510  O531    1.954   .     S
Cu510  O535    1.962   .     S
Cu510  O529    1.966   .     S
Cu510  O533    1.965   .     S
Cu510  N527    2.012   .     S
H519   C1044   1.080   .     S
H523   C1047   1.080   1_554 S
O536   C537    1.412   .     S
C537   H538    1.114   .     S
C537   H539    1.109   .     S
C537   H540    1.111   .     S
C541   C557    1.447   .     S
C541   O588    1.290   .     A
C541   O589    1.291   .     A
C542   C543    1.418   .     A
C542   C4      1.424   1_556 S
C542   C28     1.413   1_556 S
C543   C550    1.431   .     A
C543   C547    1.416   .     A
C544   C548    1.401   .     A
C545   C546    1.387   .     A
C545   C4      1.418   1_556 S
C545   C24     1.398   1_556 S
C546   H578    1.085   .     S
C546   C547    1.382   .     A
C547   H584    1.076   .     S
C548   C565    1.400   .     A
C548   H580    1.076   .     S
C549   C564    1.389   .     A
C549   C565    1.399   .     A
C549   H571    1.083   .     S
C550   C566    1.403   .     A
C550   C552    1.484   .     S
C551   H585    1.083   .     S
C551   C557    1.398   .     A
C551   C733    1.383   .     S
C552   O590    1.310   .     A
C552   O591    1.288   .     A
C553   H572    1.084   .     S
C553   C554    1.402   .     A
C553   C911    1.383   1_545 S
C554   C562    1.454   .     S
C554   C555    1.413   .     A
C555   O596    1.386   .     S
C555   C916    1.392   1_545 S
C556   H573    1.083   .     S
C556   C557    1.398   .     A
C556   C735    1.392   .     S
C558   N587    1.367   .     A
C558   H574    1.082   .     S
C558   C619    1.417   .     S
C559   N586    1.367   .     A
C559   H575    1.082   .     S
C559   C678    1.417   1_455 S
C560   H576    1.082   .     S
C560   N586    1.367   .     A
C560   C681    1.417   1_455 S
C561   H577    1.082   .     S
C561   N587    1.367   .     A
C561   C620    1.417   .     S
C562   O593    1.294   .     A
C562   O592    1.290   .     A
C563   O595    1.295   .     A
C563   C565    1.461   .     S
C563   O594    1.293   .     A
C566   C567    1.391   .     A
C566   H581    1.083   .     S
C567   C28     1.389   1_556 S
C567   H43     1.080   1_556 S
C568   H582    1.078   .     S
Cu569  N586    2.013   .     S
Cu569  Cu570   2.678   .     S
Cu569  O590    1.962   .     S
Cu569  O594    1.954   .     S
Cu569  O588    1.965   .     S
Cu569  O592    1.966   .     S
Cu570  O591    1.954   .     S
Cu570  O595    1.962   .     S
Cu570  O589    1.966   .     S
Cu570  O593    1.965   .     S
Cu570  N587    2.012   .     S
H579   C24     1.080   1_556 S
O596   C597    1.412   .     S
C597   H598    1.114   .     S
C597   H599    1.109   .     S
C597   H600    1.111   .     S
C601   C617    1.447   .     S
C601   O648    1.290   .     A
C601   O649    1.291   .     A
C602   C603    1.418   .     A
C602   C64     1.424   1_556 S
C602   C88     1.413   1_556 S
C603   C610    1.431   .     A
C603   C607    1.416   .     A
C604   C608    1.401   .     A
C605   C606    1.387   .     A
C605   C64     1.418   1_556 S
C605   C84     1.398   1_556 S
C606   H638    1.085   .     S
C606   C607    1.382   .     A
C607   H644    1.076   .     S
C608   C625    1.400   .     A
C608   H640    1.076   .     S
C609   C624    1.389   .     A
C609   C625    1.399   .     A
C609   H631    1.083   .     S
C610   C626    1.403   .     A
C610   C612    1.484   .     S
C611   H645    1.083   .     S
C611   C617    1.398   .     A
C611   C793    1.383   .     S
C612   O650    1.310   .     A
C612   O651    1.288   .     A
C613   H632    1.084   .     S
C613   C614    1.402   .     A
C613   C971    1.383   1_545 S
C614   C622    1.454   .     S
C614   C615    1.413   .     A
C615   O656    1.386   .     S
C615   C976    1.392   1_545 S
C616   H633    1.083   .     S
C616   C617    1.398   .     A
C616   C795    1.392   .     S
C618   N647    1.367   .     A
C618   H634    1.082   .     S
C618   C679    1.417   .     S
C619   N646    1.367   .     A
C619   H635    1.082   .     S
C620   H636    1.082   .     S
C620   N646    1.367   .     A
C621   H637    1.082   .     S
C621   N647    1.367   .     A
C621   C680    1.417   .     S
C622   O653    1.294   .     A
C622   O652    1.290   .     A
C623   O655    1.295   .     A
C623   C625    1.461   .     S
C623   O654    1.293   .     A
C626   C627    1.391   .     A
C626   H641    1.083   .     S
C627   C88     1.389   1_556 S
C627   H103    1.080   1_556 S
C628   H642    1.078   .     S
Cu629  N646    2.013   .     S
Cu629  Cu630   2.678   .     S
Cu629  O650    1.962   .     S
Cu629  O654    1.954   .     S
Cu629  O648    1.965   .     S
Cu629  O652    1.966   .     S
Cu630  O651    1.954   .     S
Cu630  O655    1.962   .     S
Cu630  O649    1.966   .     S
Cu630  O653    1.965   .     S
Cu630  N647    2.012   .     S
H639   C84     1.080   1_556 S
O656   C657    1.412   .     S
C657   H658    1.114   .     S
C657   H659    1.109   .     S
C657   H660    1.111   .     S
C661   C677    1.447   .     S
C661   O708    1.290   .     A
C661   O709    1.291   .     A
C662   C663    1.418   .     A
C662   C124    1.424   1_556 S
C662   C148    1.413   1_556 S
C663   C670    1.431   .     A
C663   C667    1.416   .     A
C664   C668    1.401   .     A
C665   C666    1.387   .     A
C665   C124    1.418   1_556 S
C665   C144    1.398   1_556 S
C666   H698    1.085   .     S
C666   C667    1.382   .     A
C667   H704    1.076   .     S
C668   C685    1.400   .     A
C668   H700    1.076   .     S
C669   C684    1.389   .     A
C669   C685    1.399   .     A
C669   H691    1.083   .     S
C670   C686    1.403   .     A
C670   C672    1.484   .     S
C671   H705    1.083   .     S
C671   C677    1.398   .     A
C671   C853    1.383   .     S
C672   O710    1.310   .     A
C672   O711    1.288   .     A
C673   H692    1.084   .     S
C673   C674    1.402   .     A
C673   C1031   1.383   1_545 S
C674   C682    1.454   .     S
C674   C675    1.413   .     A
C675   O716    1.386   .     S
C675   C1036   1.392   1_545 S
C676   H693    1.083   .     S
C676   C677    1.398   .     A
C676   C855    1.392   .     S
C678   N707    1.367   .     A
C678   H694    1.082   .     S
C678   C559    1.417   1_655 S
C679   N706    1.367   .     A
C679   H695    1.082   .     S
C680   H696    1.082   .     S
C680   N706    1.367   .     A
C681   H697    1.082   .     S
C681   N707    1.367   .     A
C681   C560    1.417   1_655 S
C682   O713    1.294   .     A
C682   O712    1.290   .     A
C683   O715    1.295   .     A
C683   C685    1.461   .     S
C683   O714    1.293   .     A
C686   C687    1.391   .     A
C686   H701    1.083   .     S
C687   C148    1.389   1_556 S
C687   H163    1.080   1_556 S
C688   H702    1.078   .     S
Cu689  N706    2.013   .     S
Cu689  Cu690   2.678   .     S
Cu689  O710    1.962   .     S
Cu689  O714    1.954   .     S
Cu689  O708    1.965   .     S
Cu689  O712    1.966   .     S
Cu690  O711    1.954   .     S
Cu690  O715    1.962   .     S
Cu690  O709    1.966   .     S
Cu690  O713    1.965   .     S
Cu690  N707    2.012   .     S
H699   C144    1.080   1_556 S
O716   C717    1.412   .     S
C717   H718    1.114   .     S
C717   H719    1.109   .     S
C717   H720    1.111   .     S
C721   C737    1.447   .     S
C721   O768    1.290   .     A
C721   O769    1.291   .     A
C722   C723    1.418   .     A
C722   C184    1.424   1_556 S
C722   C208    1.413   1_556 S
C723   C730    1.431   .     A
C723   C727    1.416   .     A
C724   C728    1.401   .     A
C725   C726    1.387   .     A
C725   C184    1.418   1_556 S
C725   C204    1.398   1_556 S
C726   H758    1.085   .     S
C726   C727    1.382   .     A
C727   H764    1.076   .     S
C728   C745    1.400   .     A
C728   H760    1.076   .     S
C729   C744    1.389   .     A
C729   C745    1.399   .     A
C729   H751    1.083   .     S
C730   C746    1.403   .     A
C730   C732    1.484   .     S
C731   H765    1.083   .     S
C731   C737    1.398   .     A
C731   C913    1.383   .     S
C732   O770    1.310   .     A
C732   O771    1.288   .     A
C733   H752    1.084   .     S
C733   C734    1.402   .     A
C734   C742    1.454   .     S
C734   C735    1.413   .     A
C735   O776    1.386   .     S
C736   H753    1.083   .     S
C736   C737    1.398   .     A
C736   C915    1.392   .     S
C738   N767    1.367   .     A
C738   H754    1.082   .     S
C738   C799    1.417   .     S
C739   N766    1.367   .     A
C739   H755    1.082   .     S
C739   C858    1.417   1_455 S
C740   H756    1.082   .     S
C740   N766    1.367   .     A
C740   C861    1.417   1_455 S
C741   H757    1.082   .     S
C741   N767    1.367   .     A
C741   C800    1.417   .     S
C742   O773    1.294   .     A
C742   O772    1.290   .     A
C743   O775    1.295   .     A
C743   C745    1.461   .     S
C743   O774    1.293   .     A
C746   C747    1.391   .     A
C746   H761    1.083   .     S
C747   C208    1.389   1_556 S
C747   H223    1.080   1_556 S
C748   H762    1.078   .     S
Cu749  N766    2.013   .     S
Cu749  Cu750   2.678   .     S
Cu749  O770    1.962   .     S
Cu749  O774    1.954   .     S
Cu749  O768    1.965   .     S
Cu749  O772    1.966   .     S
Cu750  O771    1.954   .     S
Cu750  O775    1.962   .     S
Cu750  O769    1.966   .     S
Cu750  O773    1.965   .     S
Cu750  N767    2.012   .     S
H759   C204    1.080   1_556 S
O776   C777    1.412   .     S
C777   H778    1.114   .     S
C777   H779    1.109   .     S
C777   H780    1.111   .     S
C781   C797    1.447   .     S
C781   O828    1.290   .     A
C781   O829    1.291   .     A
C782   C783    1.418   .     A
C782   C244    1.424   1_556 S
C782   C268    1.413   1_556 S
C783   C790    1.431   .     A
C783   C787    1.416   .     A
C784   C788    1.401   .     A
C785   C786    1.387   .     A
C785   C244    1.418   1_556 S
C785   C264    1.398   1_556 S
C786   H818    1.085   .     S
C786   C787    1.382   .     A
C787   H824    1.076   .     S
C788   C805    1.400   .     A
C788   H820    1.076   .     S
C789   C804    1.389   .     A
C789   C805    1.399   .     A
C789   H811    1.083   .     S
C790   C806    1.403   .     A
C790   C792    1.484   .     S
C791   H825    1.083   .     S
C791   C797    1.398   .     A
C791   C973    1.383   .     S
C792   O830    1.310   .     A
C792   O831    1.288   .     A
C793   H812    1.084   .     S
C793   C794    1.402   .     A
C794   C802    1.454   .     S
C794   C795    1.413   .     A
C795   O836    1.386   .     S
C796   H813    1.083   .     S
C796   C797    1.398   .     A
C796   C975    1.392   .     S
C798   N827    1.367   .     A
C798   H814    1.082   .     S
C798   C859    1.417   .     S
C799   N826    1.367   .     A
C799   H815    1.082   .     S
C800   H816    1.082   .     S
C800   N826    1.367   .     A
C801   H817    1.082   .     S
C801   N827    1.367   .     A
C801   C860    1.417   .     S
C802   O833    1.294   .     A
C802   O832    1.290   .     A
C803   O835    1.295   .     A
C803   C805    1.461   .     S
C803   O834    1.293   .     A
C806   C807    1.391   .     A
C806   H821    1.083   .     S
C807   C268    1.389   1_556 S
C807   H283    1.080   1_556 S
C808   H822    1.078   .     S
Cu809  N826    2.013   .     S
Cu809  Cu810   2.678   .     S
Cu809  O830    1.962   .     S
Cu809  O834    1.954   .     S
Cu809  O828    1.965   .     S
Cu809  O832    1.966   .     S
Cu810  O831    1.954   .     S
Cu810  O835    1.962   .     S
Cu810  O829    1.966   .     S
Cu810  O833    1.965   .     S
Cu810  N827    2.012   .     S
H819   C264    1.080   1_556 S
O836   C837    1.412   .     S
C837   H838    1.114   .     S
C837   H839    1.109   .     S
C837   H840    1.111   .     S
C841   C857    1.447   .     S
C841   O888    1.290   .     A
C841   O889    1.291   .     A
C842   C843    1.418   .     A
C842   C304    1.424   1_556 S
C842   C328    1.413   1_556 S
C843   C850    1.431   .     A
C843   C847    1.416   .     A
C844   C848    1.401   .     A
C845   C846    1.387   .     A
C845   C304    1.418   1_556 S
C845   C324    1.398   1_556 S
C846   H878    1.085   .     S
C846   C847    1.382   .     A
C847   H884    1.076   .     S
C848   C865    1.400   .     A
C848   H880    1.076   .     S
C849   C864    1.389   .     A
C849   C865    1.399   .     A
C849   H871    1.083   .     S
C850   C866    1.403   .     A
C850   C852    1.484   .     S
C851   H885    1.083   .     S
C851   C857    1.398   .     A
C851   C1033   1.383   .     S
C852   O890    1.310   .     A
C852   O891    1.288   .     A
C853   H872    1.084   .     S
C853   C854    1.402   .     A
C854   C862    1.454   .     S
C854   C855    1.413   .     A
C855   O896    1.386   .     S
C856   H873    1.083   .     S
C856   C857    1.398   .     A
C856   C1035   1.392   .     S
C858   N887    1.367   .     A
C858   H874    1.082   .     S
C858   C739    1.417   1_655 S
C859   N886    1.367   .     A
C859   H875    1.082   .     S
C860   H876    1.082   .     S
C860   N886    1.367   .     A
C861   H877    1.082   .     S
C861   N887    1.367   .     A
C861   C740    1.417   1_655 S
C862   O893    1.294   .     A
C862   O892    1.290   .     A
C863   O895    1.295   .     A
C863   C865    1.461   .     S
C863   O894    1.293   .     A
C866   C867    1.391   .     A
C866   H881    1.083   .     S
C867   C328    1.389   1_556 S
C867   H343    1.080   1_556 S
C868   H882    1.078   .     S
Cu869  N886    2.013   .     S
Cu869  Cu870   2.678   .     S
Cu869  O890    1.962   .     S
Cu869  O894    1.954   .     S
Cu869  O888    1.965   .     S
Cu869  O892    1.966   .     S
Cu870  O891    1.954   .     S
Cu870  O895    1.962   .     S
Cu870  O889    1.966   .     S
Cu870  O893    1.965   .     S
Cu870  N887    2.012   .     S
H879   C324    1.080   1_556 S
O896   C897    1.412   .     S
C897   H898    1.114   .     S
C897   H899    1.109   .     S
C897   H900    1.111   .     S
C901   C917    1.447   .     S
C901   O948    1.290   .     A
C901   O949    1.291   .     A
C902   C903    1.418   .     A
C902   C364    1.424   1_556 S
C902   C388    1.413   1_556 S
C903   C910    1.431   .     A
C903   C907    1.416   .     A
C904   C908    1.401   .     A
C905   C906    1.387   .     A
C905   C364    1.418   1_556 S
C905   C384    1.398   1_556 S
C906   H938    1.085   .     S
C906   C907    1.382   .     A
C907   H944    1.076   .     S
C908   C925    1.400   .     A
C908   H940    1.076   .     S
C909   C924    1.389   .     A
C909   C925    1.399   .     A
C909   H931    1.083   .     S
C910   C926    1.403   .     A
C910   C912    1.484   .     S
C911   H945    1.083   .     S
C911   C917    1.398   .     A
C911   C553    1.383   1_565 S
C912   O950    1.310   .     A
C912   O951    1.288   .     A
C913   H932    1.084   .     S
C913   C914    1.402   .     A
C914   C922    1.454   .     S
C914   C915    1.413   .     A
C915   O956    1.386   .     S
C916   H933    1.083   .     S
C916   C917    1.398   .     A
C916   C555    1.392   1_565 S
C918   N947    1.367   .     A
C918   H934    1.082   .     S
C918   C979    1.417   .     S
C919   N946    1.367   .     A
C919   H935    1.082   .     S
C919   C1038   1.417   1_455 S
C920   H936    1.082   .     S
C920   N946    1.367   .     A
C920   C1041   1.417   1_455 S
C921   H937    1.082   .     S
C921   N947    1.367   .     A
C921   C980    1.417   .     S
C922   O953    1.294   .     A
C922   O952    1.290   .     A
C923   O955    1.295   .     A
C923   C925    1.461   .     S
C923   O954    1.293   .     A
C926   C927    1.391   .     A
C926   H941    1.083   .     S
C927   C388    1.389   1_556 S
C927   H403    1.080   1_556 S
C928   H942    1.078   .     S
Cu929  N946    2.013   .     S
Cu929  Cu930   2.678   .     S
Cu929  O950    1.962   .     S
Cu929  O954    1.954   .     S
Cu929  O948    1.965   .     S
Cu929  O952    1.966   .     S
Cu930  O951    1.954   .     S
Cu930  O955    1.962   .     S
Cu930  O949    1.966   .     S
Cu930  O953    1.965   .     S
Cu930  N947    2.012   .     S
H939   C384    1.080   1_556 S
O956   C957    1.412   .     S
C957   H958    1.114   .     S
C957   H959    1.109   .     S
C957   H960    1.111   .     S
C961   C977    1.447   .     S
C961   O1008   1.290   .     A
C961   O1009   1.291   .     A
C962   C963    1.418   .     A
C962   C424    1.424   1_556 S
C962   C448    1.413   1_556 S
C963   C970    1.431   .     A
C963   C967    1.416   .     A
C964   C968    1.401   .     A
C965   C966    1.387   .     A
C965   C424    1.418   1_556 S
C965   C444    1.398   1_556 S
C966   H998    1.085   .     S
C966   C967    1.382   .     A
C967   H1004   1.076   .     S
C968   C985    1.400   .     A
C968   H1000   1.076   .     S
C969   C984    1.389   .     A
C969   C985    1.399   .     A
C969   H991    1.083   .     S
C970   C986    1.403   .     A
C970   C972    1.484   .     S
C971   H1005   1.083   .     S
C971   C977    1.398   .     A
C971   C613    1.383   1_565 S
C972   O1010   1.310   .     A
C972   O1011   1.288   .     A
C973   H992    1.084   .     S
C973   C974    1.402   .     A
C974   C982    1.454   .     S
C974   C975    1.413   .     A
C975   O1016   1.386   .     S
C976   H993    1.083   .     S
C976   C977    1.398   .     A
C976   C615    1.392   1_565 S
C978   N1007   1.367   .     A
C978   H994    1.082   .     S
C978   C1039   1.417   .     S
C979   N1006   1.367   .     A
C979   H995    1.082   .     S
C980   H996    1.082   .     S
C980   N1006   1.367   .     A
C981   H997    1.082   .     S
C981   N1007   1.367   .     A
C981   C1040   1.417   .     S
C982   O1013   1.294   .     A
C982   O1012   1.290   .     A
C983   O1015   1.295   .     A
C983   C985    1.461   .     S
C983   O1014   1.293   .     A
C986   C987    1.391   .     A
C986   H1001   1.083   .     S
C987   C448    1.389   1_556 S
C987   H463    1.080   1_556 S
C988   H1002   1.078   .     S
Cu989  N1006   2.013   .     S
Cu989  Cu990   2.678   .     S
Cu989  O1010   1.962   .     S
Cu989  O1014   1.954   .     S
Cu989  O1008   1.965   .     S
Cu989  O1012   1.966   .     S
Cu990  O1011   1.954   .     S
Cu990  O1015   1.962   .     S
Cu990  O1009   1.966   .     S
Cu990  O1013   1.965   .     S
Cu990  N1007   2.012   .     S
H999   C444    1.080   1_556 S
O1016  C1017   1.412   .     S
C1017  H1018   1.114   .     S
C1017  H1019   1.109   .     S
C1017  H1020   1.111   .     S
C1021  C1037   1.447   .     S
C1021  O1068   1.290   .     A
C1021  O1069   1.291   .     A
C1022  C1023   1.418   .     A
C1022  C484    1.424   1_556 S
C1022  C508    1.413   1_556 S
C1023  C1030   1.431   .     A
C1023  C1027   1.416   .     A
C1024  C1028   1.401   .     A
C1025  C1026   1.387   .     A
C1025  C484    1.418   1_556 S
C1025  C504    1.398   1_556 S
C1026  H1058   1.085   .     S
C1026  C1027   1.382   .     A
C1027  H1064   1.076   .     S
C1028  C1045   1.400   .     A
C1028  H1060   1.076   .     S
C1029  C1044   1.389   .     A
C1029  C1045   1.399   .     A
C1029  H1051   1.083   .     S
C1030  C1046   1.403   .     A
C1030  C1032   1.484   .     S
C1031  H1065   1.083   .     S
C1031  C1037   1.398   .     A
C1031  C673    1.383   1_565 S
C1032  O1070   1.310   .     A
C1032  O1071   1.288   .     A
C1033  H1052   1.084   .     S
C1033  C1034   1.402   .     A
C1034  C1042   1.454   .     S
C1034  C1035   1.413   .     A
C1035  O1076   1.386   .     S
C1036  H1053   1.083   .     S
C1036  C1037   1.398   .     A
C1036  C675    1.392   1_565 S
C1038  N1067   1.367   .     A
C1038  H1054   1.082   .     S
C1038  C919    1.417   1_655 S
C1039  N1066   1.367   .     A
C1039  H1055   1.082   .     S
C1040  H1056   1.082   .     S
C1040  N1066   1.367   .     A
C1041  H1057   1.082   .     S
C1041  N1067   1.367   .     A
C1041  C920    1.417   1_655 S
C1042  O1073   1.294   .     A
C1042  O1072   1.290   .     A
C1043  O1075   1.295   .     A
C1043  C1045   1.461   .     S
C1043  O1074   1.293   .     A
C1046  C1047   1.391   .     A
C1046  H1061   1.083   .     S
C1047  C508    1.389   1_556 S
C1047  H523    1.080   1_556 S
C1048  H1062   1.078   .     S
Cu1049 N1066   2.013   .     S
Cu1049 Cu1050  2.678   .     S
Cu1049 O1070   1.962   .     S
Cu1049 O1074   1.954   .     S
Cu1049 O1068   1.965   .     S
Cu1049 O1072   1.966   .     S
Cu1050 O1071   1.954   .     S
Cu1050 O1075   1.962   .     S
Cu1050 O1069   1.966   .     S
Cu1050 O1073   1.965   .     S
Cu1050 N1067   2.012   .     S
H1059  C504    1.080   1_556 S
O1076  C1077   1.412   .     S
C1077  H1078   1.114   .     S
C1077  H1079   1.109   .     S
C1077  H1080   1.111   .     S
