data_str_m2_o1_o18_pcu_sym.95
_audit_creation_date              2020-01-03
_audit_creation_method            'Materials Studio'
_symmetry_space_group_name_H-M    'P1'
_symmetry_Int_Tables_number       1
_symmetry_cell_setting            triclinic
loop_
_symmetry_equiv_pos_as_xyz
  x,y,z
_cell_length_a                    29.0084
_cell_length_b                    32.4500
_cell_length_c                    30.9907
_cell_angle_alpha                 89.3368
_cell_angle_beta                  70.1946
_cell_angle_gamma                 88.8976
loop_
_atom_site_label
_atom_site_type_symbol
_atom_site_fract_x
_atom_site_fract_y
_atom_site_fract_z
_atom_site_U_iso_or_equiv
_atom_site_adp_type
_atom_site_occupancy
O1     O     0.03958   0.10655   0.25000   0.00000  Uiso   1.00
O2     O     0.29375   0.22678   0.25000   0.00000  Uiso   1.00
O3     O     0.29372   0.10654   0.25001   0.00000  Uiso   1.00
O4     O     0.03961   0.22679   0.24999   0.00000  Uiso   1.00
C5     C     0.00038   0.08755   0.25006   0.00000  Uiso   1.00
C6     C     0.33265   0.24577   0.25091   0.00000  Uiso   1.00
O7     O     0.01852   0.16668   0.31491   0.00000  Uiso   1.00
O8     O     0.31481   0.16666   0.18509   0.00000  Uiso   1.00
O9     O     0.27267   0.16667   0.31492   0.00000  Uiso   1.00
O10    O     0.06067   0.16667   0.18508   0.00000  Uiso   1.00
C11    C     0.30436   0.16583   0.33651   0.00000  Uiso   1.00
C12    C     0.02914   0.16577   0.16347   0.00000  Uiso   1.00
Cu13   Cu    0.04689   0.16667   0.25000   0.00000  Uiso   1.00
Cu14   Cu    0.28645   0.16666   0.25000   0.00000  Uiso   1.00
C15    C     0.28549   0.15986   0.38679   0.00000  Uiso   1.00
C16    C     0.04914   0.15940   0.11326   0.00000  Uiso   1.00
C17    C     0.29376   0.16470   0.46161   0.00000  Uiso   1.00
C18    C     0.04540   0.16780   0.03687   0.00000  Uiso   1.00
C19    C     0.30928   0.17622   0.41514   0.00000  Uiso   1.00
C20    C     0.02852   0.17870   0.08338   0.00000  Uiso   1.00
C21    C     0.24245   0.13745   0.40673   0.00000  Uiso   1.00
C22    C     0.09180   0.13504   0.09480   0.00000  Uiso   1.00
C23    C     0.22587   0.12679   0.45382   0.00000  Uiso   1.00
C24    C     0.11126   0.12617   0.04739   0.00000  Uiso   1.00
C25    C     0.25463   0.13779   0.48050   0.00000  Uiso   1.00
C26    C     0.08398   0.13902   0.01925   0.00000  Uiso   1.00
C27    C     0.17845   0.11093   0.47678   0.00000  Uiso   1.00
C28    C     0.16018   0.11141   0.02531   0.00000  Uiso   1.00
C29    C     0.19457   0.10749   0.04806   0.00000  Uiso   1.00
C30    C     0.14466   0.10528   0.45415   0.00000  Uiso   1.00
C31    C     0.24163   0.12297   0.02623   0.00000  Uiso   1.00
C32    C     0.09855   0.12448   0.47338   0.00000  Uiso   1.00
H33    H     0.10978   0.12430   0.11805   0.00000  Uiso   1.00
H34    H     0.22179   0.12940   0.38504   0.00000  Uiso   1.00
H35    H     0.31088   0.17836   0.48334   0.00000  Uiso   1.00
H36    H     0.03064   0.18427   0.01427   0.00000  Uiso   1.00
C37    C     0.28983   0.02262   0.27171   0.00000  Uiso   1.00
C38    C     0.04310   0.31071   0.23183   0.00000  Uiso   1.00
H39    H     0.25622   0.04004   0.28794   0.00000  Uiso   1.00
H40    H     0.07684   0.29339   0.21584   0.00000  Uiso   1.00
C41    C     0.28845   0.31313   0.27278   0.00000  Uiso   1.00
C42    C     0.04462   0.02010   0.23144   0.00000  Uiso   1.00
C43    C     0.33200   0.29045   0.25177   0.00000  Uiso   1.00
C44    C     0.00083   0.04285   0.25090   0.00000  Uiso   1.00
C45    C     0.18290   0.13860   0.27535   0.00000  Uiso   1.00
C46    C     0.14999   0.19453   0.22474   0.00000  Uiso   1.00
H47    H     0.19437   0.11616   0.29593   0.00000  Uiso   1.00
H48    H     0.13801   0.21727   0.20480   0.00000  Uiso   1.00
C49    C     0.13336   0.13869   0.27569   0.00000  Uiso   1.00
C50    C     0.19864   0.19547   0.22532   0.00000  Uiso   1.00
N51    N     0.11736   0.16668   0.24999   0.00000  Uiso   1.00
N52    N     0.21597   0.16666   0.25001   0.00000  Uiso   1.00
N53    N     0.27556   0.12261   0.05054   0.00000  Uiso   1.00
H54    H     0.28317   0.15301   0.05521   0.00000  Uiso   1.00
H55    H     0.30755   0.10711   0.03103   0.00000  Uiso   1.00
N56    N     0.06827   0.12983   0.44577   0.00000  Uiso   1.00
H57    H     0.06384   0.16130   0.44124   0.00000  Uiso   1.00
H58    H     0.03468   0.11616   0.46257   0.00000  Uiso   1.00
N59    N     0.32726   0.21199   0.09938   0.00000  Uiso   1.00
H60    H     0.29486   0.20518   0.09363   0.00000  Uiso   1.00
H61    H     0.00846   0.23831   0.08019   0.00000  Uiso   1.00
N62    N     0.01442   0.20556   0.39703   0.00000  Uiso   1.00
H63    H     0.33306   0.23063   0.38425   0.00000  Uiso   1.00
H64    H     0.02499   0.21756   0.42335   0.00000  Uiso   1.00
N65    N     0.18325   0.08485   0.09041   0.00000  Uiso   1.00
O66    O     0.19970   0.09618   0.12257   0.00000  Uiso   1.00
O67    O     0.15602   0.05242   0.09682   0.00000  Uiso   1.00
N68    N     0.15679   0.07911   0.41424   0.00000  Uiso   1.00
O69    O     0.12587   0.07370   0.39278   0.00000  Uiso   1.00
O70    O     0.19536   0.05501   0.40404   0.00000  Uiso   1.00
N71    N     0.24336   0.29297   0.29673   0.00000  Uiso   1.00
H72    H     0.21688   0.30360   0.28310   0.00000  Uiso   1.00
H73    H     0.23205   0.30206   0.33106   0.00000  Uiso   1.00
N74    N     0.09043   0.04010   0.21012   0.00000  Uiso   1.00
H75    H     0.11440   0.03059   0.22714   0.00000  Uiso   1.00
H76    H     0.10493   0.02965   0.17640   0.00000  Uiso   1.00
N77    N     0.09967   0.10968   0.30374   0.00000  Uiso   1.00
H78    H     0.11507   0.08013   0.29593   0.00000  Uiso   1.00
H79    H     0.09537   0.11590   0.33788   0.00000  Uiso   1.00
N80    N     0.22734   0.22922   0.20144   0.00000  Uiso   1.00
H81    H     0.26187   0.21928   0.18091   0.00000  Uiso   1.00
H82    H     0.22955   0.25082   0.22520   0.00000  Uiso   1.00
O83    O     0.37291   0.10655   0.25000   0.00000  Uiso   1.00
O84    O     0.62709   0.22678   0.25000   0.00000  Uiso   1.00
O85    O     0.62706   0.10654   0.25001   0.00000  Uiso   1.00
O86    O     0.37294   0.22679   0.24999   0.00000  Uiso   1.00
C87    C     0.33371   0.08755   0.25006   0.00000  Uiso   1.00
C88    C     0.66598   0.24577   0.25091   0.00000  Uiso   1.00
O89    O     0.35186   0.16668   0.31491   0.00000  Uiso   1.00
O90    O     0.64814   0.16666   0.18509   0.00000  Uiso   1.00
O91    O     0.60600   0.16667   0.31492   0.00000  Uiso   1.00
O92    O     0.39400   0.16667   0.18508   0.00000  Uiso   1.00
C93    C     0.63769   0.16583   0.33651   0.00000  Uiso   1.00
C94    C     0.36247   0.16577   0.16347   0.00000  Uiso   1.00
Cu95   Cu    0.38022   0.16667   0.25000   0.00000  Uiso   1.00
Cu96   Cu    0.61978   0.16666   0.25000   0.00000  Uiso   1.00
C97    C     0.61882   0.15986   0.38679   0.00000  Uiso   1.00
C98    C     0.38247   0.15940   0.11326   0.00000  Uiso   1.00
C99    C     0.62710   0.16470   0.46161   0.00000  Uiso   1.00
C100   C     0.37873   0.16780   0.03687   0.00000  Uiso   1.00
C101   C     0.64262   0.17622   0.41514   0.00000  Uiso   1.00
C102   C     0.36185   0.17870   0.08338   0.00000  Uiso   1.00
C103   C     0.57578   0.13745   0.40673   0.00000  Uiso   1.00
C104   C     0.42514   0.13504   0.09480   0.00000  Uiso   1.00
C105   C     0.55920   0.12679   0.45382   0.00000  Uiso   1.00
C106   C     0.44459   0.12617   0.04739   0.00000  Uiso   1.00
C107   C     0.58796   0.13779   0.48050   0.00000  Uiso   1.00
C108   C     0.41731   0.13902   0.01925   0.00000  Uiso   1.00
C109   C     0.51178   0.11093   0.47678   0.00000  Uiso   1.00
C110   C     0.49351   0.11141   0.02531   0.00000  Uiso   1.00
C111   C     0.52791   0.10749   0.04806   0.00000  Uiso   1.00
C112   C     0.47800   0.10528   0.45415   0.00000  Uiso   1.00
C113   C     0.57497   0.12297   0.02623   0.00000  Uiso   1.00
C114   C     0.43188   0.12448   0.47338   0.00000  Uiso   1.00
H115   H     0.44311   0.12430   0.11805   0.00000  Uiso   1.00
H116   H     0.55513   0.12940   0.38504   0.00000  Uiso   1.00
H117   H     0.64422   0.17836   0.48334   0.00000  Uiso   1.00
H118   H     0.36397   0.18427   0.01427   0.00000  Uiso   1.00
C119   C     0.62316   0.02262   0.27171   0.00000  Uiso   1.00
C120   C     0.37643   0.31071   0.23183   0.00000  Uiso   1.00
H121   H     0.58956   0.04004   0.28794   0.00000  Uiso   1.00
H122   H     0.41017   0.29339   0.21584   0.00000  Uiso   1.00
C123   C     0.62179   0.31313   0.27278   0.00000  Uiso   1.00
C124   C     0.37795   0.02010   0.23144   0.00000  Uiso   1.00
C125   C     0.66534   0.29045   0.25177   0.00000  Uiso   1.00
C126   C     0.33416   0.04285   0.25090   0.00000  Uiso   1.00
C127   C     0.51623   0.13860   0.27535   0.00000  Uiso   1.00
C128   C     0.48332   0.19453   0.22474   0.00000  Uiso   1.00
H129   H     0.52771   0.11616   0.29593   0.00000  Uiso   1.00
H130   H     0.47134   0.21727   0.20480   0.00000  Uiso   1.00
C131   C     0.46669   0.13869   0.27569   0.00000  Uiso   1.00
C132   C     0.53197   0.19547   0.22532   0.00000  Uiso   1.00
N133   N     0.45069   0.16668   0.24999   0.00000  Uiso   1.00
N134   N     0.54931   0.16666   0.25001   0.00000  Uiso   1.00
N135   N     0.60890   0.12261   0.05054   0.00000  Uiso   1.00
H136   H     0.61651   0.15301   0.05521   0.00000  Uiso   1.00
H137   H     0.64088   0.10711   0.03103   0.00000  Uiso   1.00
N138   N     0.40160   0.12983   0.44577   0.00000  Uiso   1.00
H139   H     0.39718   0.16130   0.44124   0.00000  Uiso   1.00
H140   H     0.36801   0.11616   0.46257   0.00000  Uiso   1.00
N141   N     0.66059   0.21199   0.09938   0.00000  Uiso   1.00
H142   H     0.62819   0.20518   0.09363   0.00000  Uiso   1.00
H143   H     0.34179   0.23831   0.08019   0.00000  Uiso   1.00
N144   N     0.34775   0.20556   0.39703   0.00000  Uiso   1.00
H145   H     0.66640   0.23063   0.38425   0.00000  Uiso   1.00
H146   H     0.35833   0.21756   0.42335   0.00000  Uiso   1.00
N147   N     0.51658   0.08485   0.09041   0.00000  Uiso   1.00
O148   O     0.53304   0.09618   0.12257   0.00000  Uiso   1.00
O149   O     0.48935   0.05242   0.09682   0.00000  Uiso   1.00
N150   N     0.49012   0.07911   0.41424   0.00000  Uiso   1.00
O151   O     0.45921   0.07370   0.39278   0.00000  Uiso   1.00
O152   O     0.52869   0.05501   0.40404   0.00000  Uiso   1.00
N153   N     0.57669   0.29297   0.29673   0.00000  Uiso   1.00
H154   H     0.55022   0.30360   0.28310   0.00000  Uiso   1.00
H155   H     0.56538   0.30206   0.33106   0.00000  Uiso   1.00
N156   N     0.42376   0.04010   0.21012   0.00000  Uiso   1.00
H157   H     0.44773   0.03059   0.22714   0.00000  Uiso   1.00
H158   H     0.43826   0.02965   0.17640   0.00000  Uiso   1.00
N159   N     0.43301   0.10968   0.30374   0.00000  Uiso   1.00
H160   H     0.44840   0.08013   0.29593   0.00000  Uiso   1.00
H161   H     0.42870   0.11590   0.33788   0.00000  Uiso   1.00
N162   N     0.56067   0.22922   0.20144   0.00000  Uiso   1.00
H163   H     0.59520   0.21928   0.18091   0.00000  Uiso   1.00
H164   H     0.56289   0.25082   0.22520   0.00000  Uiso   1.00
O165   O     0.70625   0.10655   0.25000   0.00000  Uiso   1.00
O166   O     0.96042   0.22678   0.25000   0.00000  Uiso   1.00
O167   O     0.96039   0.10654   0.25001   0.00000  Uiso   1.00
O168   O     0.70628   0.22679   0.24999   0.00000  Uiso   1.00
C169   C     0.66705   0.08755   0.25006   0.00000  Uiso   1.00
C170   C     0.99931   0.24577   0.25091   0.00000  Uiso   1.00
O171   O     0.68519   0.16668   0.31491   0.00000  Uiso   1.00
O172   O     0.98148   0.16666   0.18509   0.00000  Uiso   1.00
O173   O     0.93933   0.16667   0.31492   0.00000  Uiso   1.00
O174   O     0.72733   0.16667   0.18508   0.00000  Uiso   1.00
C175   C     0.97103   0.16583   0.33651   0.00000  Uiso   1.00
C176   C     0.69580   0.16577   0.16347   0.00000  Uiso   1.00
Cu177  Cu    0.71355   0.16667   0.25000   0.00000  Uiso   1.00
Cu178  Cu    0.95311   0.16666   0.25000   0.00000  Uiso   1.00
C179   C     0.95216   0.15986   0.38679   0.00000  Uiso   1.00
C180   C     0.71580   0.15940   0.11326   0.00000  Uiso   1.00
C181   C     0.96043   0.16470   0.46161   0.00000  Uiso   1.00
C182   C     0.71206   0.16780   0.03687   0.00000  Uiso   1.00
C183   C     0.97595   0.17622   0.41514   0.00000  Uiso   1.00
C184   C     0.69519   0.17870   0.08338   0.00000  Uiso   1.00
C185   C     0.90911   0.13745   0.40673   0.00000  Uiso   1.00
C186   C     0.75847   0.13504   0.09480   0.00000  Uiso   1.00
C187   C     0.89253   0.12679   0.45382   0.00000  Uiso   1.00
C188   C     0.77793   0.12617   0.04739   0.00000  Uiso   1.00
C189   C     0.92129   0.13779   0.48050   0.00000  Uiso   1.00
C190   C     0.75064   0.13902   0.01925   0.00000  Uiso   1.00
C191   C     0.84512   0.11093   0.47678   0.00000  Uiso   1.00
C192   C     0.82684   0.11141   0.02531   0.00000  Uiso   1.00
C193   C     0.86124   0.10749   0.04806   0.00000  Uiso   1.00
C194   C     0.81133   0.10528   0.45415   0.00000  Uiso   1.00
C195   C     0.90830   0.12297   0.02623   0.00000  Uiso   1.00
C196   C     0.76521   0.12448   0.47338   0.00000  Uiso   1.00
H197   H     0.77645   0.12430   0.11805   0.00000  Uiso   1.00
H198   H     0.88846   0.12940   0.38504   0.00000  Uiso   1.00
H199   H     0.97755   0.17836   0.48334   0.00000  Uiso   1.00
H200   H     0.69731   0.18427   0.01427   0.00000  Uiso   1.00
C201   C     0.95650   0.02262   0.27171   0.00000  Uiso   1.00
C202   C     0.70977   0.31071   0.23183   0.00000  Uiso   1.00
H203   H     0.92289   0.04004   0.28794   0.00000  Uiso   1.00
H204   H     0.74351   0.29339   0.21584   0.00000  Uiso   1.00
C205   C     0.95512   0.31313   0.27278   0.00000  Uiso   1.00
C206   C     0.71129   0.02010   0.23144   0.00000  Uiso   1.00
C207   C     0.99867   0.29045   0.25177   0.00000  Uiso   1.00
C208   C     0.66750   0.04285   0.25090   0.00000  Uiso   1.00
C209   C     0.84956   0.13860   0.27535   0.00000  Uiso   1.00
C210   C     0.81666   0.19453   0.22474   0.00000  Uiso   1.00
H211   H     0.86104   0.11616   0.29593   0.00000  Uiso   1.00
H212   H     0.80468   0.21727   0.20480   0.00000  Uiso   1.00
C213   C     0.80003   0.13869   0.27569   0.00000  Uiso   1.00
C214   C     0.86530   0.19547   0.22532   0.00000  Uiso   1.00
N215   N     0.78403   0.16668   0.24999   0.00000  Uiso   1.00
N216   N     0.88264   0.16666   0.25001   0.00000  Uiso   1.00
N217   N     0.94223   0.12261   0.05054   0.00000  Uiso   1.00
H218   H     0.94984   0.15301   0.05521   0.00000  Uiso   1.00
H219   H     0.97421   0.10711   0.03103   0.00000  Uiso   1.00
N220   N     0.73494   0.12983   0.44577   0.00000  Uiso   1.00
H221   H     0.73051   0.16130   0.44124   0.00000  Uiso   1.00
H222   H     0.70134   0.11616   0.46257   0.00000  Uiso   1.00
N223   N     0.99392   0.21199   0.09938   0.00000  Uiso   1.00
H224   H     0.96152   0.20518   0.09363   0.00000  Uiso   1.00
H225   H     0.67513   0.23831   0.08019   0.00000  Uiso   1.00
N226   N     0.68108   0.20556   0.39703   0.00000  Uiso   1.00
H227   H     0.99973   0.23063   0.38425   0.00000  Uiso   1.00
H228   H     0.69166   0.21756   0.42335   0.00000  Uiso   1.00
N229   N     0.84992   0.08485   0.09041   0.00000  Uiso   1.00
O230   O     0.86637   0.09618   0.12257   0.00000  Uiso   1.00
O231   O     0.82268   0.05242   0.09682   0.00000  Uiso   1.00
N232   N     0.82345   0.07911   0.41424   0.00000  Uiso   1.00
O233   O     0.79254   0.07370   0.39278   0.00000  Uiso   1.00
O234   O     0.86203   0.05501   0.40404   0.00000  Uiso   1.00
N235   N     0.91002   0.29297   0.29673   0.00000  Uiso   1.00
H236   H     0.88355   0.30360   0.28310   0.00000  Uiso   1.00
H237   H     0.89871   0.30206   0.33106   0.00000  Uiso   1.00
N238   N     0.75709   0.04010   0.21012   0.00000  Uiso   1.00
H239   H     0.78106   0.03059   0.22714   0.00000  Uiso   1.00
H240   H     0.77159   0.02965   0.17640   0.00000  Uiso   1.00
N241   N     0.76634   0.10968   0.30374   0.00000  Uiso   1.00
H242   H     0.78174   0.08013   0.29593   0.00000  Uiso   1.00
H243   H     0.76204   0.11590   0.33788   0.00000  Uiso   1.00
N244   N     0.89400   0.22922   0.20144   0.00000  Uiso   1.00
H245   H     0.92854   0.21928   0.18091   0.00000  Uiso   1.00
H246   H     0.89622   0.25082   0.22520   0.00000  Uiso   1.00
O247   O     0.03958   0.43989   0.25000   0.00000  Uiso   1.00
O248   O     0.29375   0.56011   0.25000   0.00000  Uiso   1.00
O249   O     0.29372   0.43988   0.25001   0.00000  Uiso   1.00
O250   O     0.03961   0.56012   0.24999   0.00000  Uiso   1.00
C251   C     0.00038   0.42088   0.25006   0.00000  Uiso   1.00
C252   C     0.33265   0.57910   0.25091   0.00000  Uiso   1.00
O253   O     0.01852   0.50001   0.31491   0.00000  Uiso   1.00
O254   O     0.31481   0.49999   0.18509   0.00000  Uiso   1.00
O255   O     0.27267   0.50000   0.31492   0.00000  Uiso   1.00
O256   O     0.06067   0.50000   0.18508   0.00000  Uiso   1.00
C257   C     0.30436   0.49917   0.33651   0.00000  Uiso   1.00
C258   C     0.02914   0.49910   0.16347   0.00000  Uiso   1.00
Cu259  Cu    0.04689   0.50001   0.25000   0.00000  Uiso   1.00
Cu260  Cu    0.28645   0.49999   0.25000   0.00000  Uiso   1.00
C261   C     0.28549   0.49319   0.38679   0.00000  Uiso   1.00
C262   C     0.04914   0.49273   0.11326   0.00000  Uiso   1.00
C263   C     0.29376   0.49804   0.46161   0.00000  Uiso   1.00
C264   C     0.04540   0.50113   0.03687   0.00000  Uiso   1.00
C265   C     0.30928   0.50955   0.41514   0.00000  Uiso   1.00
C266   C     0.02852   0.51204   0.08338   0.00000  Uiso   1.00
C267   C     0.24245   0.47079   0.40673   0.00000  Uiso   1.00
C268   C     0.09180   0.46837   0.09480   0.00000  Uiso   1.00
C269   C     0.22587   0.46012   0.45382   0.00000  Uiso   1.00
C270   C     0.11126   0.45951   0.04739   0.00000  Uiso   1.00
C271   C     0.25463   0.47113   0.48050   0.00000  Uiso   1.00
C272   C     0.08398   0.47236   0.01925   0.00000  Uiso   1.00
C273   C     0.17845   0.44427   0.47678   0.00000  Uiso   1.00
C274   C     0.16018   0.44474   0.02531   0.00000  Uiso   1.00
C275   C     0.19457   0.44082   0.04806   0.00000  Uiso   1.00
C276   C     0.14466   0.43861   0.45415   0.00000  Uiso   1.00
C277   C     0.24163   0.45631   0.02623   0.00000  Uiso   1.00
C278   C     0.09855   0.45782   0.47338   0.00000  Uiso   1.00
H279   H     0.10978   0.45763   0.11805   0.00000  Uiso   1.00
H280   H     0.22179   0.46273   0.38504   0.00000  Uiso   1.00
H281   H     0.31088   0.51170   0.48334   0.00000  Uiso   1.00
H282   H     0.03064   0.51761   0.01427   0.00000  Uiso   1.00
C283   C     0.28983   0.35595   0.27171   0.00000  Uiso   1.00
C284   C     0.04310   0.64404   0.23183   0.00000  Uiso   1.00
H285   H     0.25622   0.37337   0.28794   0.00000  Uiso   1.00
H286   H     0.07684   0.62672   0.21584   0.00000  Uiso   1.00
C287   C     0.28845   0.64646   0.27278   0.00000  Uiso   1.00
C288   C     0.04462   0.35343   0.23144   0.00000  Uiso   1.00
C289   C     0.33200   0.62379   0.25177   0.00000  Uiso   1.00
C290   C     0.00083   0.37618   0.25090   0.00000  Uiso   1.00
C291   C     0.18290   0.47193   0.27535   0.00000  Uiso   1.00
C292   C     0.14999   0.52787   0.22474   0.00000  Uiso   1.00
H293   H     0.19437   0.44949   0.29593   0.00000  Uiso   1.00
H294   H     0.13801   0.55060   0.20480   0.00000  Uiso   1.00
C295   C     0.13336   0.47202   0.27569   0.00000  Uiso   1.00
C296   C     0.19864   0.52880   0.22532   0.00000  Uiso   1.00
N297   N     0.11736   0.50001   0.24999   0.00000  Uiso   1.00
N298   N     0.21597   0.49999   0.25001   0.00000  Uiso   1.00
N299   N     0.27556   0.45595   0.05054   0.00000  Uiso   1.00
H300   H     0.28317   0.48634   0.05521   0.00000  Uiso   1.00
H301   H     0.30755   0.44045   0.03103   0.00000  Uiso   1.00
N302   N     0.06827   0.46317   0.44577   0.00000  Uiso   1.00
H303   H     0.06384   0.49463   0.44124   0.00000  Uiso   1.00
H304   H     0.03468   0.44950   0.46257   0.00000  Uiso   1.00
N305   N     0.32726   0.54533   0.09938   0.00000  Uiso   1.00
H306   H     0.29486   0.53851   0.09363   0.00000  Uiso   1.00
H307   H     0.00846   0.57164   0.08019   0.00000  Uiso   1.00
N308   N     0.01442   0.53889   0.39703   0.00000  Uiso   1.00
H309   H     0.33306   0.56396   0.38425   0.00000  Uiso   1.00
H310   H     0.02499   0.55089   0.42335   0.00000  Uiso   1.00
N311   N     0.18325   0.41818   0.09041   0.00000  Uiso   1.00
O312   O     0.19970   0.42952   0.12257   0.00000  Uiso   1.00
O313   O     0.15602   0.38575   0.09682   0.00000  Uiso   1.00
N314   N     0.15679   0.41244   0.41424   0.00000  Uiso   1.00
O315   O     0.12587   0.40703   0.39278   0.00000  Uiso   1.00
O316   O     0.19536   0.38834   0.40404   0.00000  Uiso   1.00
N317   N     0.24336   0.62630   0.29673   0.00000  Uiso   1.00
H318   H     0.21688   0.63693   0.28310   0.00000  Uiso   1.00
H319   H     0.23205   0.63539   0.33106   0.00000  Uiso   1.00
N320   N     0.09043   0.37343   0.21012   0.00000  Uiso   1.00
H321   H     0.11440   0.36392   0.22714   0.00000  Uiso   1.00
H322   H     0.10493   0.36299   0.17640   0.00000  Uiso   1.00
N323   N     0.09967   0.44301   0.30374   0.00000  Uiso   1.00
H324   H     0.11507   0.41346   0.29593   0.00000  Uiso   1.00
H325   H     0.09537   0.44924   0.33788   0.00000  Uiso   1.00
N326   N     0.22734   0.56255   0.20144   0.00000  Uiso   1.00
H327   H     0.26187   0.55262   0.18091   0.00000  Uiso   1.00
H328   H     0.22955   0.58415   0.22520   0.00000  Uiso   1.00
O329   O     0.37291   0.43989   0.25000   0.00000  Uiso   1.00
O330   O     0.62709   0.56011   0.25000   0.00000  Uiso   1.00
O331   O     0.62706   0.43988   0.25001   0.00000  Uiso   1.00
O332   O     0.37294   0.56012   0.24999   0.00000  Uiso   1.00
C333   C     0.33371   0.42088   0.25006   0.00000  Uiso   1.00
C334   C     0.66598   0.57910   0.25091   0.00000  Uiso   1.00
O335   O     0.35186   0.50001   0.31491   0.00000  Uiso   1.00
O336   O     0.64814   0.49999   0.18509   0.00000  Uiso   1.00
O337   O     0.60600   0.50000   0.31492   0.00000  Uiso   1.00
O338   O     0.39400   0.50000   0.18508   0.00000  Uiso   1.00
C339   C     0.63769   0.49917   0.33651   0.00000  Uiso   1.00
C340   C     0.36247   0.49910   0.16347   0.00000  Uiso   1.00
Cu341  Cu    0.38022   0.50001   0.25000   0.00000  Uiso   1.00
Cu342  Cu    0.61978   0.49999   0.25000   0.00000  Uiso   1.00
C343   C     0.61882   0.49319   0.38679   0.00000  Uiso   1.00
C344   C     0.38247   0.49273   0.11326   0.00000  Uiso   1.00
C345   C     0.62710   0.49804   0.46161   0.00000  Uiso   1.00
C346   C     0.37873   0.50113   0.03687   0.00000  Uiso   1.00
C347   C     0.64262   0.50955   0.41514   0.00000  Uiso   1.00
C348   C     0.36185   0.51204   0.08338   0.00000  Uiso   1.00
C349   C     0.57578   0.47079   0.40673   0.00000  Uiso   1.00
C350   C     0.42514   0.46837   0.09480   0.00000  Uiso   1.00
C351   C     0.55920   0.46012   0.45382   0.00000  Uiso   1.00
C352   C     0.44459   0.45951   0.04739   0.00000  Uiso   1.00
C353   C     0.58796   0.47113   0.48050   0.00000  Uiso   1.00
C354   C     0.41731   0.47236   0.01925   0.00000  Uiso   1.00
C355   C     0.51178   0.44427   0.47678   0.00000  Uiso   1.00
C356   C     0.49351   0.44474   0.02531   0.00000  Uiso   1.00
C357   C     0.52791   0.44082   0.04806   0.00000  Uiso   1.00
C358   C     0.47800   0.43861   0.45415   0.00000  Uiso   1.00
C359   C     0.57497   0.45631   0.02623   0.00000  Uiso   1.00
C360   C     0.43188   0.45782   0.47338   0.00000  Uiso   1.00
H361   H     0.44311   0.45763   0.11805   0.00000  Uiso   1.00
H362   H     0.55513   0.46273   0.38504   0.00000  Uiso   1.00
H363   H     0.64422   0.51170   0.48334   0.00000  Uiso   1.00
H364   H     0.36397   0.51761   0.01427   0.00000  Uiso   1.00
C365   C     0.62316   0.35595   0.27171   0.00000  Uiso   1.00
C366   C     0.37643   0.64404   0.23183   0.00000  Uiso   1.00
H367   H     0.58956   0.37337   0.28794   0.00000  Uiso   1.00
H368   H     0.41017   0.62672   0.21584   0.00000  Uiso   1.00
C369   C     0.62179   0.64646   0.27278   0.00000  Uiso   1.00
C370   C     0.37795   0.35343   0.23144   0.00000  Uiso   1.00
C371   C     0.66534   0.62379   0.25177   0.00000  Uiso   1.00
C372   C     0.33416   0.37618   0.25090   0.00000  Uiso   1.00
C373   C     0.51623   0.47193   0.27535   0.00000  Uiso   1.00
C374   C     0.48332   0.52787   0.22474   0.00000  Uiso   1.00
H375   H     0.52771   0.44949   0.29593   0.00000  Uiso   1.00
H376   H     0.47134   0.55060   0.20480   0.00000  Uiso   1.00
C377   C     0.46669   0.47202   0.27569   0.00000  Uiso   1.00
C378   C     0.53197   0.52880   0.22532   0.00000  Uiso   1.00
N379   N     0.45069   0.50001   0.24999   0.00000  Uiso   1.00
N380   N     0.54931   0.49999   0.25001   0.00000  Uiso   1.00
N381   N     0.60890   0.45595   0.05054   0.00000  Uiso   1.00
H382   H     0.61651   0.48634   0.05521   0.00000  Uiso   1.00
H383   H     0.64088   0.44045   0.03103   0.00000  Uiso   1.00
N384   N     0.40160   0.46317   0.44577   0.00000  Uiso   1.00
H385   H     0.39718   0.49463   0.44124   0.00000  Uiso   1.00
H386   H     0.36801   0.44950   0.46257   0.00000  Uiso   1.00
N387   N     0.66059   0.54533   0.09938   0.00000  Uiso   1.00
H388   H     0.62819   0.53851   0.09363   0.00000  Uiso   1.00
H389   H     0.34179   0.57164   0.08019   0.00000  Uiso   1.00
N390   N     0.34775   0.53889   0.39703   0.00000  Uiso   1.00
H391   H     0.66640   0.56396   0.38425   0.00000  Uiso   1.00
H392   H     0.35833   0.55089   0.42335   0.00000  Uiso   1.00
N393   N     0.51658   0.41818   0.09041   0.00000  Uiso   1.00
O394   O     0.53304   0.42952   0.12257   0.00000  Uiso   1.00
O395   O     0.48935   0.38575   0.09682   0.00000  Uiso   1.00
N396   N     0.49012   0.41244   0.41424   0.00000  Uiso   1.00
O397   O     0.45921   0.40703   0.39278   0.00000  Uiso   1.00
O398   O     0.52869   0.38834   0.40404   0.00000  Uiso   1.00
N399   N     0.57669   0.62630   0.29673   0.00000  Uiso   1.00
H400   H     0.55022   0.63693   0.28310   0.00000  Uiso   1.00
H401   H     0.56538   0.63539   0.33106   0.00000  Uiso   1.00
N402   N     0.42376   0.37343   0.21012   0.00000  Uiso   1.00
H403   H     0.44773   0.36392   0.22714   0.00000  Uiso   1.00
H404   H     0.43826   0.36299   0.17640   0.00000  Uiso   1.00
N405   N     0.43301   0.44301   0.30374   0.00000  Uiso   1.00
H406   H     0.44840   0.41346   0.29593   0.00000  Uiso   1.00
H407   H     0.42870   0.44924   0.33788   0.00000  Uiso   1.00
N408   N     0.56067   0.56255   0.20144   0.00000  Uiso   1.00
H409   H     0.59520   0.55262   0.18091   0.00000  Uiso   1.00
H410   H     0.56289   0.58415   0.22520   0.00000  Uiso   1.00
O411   O     0.70625   0.43989   0.25000   0.00000  Uiso   1.00
O412   O     0.96042   0.56011   0.25000   0.00000  Uiso   1.00
O413   O     0.96039   0.43988   0.25001   0.00000  Uiso   1.00
O414   O     0.70628   0.56012   0.24999   0.00000  Uiso   1.00
C415   C     0.66705   0.42088   0.25006   0.00000  Uiso   1.00
C416   C     0.99931   0.57910   0.25091   0.00000  Uiso   1.00
O417   O     0.68519   0.50001   0.31491   0.00000  Uiso   1.00
O418   O     0.98148   0.49999   0.18509   0.00000  Uiso   1.00
O419   O     0.93933   0.50000   0.31492   0.00000  Uiso   1.00
O420   O     0.72733   0.50000   0.18508   0.00000  Uiso   1.00
C421   C     0.97103   0.49917   0.33651   0.00000  Uiso   1.00
C422   C     0.69580   0.49910   0.16347   0.00000  Uiso   1.00
Cu423  Cu    0.71355   0.50001   0.25000   0.00000  Uiso   1.00
Cu424  Cu    0.95311   0.49999   0.25000   0.00000  Uiso   1.00
C425   C     0.95216   0.49319   0.38679   0.00000  Uiso   1.00
C426   C     0.71580   0.49273   0.11326   0.00000  Uiso   1.00
C427   C     0.96043   0.49804   0.46161   0.00000  Uiso   1.00
C428   C     0.71206   0.50113   0.03687   0.00000  Uiso   1.00
C429   C     0.97595   0.50955   0.41514   0.00000  Uiso   1.00
C430   C     0.69519   0.51204   0.08338   0.00000  Uiso   1.00
C431   C     0.90911   0.47079   0.40673   0.00000  Uiso   1.00
C432   C     0.75847   0.46837   0.09480   0.00000  Uiso   1.00
C433   C     0.89253   0.46012   0.45382   0.00000  Uiso   1.00
C434   C     0.77793   0.45951   0.04739   0.00000  Uiso   1.00
C435   C     0.92129   0.47113   0.48050   0.00000  Uiso   1.00
C436   C     0.75064   0.47236   0.01925   0.00000  Uiso   1.00
C437   C     0.84512   0.44427   0.47678   0.00000  Uiso   1.00
C438   C     0.82684   0.44474   0.02531   0.00000  Uiso   1.00
C439   C     0.86124   0.44082   0.04806   0.00000  Uiso   1.00
C440   C     0.81133   0.43861   0.45415   0.00000  Uiso   1.00
C441   C     0.90830   0.45631   0.02623   0.00000  Uiso   1.00
C442   C     0.76521   0.45782   0.47338   0.00000  Uiso   1.00
H443   H     0.77645   0.45763   0.11805   0.00000  Uiso   1.00
H444   H     0.88846   0.46273   0.38504   0.00000  Uiso   1.00
H445   H     0.97755   0.51170   0.48334   0.00000  Uiso   1.00
H446   H     0.69731   0.51761   0.01427   0.00000  Uiso   1.00
C447   C     0.95650   0.35595   0.27171   0.00000  Uiso   1.00
C448   C     0.70977   0.64404   0.23183   0.00000  Uiso   1.00
H449   H     0.92289   0.37337   0.28794   0.00000  Uiso   1.00
H450   H     0.74351   0.62672   0.21584   0.00000  Uiso   1.00
C451   C     0.95512   0.64646   0.27278   0.00000  Uiso   1.00
C452   C     0.71129   0.35343   0.23144   0.00000  Uiso   1.00
C453   C     0.99867   0.62379   0.25177   0.00000  Uiso   1.00
C454   C     0.66750   0.37618   0.25090   0.00000  Uiso   1.00
C455   C     0.84956   0.47193   0.27535   0.00000  Uiso   1.00
C456   C     0.81666   0.52787   0.22474   0.00000  Uiso   1.00
H457   H     0.86104   0.44949   0.29593   0.00000  Uiso   1.00
H458   H     0.80468   0.55060   0.20480   0.00000  Uiso   1.00
C459   C     0.80003   0.47202   0.27569   0.00000  Uiso   1.00
C460   C     0.86530   0.52880   0.22532   0.00000  Uiso   1.00
N461   N     0.78403   0.50001   0.24999   0.00000  Uiso   1.00
N462   N     0.88264   0.49999   0.25001   0.00000  Uiso   1.00
N463   N     0.94223   0.45595   0.05054   0.00000  Uiso   1.00
H464   H     0.94984   0.48634   0.05521   0.00000  Uiso   1.00
H465   H     0.97421   0.44045   0.03103   0.00000  Uiso   1.00
N466   N     0.73494   0.46317   0.44577   0.00000  Uiso   1.00
H467   H     0.73051   0.49463   0.44124   0.00000  Uiso   1.00
H468   H     0.70134   0.44950   0.46257   0.00000  Uiso   1.00
N469   N     0.99392   0.54533   0.09938   0.00000  Uiso   1.00
H470   H     0.96152   0.53851   0.09363   0.00000  Uiso   1.00
H471   H     0.67513   0.57164   0.08019   0.00000  Uiso   1.00
N472   N     0.68108   0.53889   0.39703   0.00000  Uiso   1.00
H473   H     0.99973   0.56396   0.38425   0.00000  Uiso   1.00
H474   H     0.69166   0.55089   0.42335   0.00000  Uiso   1.00
N475   N     0.84992   0.41818   0.09041   0.00000  Uiso   1.00
O476   O     0.86637   0.42952   0.12257   0.00000  Uiso   1.00
O477   O     0.82268   0.38575   0.09682   0.00000  Uiso   1.00
N478   N     0.82345   0.41244   0.41424   0.00000  Uiso   1.00
O479   O     0.79254   0.40703   0.39278   0.00000  Uiso   1.00
O480   O     0.86203   0.38834   0.40404   0.00000  Uiso   1.00
N481   N     0.91002   0.62630   0.29673   0.00000  Uiso   1.00
H482   H     0.88355   0.63693   0.28310   0.00000  Uiso   1.00
H483   H     0.89871   0.63539   0.33106   0.00000  Uiso   1.00
N484   N     0.75709   0.37343   0.21012   0.00000  Uiso   1.00
H485   H     0.78106   0.36392   0.22714   0.00000  Uiso   1.00
H486   H     0.77159   0.36299   0.17640   0.00000  Uiso   1.00
N487   N     0.76634   0.44301   0.30374   0.00000  Uiso   1.00
H488   H     0.78174   0.41346   0.29593   0.00000  Uiso   1.00
H489   H     0.76204   0.44924   0.33788   0.00000  Uiso   1.00
N490   N     0.89400   0.56255   0.20144   0.00000  Uiso   1.00
H491   H     0.92854   0.55262   0.18091   0.00000  Uiso   1.00
H492   H     0.89622   0.58415   0.22520   0.00000  Uiso   1.00
O493   O     0.03958   0.77322   0.25000   0.00000  Uiso   1.00
O494   O     0.29375   0.89345   0.25000   0.00000  Uiso   1.00
O495   O     0.29372   0.77321   0.25001   0.00000  Uiso   1.00
O496   O     0.03961   0.89346   0.24999   0.00000  Uiso   1.00
C497   C     0.00038   0.75421   0.25006   0.00000  Uiso   1.00
C498   C     0.33265   0.91243   0.25091   0.00000  Uiso   1.00
O499   O     0.01852   0.83334   0.31491   0.00000  Uiso   1.00
O500   O     0.31481   0.83332   0.18509   0.00000  Uiso   1.00
O501   O     0.27267   0.83333   0.31492   0.00000  Uiso   1.00
O502   O     0.06067   0.83333   0.18508   0.00000  Uiso   1.00
C503   C     0.30436   0.83250   0.33651   0.00000  Uiso   1.00
C504   C     0.02914   0.83244   0.16347   0.00000  Uiso   1.00
Cu505  Cu    0.04689   0.83334   0.25000   0.00000  Uiso   1.00
Cu506  Cu    0.28645   0.83333   0.25000   0.00000  Uiso   1.00
C507   C     0.28549   0.82652   0.38679   0.00000  Uiso   1.00
C508   C     0.04914   0.82606   0.11326   0.00000  Uiso   1.00
C509   C     0.29376   0.83137   0.46161   0.00000  Uiso   1.00
C510   C     0.04540   0.83446   0.03687   0.00000  Uiso   1.00
C511   C     0.30928   0.84289   0.41514   0.00000  Uiso   1.00
C512   C     0.02852   0.84537   0.08338   0.00000  Uiso   1.00
C513   C     0.24245   0.80412   0.40673   0.00000  Uiso   1.00
C514   C     0.09180   0.80171   0.09480   0.00000  Uiso   1.00
C515   C     0.22587   0.79345   0.45382   0.00000  Uiso   1.00
C516   C     0.11126   0.79284   0.04739   0.00000  Uiso   1.00
C517   C     0.25463   0.80446   0.48050   0.00000  Uiso   1.00
C518   C     0.08398   0.80569   0.01925   0.00000  Uiso   1.00
C519   C     0.17845   0.77760   0.47678   0.00000  Uiso   1.00
C520   C     0.16018   0.77807   0.02531   0.00000  Uiso   1.00
C521   C     0.19457   0.77416   0.04806   0.00000  Uiso   1.00
C522   C     0.14466   0.77195   0.45415   0.00000  Uiso   1.00
C523   C     0.24163   0.78964   0.02623   0.00000  Uiso   1.00
C524   C     0.09855   0.79115   0.47338   0.00000  Uiso   1.00
H525   H     0.10978   0.79096   0.11805   0.00000  Uiso   1.00
H526   H     0.22179   0.79607   0.38504   0.00000  Uiso   1.00
H527   H     0.31088   0.84503   0.48334   0.00000  Uiso   1.00
H528   H     0.03064   0.85094   0.01427   0.00000  Uiso   1.00
C529   C     0.28983   0.68928   0.27171   0.00000  Uiso   1.00
C530   C     0.04310   0.97738   0.23183   0.00000  Uiso   1.00
H531   H     0.25622   0.70670   0.28794   0.00000  Uiso   1.00
H532   H     0.07684   0.96006   0.21584   0.00000  Uiso   1.00
C533   C     0.28845   0.97979   0.27278   0.00000  Uiso   1.00
C534   C     0.04462   0.68677   0.23144   0.00000  Uiso   1.00
C535   C     0.33200   0.95712   0.25177   0.00000  Uiso   1.00
C536   C     0.00083   0.70951   0.25090   0.00000  Uiso   1.00
C537   C     0.18290   0.80527   0.27535   0.00000  Uiso   1.00
C538   C     0.14999   0.86120   0.22474   0.00000  Uiso   1.00
H539   H     0.19437   0.78282   0.29593   0.00000  Uiso   1.00
H540   H     0.13801   0.88394   0.20480   0.00000  Uiso   1.00
C541   C     0.13336   0.80536   0.27569   0.00000  Uiso   1.00
C542   C     0.19864   0.86214   0.22532   0.00000  Uiso   1.00
N543   N     0.11736   0.83334   0.24999   0.00000  Uiso   1.00
N544   N     0.21597   0.83332   0.25001   0.00000  Uiso   1.00
N545   N     0.27556   0.78928   0.05054   0.00000  Uiso   1.00
H546   H     0.28317   0.81967   0.05521   0.00000  Uiso   1.00
H547   H     0.30755   0.77378   0.03103   0.00000  Uiso   1.00
N548   N     0.06827   0.79650   0.44577   0.00000  Uiso   1.00
H549   H     0.06384   0.82797   0.44124   0.00000  Uiso   1.00
H550   H     0.03468   0.78283   0.46257   0.00000  Uiso   1.00
N551   N     0.32726   0.87866   0.09938   0.00000  Uiso   1.00
H552   H     0.29486   0.87185   0.09363   0.00000  Uiso   1.00
H553   H     0.00846   0.90497   0.08019   0.00000  Uiso   1.00
N554   N     0.01442   0.87223   0.39703   0.00000  Uiso   1.00
H555   H     0.33306   0.89729   0.38425   0.00000  Uiso   1.00
H556   H     0.02499   0.88422   0.42335   0.00000  Uiso   1.00
N557   N     0.18325   0.75152   0.09041   0.00000  Uiso   1.00
O558   O     0.19970   0.76285   0.12257   0.00000  Uiso   1.00
O559   O     0.15602   0.71908   0.09682   0.00000  Uiso   1.00
N560   N     0.15679   0.74578   0.41424   0.00000  Uiso   1.00
O561   O     0.12587   0.74037   0.39278   0.00000  Uiso   1.00
O562   O     0.19536   0.72167   0.40404   0.00000  Uiso   1.00
N563   N     0.24336   0.95964   0.29673   0.00000  Uiso   1.00
H564   H     0.21688   0.97027   0.28310   0.00000  Uiso   1.00
H565   H     0.23205   0.96872   0.33106   0.00000  Uiso   1.00
N566   N     0.09043   0.70677   0.21012   0.00000  Uiso   1.00
H567   H     0.11440   0.69726   0.22714   0.00000  Uiso   1.00
H568   H     0.10493   0.69632   0.17640   0.00000  Uiso   1.00
N569   N     0.09967   0.77635   0.30374   0.00000  Uiso   1.00
H570   H     0.11507   0.74680   0.29593   0.00000  Uiso   1.00
H571   H     0.09537   0.78257   0.33788   0.00000  Uiso   1.00
N572   N     0.22734   0.89588   0.20144   0.00000  Uiso   1.00
H573   H     0.26187   0.88595   0.18091   0.00000  Uiso   1.00
H574   H     0.22955   0.91749   0.22520   0.00000  Uiso   1.00
O575   O     0.37291   0.77322   0.25000   0.00000  Uiso   1.00
O576   O     0.62709   0.89345   0.25000   0.00000  Uiso   1.00
O577   O     0.62706   0.77321   0.25001   0.00000  Uiso   1.00
O578   O     0.37294   0.89346   0.24999   0.00000  Uiso   1.00
C579   C     0.33371   0.75421   0.25006   0.00000  Uiso   1.00
C580   C     0.66598   0.91243   0.25091   0.00000  Uiso   1.00
O581   O     0.35186   0.83334   0.31491   0.00000  Uiso   1.00
O582   O     0.64814   0.83332   0.18509   0.00000  Uiso   1.00
O583   O     0.60600   0.83333   0.31492   0.00000  Uiso   1.00
O584   O     0.39400   0.83333   0.18508   0.00000  Uiso   1.00
C585   C     0.63769   0.83250   0.33651   0.00000  Uiso   1.00
C586   C     0.36247   0.83244   0.16347   0.00000  Uiso   1.00
Cu587  Cu    0.38022   0.83334   0.25000   0.00000  Uiso   1.00
Cu588  Cu    0.61978   0.83333   0.25000   0.00000  Uiso   1.00
C589   C     0.61882   0.82652   0.38679   0.00000  Uiso   1.00
C590   C     0.38247   0.82606   0.11326   0.00000  Uiso   1.00
C591   C     0.62710   0.83137   0.46161   0.00000  Uiso   1.00
C592   C     0.37873   0.83446   0.03687   0.00000  Uiso   1.00
C593   C     0.64262   0.84289   0.41514   0.00000  Uiso   1.00
C594   C     0.36185   0.84537   0.08338   0.00000  Uiso   1.00
C595   C     0.57578   0.80412   0.40673   0.00000  Uiso   1.00
C596   C     0.42514   0.80171   0.09480   0.00000  Uiso   1.00
C597   C     0.55920   0.79345   0.45382   0.00000  Uiso   1.00
C598   C     0.44459   0.79284   0.04739   0.00000  Uiso   1.00
C599   C     0.58796   0.80446   0.48050   0.00000  Uiso   1.00
C600   C     0.41731   0.80569   0.01925   0.00000  Uiso   1.00
C601   C     0.51178   0.77760   0.47678   0.00000  Uiso   1.00
C602   C     0.49351   0.77807   0.02531   0.00000  Uiso   1.00
C603   C     0.52791   0.77416   0.04806   0.00000  Uiso   1.00
C604   C     0.47800   0.77195   0.45415   0.00000  Uiso   1.00
C605   C     0.57497   0.78964   0.02623   0.00000  Uiso   1.00
C606   C     0.43188   0.79115   0.47338   0.00000  Uiso   1.00
H607   H     0.44311   0.79096   0.11805   0.00000  Uiso   1.00
H608   H     0.55513   0.79607   0.38504   0.00000  Uiso   1.00
H609   H     0.64422   0.84503   0.48334   0.00000  Uiso   1.00
H610   H     0.36397   0.85094   0.01427   0.00000  Uiso   1.00
C611   C     0.62316   0.68928   0.27171   0.00000  Uiso   1.00
C612   C     0.37643   0.97738   0.23183   0.00000  Uiso   1.00
H613   H     0.58956   0.70670   0.28794   0.00000  Uiso   1.00
H614   H     0.41017   0.96006   0.21584   0.00000  Uiso   1.00
C615   C     0.62179   0.97979   0.27278   0.00000  Uiso   1.00
C616   C     0.37795   0.68677   0.23144   0.00000  Uiso   1.00
C617   C     0.66534   0.95712   0.25177   0.00000  Uiso   1.00
C618   C     0.33416   0.70951   0.25090   0.00000  Uiso   1.00
C619   C     0.51623   0.80527   0.27535   0.00000  Uiso   1.00
C620   C     0.48332   0.86120   0.22474   0.00000  Uiso   1.00
H621   H     0.52771   0.78282   0.29593   0.00000  Uiso   1.00
H622   H     0.47134   0.88394   0.20480   0.00000  Uiso   1.00
C623   C     0.46669   0.80536   0.27569   0.00000  Uiso   1.00
C624   C     0.53197   0.86214   0.22532   0.00000  Uiso   1.00
N625   N     0.45069   0.83334   0.24999   0.00000  Uiso   1.00
N626   N     0.54931   0.83332   0.25001   0.00000  Uiso   1.00
N627   N     0.60890   0.78928   0.05054   0.00000  Uiso   1.00
H628   H     0.61651   0.81967   0.05521   0.00000  Uiso   1.00
H629   H     0.64088   0.77378   0.03103   0.00000  Uiso   1.00
N630   N     0.40160   0.79650   0.44577   0.00000  Uiso   1.00
H631   H     0.39718   0.82797   0.44124   0.00000  Uiso   1.00
H632   H     0.36801   0.78283   0.46257   0.00000  Uiso   1.00
N633   N     0.66059   0.87866   0.09938   0.00000  Uiso   1.00
H634   H     0.62819   0.87185   0.09363   0.00000  Uiso   1.00
H635   H     0.34179   0.90497   0.08019   0.00000  Uiso   1.00
N636   N     0.34775   0.87223   0.39703   0.00000  Uiso   1.00
H637   H     0.66640   0.89729   0.38425   0.00000  Uiso   1.00
H638   H     0.35833   0.88422   0.42335   0.00000  Uiso   1.00
N639   N     0.51658   0.75152   0.09041   0.00000  Uiso   1.00
O640   O     0.53304   0.76285   0.12257   0.00000  Uiso   1.00
O641   O     0.48935   0.71908   0.09682   0.00000  Uiso   1.00
N642   N     0.49012   0.74578   0.41424   0.00000  Uiso   1.00
O643   O     0.45921   0.74037   0.39278   0.00000  Uiso   1.00
O644   O     0.52869   0.72167   0.40404   0.00000  Uiso   1.00
N645   N     0.57669   0.95964   0.29673   0.00000  Uiso   1.00
H646   H     0.55022   0.97027   0.28310   0.00000  Uiso   1.00
H647   H     0.56538   0.96872   0.33106   0.00000  Uiso   1.00
N648   N     0.42376   0.70677   0.21012   0.00000  Uiso   1.00
H649   H     0.44773   0.69726   0.22714   0.00000  Uiso   1.00
H650   H     0.43826   0.69632   0.17640   0.00000  Uiso   1.00
N651   N     0.43301   0.77635   0.30374   0.00000  Uiso   1.00
H652   H     0.44840   0.74680   0.29593   0.00000  Uiso   1.00
H653   H     0.42870   0.78257   0.33788   0.00000  Uiso   1.00
N654   N     0.56067   0.89588   0.20144   0.00000  Uiso   1.00
H655   H     0.59520   0.88595   0.18091   0.00000  Uiso   1.00
H656   H     0.56289   0.91749   0.22520   0.00000  Uiso   1.00
O657   O     0.70625   0.77322   0.25000   0.00000  Uiso   1.00
O658   O     0.96042   0.89345   0.25000   0.00000  Uiso   1.00
O659   O     0.96039   0.77321   0.25001   0.00000  Uiso   1.00
O660   O     0.70628   0.89346   0.24999   0.00000  Uiso   1.00
C661   C     0.66705   0.75421   0.25006   0.00000  Uiso   1.00
C662   C     0.99931   0.91243   0.25091   0.00000  Uiso   1.00
O663   O     0.68519   0.83334   0.31491   0.00000  Uiso   1.00
O664   O     0.98148   0.83332   0.18509   0.00000  Uiso   1.00
O665   O     0.93933   0.83333   0.31492   0.00000  Uiso   1.00
O666   O     0.72733   0.83333   0.18508   0.00000  Uiso   1.00
C667   C     0.97103   0.83250   0.33651   0.00000  Uiso   1.00
C668   C     0.69580   0.83244   0.16347   0.00000  Uiso   1.00
Cu669  Cu    0.71355   0.83334   0.25000   0.00000  Uiso   1.00
Cu670  Cu    0.95311   0.83333   0.25000   0.00000  Uiso   1.00
C671   C     0.95216   0.82652   0.38679   0.00000  Uiso   1.00
C672   C     0.71580   0.82606   0.11326   0.00000  Uiso   1.00
C673   C     0.96043   0.83137   0.46161   0.00000  Uiso   1.00
C674   C     0.71206   0.83446   0.03687   0.00000  Uiso   1.00
C675   C     0.97595   0.84289   0.41514   0.00000  Uiso   1.00
C676   C     0.69519   0.84537   0.08338   0.00000  Uiso   1.00
C677   C     0.90911   0.80412   0.40673   0.00000  Uiso   1.00
C678   C     0.75847   0.80171   0.09480   0.00000  Uiso   1.00
C679   C     0.89253   0.79345   0.45382   0.00000  Uiso   1.00
C680   C     0.77793   0.79284   0.04739   0.00000  Uiso   1.00
C681   C     0.92129   0.80446   0.48050   0.00000  Uiso   1.00
C682   C     0.75064   0.80569   0.01925   0.00000  Uiso   1.00
C683   C     0.84512   0.77760   0.47678   0.00000  Uiso   1.00
C684   C     0.82684   0.77807   0.02531   0.00000  Uiso   1.00
C685   C     0.86124   0.77416   0.04806   0.00000  Uiso   1.00
C686   C     0.81133   0.77195   0.45415   0.00000  Uiso   1.00
C687   C     0.90830   0.78964   0.02623   0.00000  Uiso   1.00
C688   C     0.76521   0.79115   0.47338   0.00000  Uiso   1.00
H689   H     0.77645   0.79096   0.11805   0.00000  Uiso   1.00
H690   H     0.88846   0.79607   0.38504   0.00000  Uiso   1.00
H691   H     0.97755   0.84503   0.48334   0.00000  Uiso   1.00
H692   H     0.69731   0.85094   0.01427   0.00000  Uiso   1.00
C693   C     0.95650   0.68928   0.27171   0.00000  Uiso   1.00
C694   C     0.70977   0.97738   0.23183   0.00000  Uiso   1.00
H695   H     0.92289   0.70670   0.28794   0.00000  Uiso   1.00
H696   H     0.74351   0.96006   0.21584   0.00000  Uiso   1.00
C697   C     0.95512   0.97979   0.27278   0.00000  Uiso   1.00
C698   C     0.71129   0.68677   0.23144   0.00000  Uiso   1.00
C699   C     0.99867   0.95712   0.25177   0.00000  Uiso   1.00
C700   C     0.66750   0.70951   0.25090   0.00000  Uiso   1.00
C701   C     0.84956   0.80527   0.27535   0.00000  Uiso   1.00
C702   C     0.81666   0.86120   0.22474   0.00000  Uiso   1.00
H703   H     0.86104   0.78282   0.29593   0.00000  Uiso   1.00
H704   H     0.80468   0.88394   0.20480   0.00000  Uiso   1.00
C705   C     0.80003   0.80536   0.27569   0.00000  Uiso   1.00
C706   C     0.86530   0.86214   0.22532   0.00000  Uiso   1.00
N707   N     0.78403   0.83334   0.24999   0.00000  Uiso   1.00
N708   N     0.88264   0.83332   0.25001   0.00000  Uiso   1.00
N709   N     0.94223   0.78928   0.05054   0.00000  Uiso   1.00
H710   H     0.94984   0.81967   0.05521   0.00000  Uiso   1.00
H711   H     0.97421   0.77378   0.03103   0.00000  Uiso   1.00
N712   N     0.73494   0.79650   0.44577   0.00000  Uiso   1.00
H713   H     0.73051   0.82797   0.44124   0.00000  Uiso   1.00
H714   H     0.70134   0.78283   0.46257   0.00000  Uiso   1.00
N715   N     0.99392   0.87866   0.09938   0.00000  Uiso   1.00
H716   H     0.96152   0.87185   0.09363   0.00000  Uiso   1.00
H717   H     0.67513   0.90497   0.08019   0.00000  Uiso   1.00
N718   N     0.68108   0.87223   0.39703   0.00000  Uiso   1.00
H719   H     0.99973   0.89729   0.38425   0.00000  Uiso   1.00
H720   H     0.69166   0.88422   0.42335   0.00000  Uiso   1.00
N721   N     0.84992   0.75152   0.09041   0.00000  Uiso   1.00
O722   O     0.86637   0.76285   0.12257   0.00000  Uiso   1.00
O723   O     0.82268   0.71908   0.09682   0.00000  Uiso   1.00
N724   N     0.82345   0.74578   0.41424   0.00000  Uiso   1.00
O725   O     0.79254   0.74037   0.39278   0.00000  Uiso   1.00
O726   O     0.86203   0.72167   0.40404   0.00000  Uiso   1.00
N727   N     0.91002   0.95964   0.29673   0.00000  Uiso   1.00
H728   H     0.88355   0.97027   0.28310   0.00000  Uiso   1.00
H729   H     0.89871   0.96872   0.33106   0.00000  Uiso   1.00
N730   N     0.75709   0.70677   0.21012   0.00000  Uiso   1.00
H731   H     0.78106   0.69726   0.22714   0.00000  Uiso   1.00
H732   H     0.77159   0.69632   0.17640   0.00000  Uiso   1.00
N733   N     0.76634   0.77635   0.30374   0.00000  Uiso   1.00
H734   H     0.78174   0.74680   0.29593   0.00000  Uiso   1.00
H735   H     0.76204   0.78257   0.33788   0.00000  Uiso   1.00
N736   N     0.89400   0.89588   0.20144   0.00000  Uiso   1.00
H737   H     0.92854   0.88595   0.18091   0.00000  Uiso   1.00
H738   H     0.89622   0.91749   0.22520   0.00000  Uiso   1.00
O739   O     0.03958   0.10655   0.75000   0.00000  Uiso   1.00
O740   O     0.29375   0.22678   0.75000   0.00000  Uiso   1.00
O741   O     0.29372   0.10654   0.75001   0.00000  Uiso   1.00
O742   O     0.03961   0.22679   0.74999   0.00000  Uiso   1.00
C743   C     0.00038   0.08755   0.75006   0.00000  Uiso   1.00
C744   C     0.33265   0.24577   0.75091   0.00000  Uiso   1.00
O745   O     0.01852   0.16668   0.81491   0.00000  Uiso   1.00
O746   O     0.31481   0.16666   0.68509   0.00000  Uiso   1.00
O747   O     0.27267   0.16667   0.81492   0.00000  Uiso   1.00
O748   O     0.06067   0.16667   0.68508   0.00000  Uiso   1.00
C749   C     0.30436   0.16583   0.83651   0.00000  Uiso   1.00
C750   C     0.02914   0.16577   0.66347   0.00000  Uiso   1.00
Cu751  Cu    0.04689   0.16667   0.75000   0.00000  Uiso   1.00
Cu752  Cu    0.28645   0.16666   0.75000   0.00000  Uiso   1.00
C753   C     0.28549   0.15986   0.88679   0.00000  Uiso   1.00
C754   C     0.04914   0.15940   0.61326   0.00000  Uiso   1.00
C755   C     0.29376   0.16470   0.96161   0.00000  Uiso   1.00
C756   C     0.04540   0.16780   0.53687   0.00000  Uiso   1.00
C757   C     0.30928   0.17622   0.91514   0.00000  Uiso   1.00
C758   C     0.02852   0.17870   0.58338   0.00000  Uiso   1.00
C759   C     0.24245   0.13745   0.90673   0.00000  Uiso   1.00
C760   C     0.09180   0.13504   0.59480   0.00000  Uiso   1.00
C761   C     0.22587   0.12679   0.95382   0.00000  Uiso   1.00
C762   C     0.11126   0.12617   0.54739   0.00000  Uiso   1.00
C763   C     0.25463   0.13779   0.98050   0.00000  Uiso   1.00
C764   C     0.08398   0.13902   0.51925   0.00000  Uiso   1.00
C765   C     0.17845   0.11093   0.97678   0.00000  Uiso   1.00
C766   C     0.16018   0.11141   0.52531   0.00000  Uiso   1.00
C767   C     0.19457   0.10749   0.54806   0.00000  Uiso   1.00
C768   C     0.14466   0.10528   0.95415   0.00000  Uiso   1.00
C769   C     0.24163   0.12297   0.52623   0.00000  Uiso   1.00
C770   C     0.09855   0.12448   0.97338   0.00000  Uiso   1.00
H771   H     0.10978   0.12430   0.61805   0.00000  Uiso   1.00
H772   H     0.22179   0.12940   0.88504   0.00000  Uiso   1.00
H773   H     0.31088   0.17836   0.98334   0.00000  Uiso   1.00
H774   H     0.03064   0.18427   0.51427   0.00000  Uiso   1.00
C775   C     0.28983   0.02262   0.77171   0.00000  Uiso   1.00
C776   C     0.04310   0.31071   0.73183   0.00000  Uiso   1.00
H777   H     0.25622   0.04004   0.78794   0.00000  Uiso   1.00
H778   H     0.07684   0.29339   0.71584   0.00000  Uiso   1.00
C779   C     0.28845   0.31313   0.77278   0.00000  Uiso   1.00
C780   C     0.04462   0.02010   0.73144   0.00000  Uiso   1.00
C781   C     0.33200   0.29045   0.75177   0.00000  Uiso   1.00
C782   C     0.00083   0.04285   0.75090   0.00000  Uiso   1.00
C783   C     0.18290   0.13860   0.77535   0.00000  Uiso   1.00
C784   C     0.14999   0.19453   0.72474   0.00000  Uiso   1.00
H785   H     0.19437   0.11616   0.79593   0.00000  Uiso   1.00
H786   H     0.13801   0.21727   0.70480   0.00000  Uiso   1.00
C787   C     0.13336   0.13869   0.77569   0.00000  Uiso   1.00
C788   C     0.19864   0.19547   0.72532   0.00000  Uiso   1.00
N789   N     0.11736   0.16668   0.74999   0.00000  Uiso   1.00
N790   N     0.21597   0.16666   0.75001   0.00000  Uiso   1.00
N791   N     0.27556   0.12261   0.55054   0.00000  Uiso   1.00
H792   H     0.28317   0.15301   0.55521   0.00000  Uiso   1.00
H793   H     0.30755   0.10711   0.53103   0.00000  Uiso   1.00
N794   N     0.06827   0.12983   0.94577   0.00000  Uiso   1.00
H795   H     0.06384   0.16130   0.94124   0.00000  Uiso   1.00
H796   H     0.03468   0.11616   0.96257   0.00000  Uiso   1.00
N797   N     0.32726   0.21199   0.59938   0.00000  Uiso   1.00
H798   H     0.29486   0.20518   0.59363   0.00000  Uiso   1.00
H799   H     0.00846   0.23831   0.58019   0.00000  Uiso   1.00
N800   N     0.01442   0.20556   0.89703   0.00000  Uiso   1.00
H801   H     0.33306   0.23063   0.88425   0.00000  Uiso   1.00
H802   H     0.02499   0.21756   0.92335   0.00000  Uiso   1.00
N803   N     0.18325   0.08485   0.59041   0.00000  Uiso   1.00
O804   O     0.19970   0.09618   0.62257   0.00000  Uiso   1.00
O805   O     0.15602   0.05242   0.59682   0.00000  Uiso   1.00
N806   N     0.15679   0.07911   0.91424   0.00000  Uiso   1.00
O807   O     0.12587   0.07370   0.89278   0.00000  Uiso   1.00
O808   O     0.19536   0.05501   0.90404   0.00000  Uiso   1.00
N809   N     0.24336   0.29297   0.79673   0.00000  Uiso   1.00
H810   H     0.21688   0.30360   0.78310   0.00000  Uiso   1.00
H811   H     0.23205   0.30206   0.83106   0.00000  Uiso   1.00
N812   N     0.09043   0.04010   0.71012   0.00000  Uiso   1.00
H813   H     0.11440   0.03059   0.72714   0.00000  Uiso   1.00
H814   H     0.10493   0.02965   0.67640   0.00000  Uiso   1.00
N815   N     0.09967   0.10968   0.80374   0.00000  Uiso   1.00
H816   H     0.11507   0.08013   0.79593   0.00000  Uiso   1.00
H817   H     0.09537   0.11590   0.83788   0.00000  Uiso   1.00
N818   N     0.22734   0.22922   0.70144   0.00000  Uiso   1.00
H819   H     0.26187   0.21928   0.68091   0.00000  Uiso   1.00
H820   H     0.22955   0.25082   0.72520   0.00000  Uiso   1.00
O821   O     0.37291   0.10655   0.75000   0.00000  Uiso   1.00
O822   O     0.62709   0.22678   0.75000   0.00000  Uiso   1.00
O823   O     0.62706   0.10654   0.75001   0.00000  Uiso   1.00
O824   O     0.37294   0.22679   0.74999   0.00000  Uiso   1.00
C825   C     0.33371   0.08755   0.75006   0.00000  Uiso   1.00
C826   C     0.66598   0.24577   0.75091   0.00000  Uiso   1.00
O827   O     0.35186   0.16668   0.81491   0.00000  Uiso   1.00
O828   O     0.64814   0.16666   0.68509   0.00000  Uiso   1.00
O829   O     0.60600   0.16667   0.81492   0.00000  Uiso   1.00
O830   O     0.39400   0.16667   0.68508   0.00000  Uiso   1.00
C831   C     0.63769   0.16583   0.83651   0.00000  Uiso   1.00
C832   C     0.36247   0.16577   0.66347   0.00000  Uiso   1.00
Cu833  Cu    0.38022   0.16667   0.75000   0.00000  Uiso   1.00
Cu834  Cu    0.61978   0.16666   0.75000   0.00000  Uiso   1.00
C835   C     0.61882   0.15986   0.88679   0.00000  Uiso   1.00
C836   C     0.38247   0.15940   0.61326   0.00000  Uiso   1.00
C837   C     0.62710   0.16470   0.96161   0.00000  Uiso   1.00
C838   C     0.37873   0.16780   0.53687   0.00000  Uiso   1.00
C839   C     0.64262   0.17622   0.91514   0.00000  Uiso   1.00
C840   C     0.36185   0.17870   0.58338   0.00000  Uiso   1.00
C841   C     0.57578   0.13745   0.90673   0.00000  Uiso   1.00
C842   C     0.42514   0.13504   0.59480   0.00000  Uiso   1.00
C843   C     0.55920   0.12679   0.95382   0.00000  Uiso   1.00
C844   C     0.44459   0.12617   0.54739   0.00000  Uiso   1.00
C845   C     0.58796   0.13779   0.98050   0.00000  Uiso   1.00
C846   C     0.41731   0.13902   0.51925   0.00000  Uiso   1.00
C847   C     0.51178   0.11093   0.97678   0.00000  Uiso   1.00
C848   C     0.49351   0.11141   0.52531   0.00000  Uiso   1.00
C849   C     0.52791   0.10749   0.54806   0.00000  Uiso   1.00
C850   C     0.47800   0.10528   0.95415   0.00000  Uiso   1.00
C851   C     0.57497   0.12297   0.52623   0.00000  Uiso   1.00
C852   C     0.43188   0.12448   0.97338   0.00000  Uiso   1.00
H853   H     0.44311   0.12430   0.61805   0.00000  Uiso   1.00
H854   H     0.55513   0.12940   0.88504   0.00000  Uiso   1.00
H855   H     0.64422   0.17836   0.98334   0.00000  Uiso   1.00
H856   H     0.36397   0.18427   0.51427   0.00000  Uiso   1.00
C857   C     0.62316   0.02262   0.77171   0.00000  Uiso   1.00
C858   C     0.37643   0.31071   0.73183   0.00000  Uiso   1.00
H859   H     0.58956   0.04004   0.78794   0.00000  Uiso   1.00
H860   H     0.41017   0.29339   0.71584   0.00000  Uiso   1.00
C861   C     0.62179   0.31313   0.77278   0.00000  Uiso   1.00
C862   C     0.37795   0.02010   0.73144   0.00000  Uiso   1.00
C863   C     0.66534   0.29045   0.75177   0.00000  Uiso   1.00
C864   C     0.33416   0.04285   0.75090   0.00000  Uiso   1.00
C865   C     0.51623   0.13860   0.77535   0.00000  Uiso   1.00
C866   C     0.48332   0.19453   0.72474   0.00000  Uiso   1.00
H867   H     0.52771   0.11616   0.79593   0.00000  Uiso   1.00
H868   H     0.47134   0.21727   0.70480   0.00000  Uiso   1.00
C869   C     0.46669   0.13869   0.77569   0.00000  Uiso   1.00
C870   C     0.53197   0.19547   0.72532   0.00000  Uiso   1.00
N871   N     0.45069   0.16668   0.74999   0.00000  Uiso   1.00
N872   N     0.54931   0.16666   0.75001   0.00000  Uiso   1.00
N873   N     0.60890   0.12261   0.55054   0.00000  Uiso   1.00
H874   H     0.61651   0.15301   0.55521   0.00000  Uiso   1.00
H875   H     0.64088   0.10711   0.53103   0.00000  Uiso   1.00
N876   N     0.40160   0.12983   0.94577   0.00000  Uiso   1.00
H877   H     0.39718   0.16130   0.94124   0.00000  Uiso   1.00
H878   H     0.36801   0.11616   0.96257   0.00000  Uiso   1.00
N879   N     0.66059   0.21199   0.59938   0.00000  Uiso   1.00
H880   H     0.62819   0.20518   0.59363   0.00000  Uiso   1.00
H881   H     0.34179   0.23831   0.58019   0.00000  Uiso   1.00
N882   N     0.34775   0.20556   0.89703   0.00000  Uiso   1.00
H883   H     0.66640   0.23063   0.88425   0.00000  Uiso   1.00
H884   H     0.35833   0.21756   0.92335   0.00000  Uiso   1.00
N885   N     0.51658   0.08485   0.59041   0.00000  Uiso   1.00
O886   O     0.53304   0.09618   0.62257   0.00000  Uiso   1.00
O887   O     0.48935   0.05242   0.59682   0.00000  Uiso   1.00
N888   N     0.49012   0.07911   0.91424   0.00000  Uiso   1.00
O889   O     0.45921   0.07370   0.89278   0.00000  Uiso   1.00
O890   O     0.52869   0.05501   0.90404   0.00000  Uiso   1.00
N891   N     0.57669   0.29297   0.79673   0.00000  Uiso   1.00
H892   H     0.55022   0.30360   0.78310   0.00000  Uiso   1.00
H893   H     0.56538   0.30206   0.83106   0.00000  Uiso   1.00
N894   N     0.42376   0.04010   0.71012   0.00000  Uiso   1.00
H895   H     0.44773   0.03059   0.72714   0.00000  Uiso   1.00
H896   H     0.43826   0.02965   0.67640   0.00000  Uiso   1.00
N897   N     0.43301   0.10968   0.80374   0.00000  Uiso   1.00
H898   H     0.44840   0.08013   0.79593   0.00000  Uiso   1.00
H899   H     0.42870   0.11590   0.83788   0.00000  Uiso   1.00
N900   N     0.56067   0.22922   0.70144   0.00000  Uiso   1.00
H901   H     0.59520   0.21928   0.68091   0.00000  Uiso   1.00
H902   H     0.56289   0.25082   0.72520   0.00000  Uiso   1.00
O903   O     0.70625   0.10655   0.75000   0.00000  Uiso   1.00
O904   O     0.96042   0.22678   0.75000   0.00000  Uiso   1.00
O905   O     0.96039   0.10654   0.75001   0.00000  Uiso   1.00
O906   O     0.70628   0.22679   0.74999   0.00000  Uiso   1.00
C907   C     0.66705   0.08755   0.75006   0.00000  Uiso   1.00
C908   C     0.99931   0.24577   0.75091   0.00000  Uiso   1.00
O909   O     0.68519   0.16668   0.81491   0.00000  Uiso   1.00
O910   O     0.98148   0.16666   0.68509   0.00000  Uiso   1.00
O911   O     0.93933   0.16667   0.81492   0.00000  Uiso   1.00
O912   O     0.72733   0.16667   0.68508   0.00000  Uiso   1.00
C913   C     0.97103   0.16583   0.83651   0.00000  Uiso   1.00
C914   C     0.69580   0.16577   0.66347   0.00000  Uiso   1.00
Cu915  Cu    0.71355   0.16667   0.75000   0.00000  Uiso   1.00
Cu916  Cu    0.95311   0.16666   0.75000   0.00000  Uiso   1.00
C917   C     0.95216   0.15986   0.88679   0.00000  Uiso   1.00
C918   C     0.71580   0.15940   0.61326   0.00000  Uiso   1.00
C919   C     0.96043   0.16470   0.96161   0.00000  Uiso   1.00
C920   C     0.71206   0.16780   0.53687   0.00000  Uiso   1.00
C921   C     0.97595   0.17622   0.91514   0.00000  Uiso   1.00
C922   C     0.69519   0.17870   0.58338   0.00000  Uiso   1.00
C923   C     0.90911   0.13745   0.90673   0.00000  Uiso   1.00
C924   C     0.75847   0.13504   0.59480   0.00000  Uiso   1.00
C925   C     0.89253   0.12679   0.95382   0.00000  Uiso   1.00
C926   C     0.77793   0.12617   0.54739   0.00000  Uiso   1.00
C927   C     0.92129   0.13779   0.98050   0.00000  Uiso   1.00
C928   C     0.75064   0.13902   0.51925   0.00000  Uiso   1.00
C929   C     0.84512   0.11093   0.97678   0.00000  Uiso   1.00
C930   C     0.82684   0.11141   0.52531   0.00000  Uiso   1.00
C931   C     0.86124   0.10749   0.54806   0.00000  Uiso   1.00
C932   C     0.81133   0.10528   0.95415   0.00000  Uiso   1.00
C933   C     0.90830   0.12297   0.52623   0.00000  Uiso   1.00
C934   C     0.76521   0.12448   0.97338   0.00000  Uiso   1.00
H935   H     0.77645   0.12430   0.61805   0.00000  Uiso   1.00
H936   H     0.88846   0.12940   0.88504   0.00000  Uiso   1.00
H937   H     0.97755   0.17836   0.98334   0.00000  Uiso   1.00
H938   H     0.69731   0.18427   0.51427   0.00000  Uiso   1.00
C939   C     0.95650   0.02262   0.77171   0.00000  Uiso   1.00
C940   C     0.70977   0.31071   0.73183   0.00000  Uiso   1.00
H941   H     0.92289   0.04004   0.78794   0.00000  Uiso   1.00
H942   H     0.74351   0.29339   0.71584   0.00000  Uiso   1.00
C943   C     0.95512   0.31313   0.77278   0.00000  Uiso   1.00
C944   C     0.71129   0.02010   0.73144   0.00000  Uiso   1.00
C945   C     0.99867   0.29045   0.75177   0.00000  Uiso   1.00
C946   C     0.66750   0.04285   0.75090   0.00000  Uiso   1.00
C947   C     0.84956   0.13860   0.77535   0.00000  Uiso   1.00
C948   C     0.81666   0.19453   0.72474   0.00000  Uiso   1.00
H949   H     0.86104   0.11616   0.79593   0.00000  Uiso   1.00
H950   H     0.80468   0.21727   0.70480   0.00000  Uiso   1.00
C951   C     0.80003   0.13869   0.77569   0.00000  Uiso   1.00
C952   C     0.86530   0.19547   0.72532   0.00000  Uiso   1.00
N953   N     0.78403   0.16668   0.74999   0.00000  Uiso   1.00
N954   N     0.88264   0.16666   0.75001   0.00000  Uiso   1.00
N955   N     0.94223   0.12261   0.55054   0.00000  Uiso   1.00
H956   H     0.94984   0.15301   0.55521   0.00000  Uiso   1.00
H957   H     0.97421   0.10711   0.53103   0.00000  Uiso   1.00
N958   N     0.73494   0.12983   0.94577   0.00000  Uiso   1.00
H959   H     0.73051   0.16130   0.94124   0.00000  Uiso   1.00
H960   H     0.70134   0.11616   0.96257   0.00000  Uiso   1.00
N961   N     0.99392   0.21199   0.59938   0.00000  Uiso   1.00
H962   H     0.96152   0.20518   0.59363   0.00000  Uiso   1.00
H963   H     0.67513   0.23831   0.58019   0.00000  Uiso   1.00
N964   N     0.68108   0.20556   0.89703   0.00000  Uiso   1.00
H965   H     0.99973   0.23063   0.88425   0.00000  Uiso   1.00
H966   H     0.69166   0.21756   0.92335   0.00000  Uiso   1.00
N967   N     0.84992   0.08485   0.59041   0.00000  Uiso   1.00
O968   O     0.86637   0.09618   0.62257   0.00000  Uiso   1.00
O969   O     0.82268   0.05242   0.59682   0.00000  Uiso   1.00
N970   N     0.82345   0.07911   0.91424   0.00000  Uiso   1.00
O971   O     0.79254   0.07370   0.89278   0.00000  Uiso   1.00
O972   O     0.86203   0.05501   0.90404   0.00000  Uiso   1.00
N973   N     0.91002   0.29297   0.79673   0.00000  Uiso   1.00
H974   H     0.88355   0.30360   0.78310   0.00000  Uiso   1.00
H975   H     0.89871   0.30206   0.83106   0.00000  Uiso   1.00
N976   N     0.75709   0.04010   0.71012   0.00000  Uiso   1.00
H977   H     0.78106   0.03059   0.72714   0.00000  Uiso   1.00
H978   H     0.77159   0.02965   0.67640   0.00000  Uiso   1.00
N979   N     0.76634   0.10968   0.80374   0.00000  Uiso   1.00
H980   H     0.78174   0.08013   0.79593   0.00000  Uiso   1.00
H981   H     0.76204   0.11590   0.83788   0.00000  Uiso   1.00
N982   N     0.89400   0.22922   0.70144   0.00000  Uiso   1.00
H983   H     0.92854   0.21928   0.68091   0.00000  Uiso   1.00
H984   H     0.89622   0.25082   0.72520   0.00000  Uiso   1.00
O985   O     0.03958   0.43989   0.75000   0.00000  Uiso   1.00
O986   O     0.29375   0.56011   0.75000   0.00000  Uiso   1.00
O987   O     0.29372   0.43988   0.75001   0.00000  Uiso   1.00
O988   O     0.03961   0.56012   0.74999   0.00000  Uiso   1.00
C989   C     0.00038   0.42088   0.75006   0.00000  Uiso   1.00
C990   C     0.33265   0.57910   0.75091   0.00000  Uiso   1.00
O991   O     0.01852   0.50001   0.81491   0.00000  Uiso   1.00
O992   O     0.31481   0.49999   0.68509   0.00000  Uiso   1.00
O993   O     0.27267   0.50000   0.81492   0.00000  Uiso   1.00
O994   O     0.06067   0.50000   0.68508   0.00000  Uiso   1.00
C995   C     0.30436   0.49917   0.83651   0.00000  Uiso   1.00
C996   C     0.02914   0.49910   0.66347   0.00000  Uiso   1.00
Cu997  Cu    0.04689   0.50001   0.75000   0.00000  Uiso   1.00
Cu998  Cu    0.28645   0.49999   0.75000   0.00000  Uiso   1.00
C999   C     0.28549   0.49319   0.88679   0.00000  Uiso   1.00
C1000  C     0.04914   0.49273   0.61326   0.00000  Uiso   1.00
C1001  C     0.29376   0.49804   0.96161   0.00000  Uiso   1.00
C1002  C     0.04540   0.50113   0.53687   0.00000  Uiso   1.00
C1003  C     0.30928   0.50955   0.91514   0.00000  Uiso   1.00
C1004  C     0.02852   0.51204   0.58338   0.00000  Uiso   1.00
C1005  C     0.24245   0.47079   0.90673   0.00000  Uiso   1.00
C1006  C     0.09180   0.46837   0.59480   0.00000  Uiso   1.00
C1007  C     0.22587   0.46012   0.95382   0.00000  Uiso   1.00
C1008  C     0.11126   0.45951   0.54739   0.00000  Uiso   1.00
C1009  C     0.25463   0.47113   0.98050   0.00000  Uiso   1.00
C1010  C     0.08398   0.47236   0.51925   0.00000  Uiso   1.00
C1011  C     0.17845   0.44427   0.97678   0.00000  Uiso   1.00
C1012  C     0.16018   0.44474   0.52531   0.00000  Uiso   1.00
C1013  C     0.19457   0.44082   0.54806   0.00000  Uiso   1.00
C1014  C     0.14466   0.43861   0.95415   0.00000  Uiso   1.00
C1015  C     0.24163   0.45631   0.52623   0.00000  Uiso   1.00
C1016  C     0.09855   0.45782   0.97338   0.00000  Uiso   1.00
H1017  H     0.10978   0.45763   0.61805   0.00000  Uiso   1.00
H1018  H     0.22179   0.46273   0.88504   0.00000  Uiso   1.00
H1019  H     0.31088   0.51170   0.98334   0.00000  Uiso   1.00
H1020  H     0.03064   0.51761   0.51427   0.00000  Uiso   1.00
C1021  C     0.28983   0.35595   0.77171   0.00000  Uiso   1.00
C1022  C     0.04310   0.64404   0.73183   0.00000  Uiso   1.00
H1023  H     0.25622   0.37337   0.78794   0.00000  Uiso   1.00
H1024  H     0.07684   0.62672   0.71584   0.00000  Uiso   1.00
C1025  C     0.28845   0.64646   0.77278   0.00000  Uiso   1.00
C1026  C     0.04462   0.35343   0.73144   0.00000  Uiso   1.00
C1027  C     0.33200   0.62379   0.75177   0.00000  Uiso   1.00
C1028  C     0.00083   0.37618   0.75090   0.00000  Uiso   1.00
C1029  C     0.18290   0.47193   0.77535   0.00000  Uiso   1.00
C1030  C     0.14999   0.52787   0.72474   0.00000  Uiso   1.00
H1031  H     0.19437   0.44949   0.79593   0.00000  Uiso   1.00
H1032  H     0.13801   0.55060   0.70480   0.00000  Uiso   1.00
C1033  C     0.13336   0.47202   0.77569   0.00000  Uiso   1.00
C1034  C     0.19864   0.52880   0.72532   0.00000  Uiso   1.00
N1035  N     0.11736   0.50001   0.74999   0.00000  Uiso   1.00
N1036  N     0.21597   0.49999   0.75001   0.00000  Uiso   1.00
N1037  N     0.27556   0.45595   0.55054   0.00000  Uiso   1.00
H1038  H     0.28317   0.48634   0.55521   0.00000  Uiso   1.00
H1039  H     0.30755   0.44045   0.53103   0.00000  Uiso   1.00
N1040  N     0.06827   0.46317   0.94577   0.00000  Uiso   1.00
H1041  H     0.06384   0.49463   0.94124   0.00000  Uiso   1.00
H1042  H     0.03468   0.44950   0.96257   0.00000  Uiso   1.00
N1043  N     0.32726   0.54533   0.59938   0.00000  Uiso   1.00
H1044  H     0.29486   0.53851   0.59363   0.00000  Uiso   1.00
H1045  H     0.00846   0.57164   0.58019   0.00000  Uiso   1.00
N1046  N     0.01442   0.53889   0.89703   0.00000  Uiso   1.00
H1047  H     0.33306   0.56396   0.88425   0.00000  Uiso   1.00
H1048  H     0.02499   0.55089   0.92335   0.00000  Uiso   1.00
N1049  N     0.18325   0.41818   0.59041   0.00000  Uiso   1.00
O1050  O     0.19970   0.42952   0.62257   0.00000  Uiso   1.00
O1051  O     0.15602   0.38575   0.59682   0.00000  Uiso   1.00
N1052  N     0.15679   0.41244   0.91424   0.00000  Uiso   1.00
O1053  O     0.12587   0.40703   0.89278   0.00000  Uiso   1.00
O1054  O     0.19536   0.38834   0.90404   0.00000  Uiso   1.00
N1055  N     0.24336   0.62630   0.79673   0.00000  Uiso   1.00
H1056  H     0.21688   0.63693   0.78310   0.00000  Uiso   1.00
H1057  H     0.23205   0.63539   0.83106   0.00000  Uiso   1.00
N1058  N     0.09043   0.37343   0.71012   0.00000  Uiso   1.00
H1059  H     0.11440   0.36392   0.72714   0.00000  Uiso   1.00
H1060  H     0.10493   0.36299   0.67640   0.00000  Uiso   1.00
N1061  N     0.09967   0.44301   0.80374   0.00000  Uiso   1.00
H1062  H     0.11507   0.41346   0.79593   0.00000  Uiso   1.00
H1063  H     0.09537   0.44924   0.83788   0.00000  Uiso   1.00
N1064  N     0.22734   0.56255   0.70144   0.00000  Uiso   1.00
H1065  H     0.26187   0.55262   0.68091   0.00000  Uiso   1.00
H1066  H     0.22955   0.58415   0.72520   0.00000  Uiso   1.00
O1067  O     0.37291   0.43989   0.75000   0.00000  Uiso   1.00
O1068  O     0.62709   0.56011   0.75000   0.00000  Uiso   1.00
O1069  O     0.62706   0.43988   0.75001   0.00000  Uiso   1.00
O1070  O     0.37294   0.56012   0.74999   0.00000  Uiso   1.00
C1071  C     0.33371   0.42088   0.75006   0.00000  Uiso   1.00
C1072  C     0.66598   0.57910   0.75091   0.00000  Uiso   1.00
O1073  O     0.35186   0.50001   0.81491   0.00000  Uiso   1.00
O1074  O     0.64814   0.49999   0.68509   0.00000  Uiso   1.00
O1075  O     0.60600   0.50000   0.81492   0.00000  Uiso   1.00
O1076  O     0.39400   0.50000   0.68508   0.00000  Uiso   1.00
C1077  C     0.63769   0.49917   0.83651   0.00000  Uiso   1.00
C1078  C     0.36247   0.49910   0.66347   0.00000  Uiso   1.00
Cu1079 Cu    0.38022   0.50001   0.75000   0.00000  Uiso   1.00
Cu1080 Cu    0.61978   0.49999   0.75000   0.00000  Uiso   1.00
C1081  C     0.61882   0.49319   0.88679   0.00000  Uiso   1.00
C1082  C     0.38247   0.49273   0.61326   0.00000  Uiso   1.00
C1083  C     0.62710   0.49804   0.96161   0.00000  Uiso   1.00
C1084  C     0.37873   0.50113   0.53687   0.00000  Uiso   1.00
C1085  C     0.64262   0.50955   0.91514   0.00000  Uiso   1.00
C1086  C     0.36185   0.51204   0.58338   0.00000  Uiso   1.00
C1087  C     0.57578   0.47079   0.90673   0.00000  Uiso   1.00
C1088  C     0.42514   0.46837   0.59480   0.00000  Uiso   1.00
C1089  C     0.55920   0.46012   0.95382   0.00000  Uiso   1.00
C1090  C     0.44459   0.45951   0.54739   0.00000  Uiso   1.00
C1091  C     0.58796   0.47113   0.98050   0.00000  Uiso   1.00
C1092  C     0.41731   0.47236   0.51925   0.00000  Uiso   1.00
C1093  C     0.51178   0.44427   0.97678   0.00000  Uiso   1.00
C1094  C     0.49351   0.44474   0.52531   0.00000  Uiso   1.00
C1095  C     0.52791   0.44082   0.54806   0.00000  Uiso   1.00
C1096  C     0.47800   0.43861   0.95415   0.00000  Uiso   1.00
C1097  C     0.57497   0.45631   0.52623   0.00000  Uiso   1.00
C1098  C     0.43188   0.45782   0.97338   0.00000  Uiso   1.00
H1099  H     0.44311   0.45763   0.61805   0.00000  Uiso   1.00
H1100  H     0.55513   0.46273   0.88504   0.00000  Uiso   1.00
H1101  H     0.64422   0.51170   0.98334   0.00000  Uiso   1.00
H1102  H     0.36397   0.51761   0.51427   0.00000  Uiso   1.00
C1103  C     0.62316   0.35595   0.77171   0.00000  Uiso   1.00
C1104  C     0.37643   0.64404   0.73183   0.00000  Uiso   1.00
H1105  H     0.58956   0.37337   0.78794   0.00000  Uiso   1.00
H1106  H     0.41017   0.62672   0.71584   0.00000  Uiso   1.00
C1107  C     0.62179   0.64646   0.77278   0.00000  Uiso   1.00
C1108  C     0.37795   0.35343   0.73144   0.00000  Uiso   1.00
C1109  C     0.66534   0.62379   0.75177   0.00000  Uiso   1.00
C1110  C     0.33416   0.37618   0.75090   0.00000  Uiso   1.00
C1111  C     0.51623   0.47193   0.77535   0.00000  Uiso   1.00
C1112  C     0.48332   0.52787   0.72474   0.00000  Uiso   1.00
H1113  H     0.52771   0.44949   0.79593   0.00000  Uiso   1.00
H1114  H     0.47134   0.55060   0.70480   0.00000  Uiso   1.00
C1115  C     0.46669   0.47202   0.77569   0.00000  Uiso   1.00
C1116  C     0.53197   0.52880   0.72532   0.00000  Uiso   1.00
N1117  N     0.45069   0.50001   0.74999   0.00000  Uiso   1.00
N1118  N     0.54931   0.49999   0.75001   0.00000  Uiso   1.00
N1119  N     0.60890   0.45595   0.55054   0.00000  Uiso   1.00
H1120  H     0.61651   0.48634   0.55521   0.00000  Uiso   1.00
H1121  H     0.64088   0.44045   0.53103   0.00000  Uiso   1.00
N1122  N     0.40160   0.46317   0.94577   0.00000  Uiso   1.00
H1123  H     0.39718   0.49463   0.94124   0.00000  Uiso   1.00
H1124  H     0.36801   0.44950   0.96257   0.00000  Uiso   1.00
N1125  N     0.66059   0.54533   0.59938   0.00000  Uiso   1.00
H1126  H     0.62819   0.53851   0.59363   0.00000  Uiso   1.00
H1127  H     0.34179   0.57164   0.58019   0.00000  Uiso   1.00
N1128  N     0.34775   0.53889   0.89703   0.00000  Uiso   1.00
H1129  H     0.66640   0.56396   0.88425   0.00000  Uiso   1.00
H1130  H     0.35833   0.55089   0.92335   0.00000  Uiso   1.00
N1131  N     0.51658   0.41818   0.59041   0.00000  Uiso   1.00
O1132  O     0.53304   0.42952   0.62257   0.00000  Uiso   1.00
O1133  O     0.48935   0.38575   0.59682   0.00000  Uiso   1.00
N1134  N     0.49012   0.41244   0.91424   0.00000  Uiso   1.00
O1135  O     0.45921   0.40703   0.89278   0.00000  Uiso   1.00
O1136  O     0.52869   0.38834   0.90404   0.00000  Uiso   1.00
N1137  N     0.57669   0.62630   0.79673   0.00000  Uiso   1.00
H1138  H     0.55022   0.63693   0.78310   0.00000  Uiso   1.00
H1139  H     0.56538   0.63539   0.83106   0.00000  Uiso   1.00
N1140  N     0.42376   0.37343   0.71012   0.00000  Uiso   1.00
H1141  H     0.44773   0.36392   0.72714   0.00000  Uiso   1.00
H1142  H     0.43826   0.36299   0.67640   0.00000  Uiso   1.00
N1143  N     0.43301   0.44301   0.80374   0.00000  Uiso   1.00
H1144  H     0.44840   0.41346   0.79593   0.00000  Uiso   1.00
H1145  H     0.42870   0.44924   0.83788   0.00000  Uiso   1.00
N1146  N     0.56067   0.56255   0.70144   0.00000  Uiso   1.00
H1147  H     0.59520   0.55262   0.68091   0.00000  Uiso   1.00
H1148  H     0.56289   0.58415   0.72520   0.00000  Uiso   1.00
O1149  O     0.70625   0.43989   0.75000   0.00000  Uiso   1.00
O1150  O     0.96042   0.56011   0.75000   0.00000  Uiso   1.00
O1151  O     0.96039   0.43988   0.75001   0.00000  Uiso   1.00
O1152  O     0.70628   0.56012   0.74999   0.00000  Uiso   1.00
C1153  C     0.66705   0.42088   0.75006   0.00000  Uiso   1.00
C1154  C     0.99931   0.57910   0.75091   0.00000  Uiso   1.00
O1155  O     0.68519   0.50001   0.81491   0.00000  Uiso   1.00
O1156  O     0.98148   0.49999   0.68509   0.00000  Uiso   1.00
O1157  O     0.93933   0.50000   0.81492   0.00000  Uiso   1.00
O1158  O     0.72733   0.50000   0.68508   0.00000  Uiso   1.00
C1159  C     0.97103   0.49917   0.83651   0.00000  Uiso   1.00
C1160  C     0.69580   0.49910   0.66347   0.00000  Uiso   1.00
Cu1161 Cu    0.71355   0.50001   0.75000   0.00000  Uiso   1.00
Cu1162 Cu    0.95311   0.49999   0.75000   0.00000  Uiso   1.00
C1163  C     0.95216   0.49319   0.88679   0.00000  Uiso   1.00
C1164  C     0.71580   0.49273   0.61326   0.00000  Uiso   1.00
C1165  C     0.96043   0.49804   0.96161   0.00000  Uiso   1.00
C1166  C     0.71206   0.50113   0.53687   0.00000  Uiso   1.00
C1167  C     0.97595   0.50955   0.91514   0.00000  Uiso   1.00
C1168  C     0.69519   0.51204   0.58338   0.00000  Uiso   1.00
C1169  C     0.90911   0.47079   0.90673   0.00000  Uiso   1.00
C1170  C     0.75847   0.46837   0.59480   0.00000  Uiso   1.00
C1171  C     0.89253   0.46012   0.95382   0.00000  Uiso   1.00
C1172  C     0.77793   0.45951   0.54739   0.00000  Uiso   1.00
C1173  C     0.92129   0.47113   0.98050   0.00000  Uiso   1.00
C1174  C     0.75064   0.47236   0.51925   0.00000  Uiso   1.00
C1175  C     0.84512   0.44427   0.97678   0.00000  Uiso   1.00
C1176  C     0.82684   0.44474   0.52531   0.00000  Uiso   1.00
C1177  C     0.86124   0.44082   0.54806   0.00000  Uiso   1.00
C1178  C     0.81133   0.43861   0.95415   0.00000  Uiso   1.00
C1179  C     0.90830   0.45631   0.52623   0.00000  Uiso   1.00
C1180  C     0.76521   0.45782   0.97338   0.00000  Uiso   1.00
H1181  H     0.77645   0.45763   0.61805   0.00000  Uiso   1.00
H1182  H     0.88846   0.46273   0.88504   0.00000  Uiso   1.00
H1183  H     0.97755   0.51170   0.98334   0.00000  Uiso   1.00
H1184  H     0.69731   0.51761   0.51427   0.00000  Uiso   1.00
C1185  C     0.95650   0.35595   0.77171   0.00000  Uiso   1.00
C1186  C     0.70977   0.64404   0.73183   0.00000  Uiso   1.00
H1187  H     0.92289   0.37337   0.78794   0.00000  Uiso   1.00
H1188  H     0.74351   0.62672   0.71584   0.00000  Uiso   1.00
C1189  C     0.95512   0.64646   0.77278   0.00000  Uiso   1.00
C1190  C     0.71129   0.35343   0.73144   0.00000  Uiso   1.00
C1191  C     0.99867   0.62379   0.75177   0.00000  Uiso   1.00
C1192  C     0.66750   0.37618   0.75090   0.00000  Uiso   1.00
C1193  C     0.84956   0.47193   0.77535   0.00000  Uiso   1.00
C1194  C     0.81666   0.52787   0.72474   0.00000  Uiso   1.00
H1195  H     0.86104   0.44949   0.79593   0.00000  Uiso   1.00
H1196  H     0.80468   0.55060   0.70480   0.00000  Uiso   1.00
C1197  C     0.80003   0.47202   0.77569   0.00000  Uiso   1.00
C1198  C     0.86530   0.52880   0.72532   0.00000  Uiso   1.00
N1199  N     0.78403   0.50001   0.74999   0.00000  Uiso   1.00
N1200  N     0.88264   0.49999   0.75001   0.00000  Uiso   1.00
N1201  N     0.94223   0.45595   0.55054   0.00000  Uiso   1.00
H1202  H     0.94984   0.48634   0.55521   0.00000  Uiso   1.00
H1203  H     0.97421   0.44045   0.53103   0.00000  Uiso   1.00
N1204  N     0.73494   0.46317   0.94577   0.00000  Uiso   1.00
H1205  H     0.73051   0.49463   0.94124   0.00000  Uiso   1.00
H1206  H     0.70134   0.44950   0.96257   0.00000  Uiso   1.00
N1207  N     0.99392   0.54533   0.59938   0.00000  Uiso   1.00
H1208  H     0.96152   0.53851   0.59363   0.00000  Uiso   1.00
H1209  H     0.67513   0.57164   0.58019   0.00000  Uiso   1.00
N1210  N     0.68108   0.53889   0.89703   0.00000  Uiso   1.00
H1211  H     0.99973   0.56396   0.88425   0.00000  Uiso   1.00
H1212  H     0.69166   0.55089   0.92335   0.00000  Uiso   1.00
N1213  N     0.84992   0.41818   0.59041   0.00000  Uiso   1.00
O1214  O     0.86637   0.42952   0.62257   0.00000  Uiso   1.00
O1215  O     0.82268   0.38575   0.59682   0.00000  Uiso   1.00
N1216  N     0.82345   0.41244   0.91424   0.00000  Uiso   1.00
O1217  O     0.79254   0.40703   0.89278   0.00000  Uiso   1.00
O1218  O     0.86203   0.38834   0.90404   0.00000  Uiso   1.00
N1219  N     0.91002   0.62630   0.79673   0.00000  Uiso   1.00
H1220  H     0.88355   0.63693   0.78310   0.00000  Uiso   1.00
H1221  H     0.89871   0.63539   0.83106   0.00000  Uiso   1.00
N1222  N     0.75709   0.37343   0.71012   0.00000  Uiso   1.00
H1223  H     0.78106   0.36392   0.72714   0.00000  Uiso   1.00
H1224  H     0.77159   0.36299   0.67640   0.00000  Uiso   1.00
N1225  N     0.76634   0.44301   0.80374   0.00000  Uiso   1.00
H1226  H     0.78174   0.41346   0.79593   0.00000  Uiso   1.00
H1227  H     0.76204   0.44924   0.83788   0.00000  Uiso   1.00
N1228  N     0.89400   0.56255   0.70144   0.00000  Uiso   1.00
H1229  H     0.92854   0.55262   0.68091   0.00000  Uiso   1.00
H1230  H     0.89622   0.58415   0.72520   0.00000  Uiso   1.00
O1231  O     0.03958   0.77322   0.75000   0.00000  Uiso   1.00
O1232  O     0.29375   0.89345   0.75000   0.00000  Uiso   1.00
O1233  O     0.29372   0.77321   0.75001   0.00000  Uiso   1.00
O1234  O     0.03961   0.89346   0.74999   0.00000  Uiso   1.00
C1235  C     0.00038   0.75421   0.75006   0.00000  Uiso   1.00
C1236  C     0.33265   0.91243   0.75091   0.00000  Uiso   1.00
O1237  O     0.01852   0.83334   0.81491   0.00000  Uiso   1.00
O1238  O     0.31481   0.83332   0.68509   0.00000  Uiso   1.00
O1239  O     0.27267   0.83333   0.81492   0.00000  Uiso   1.00
O1240  O     0.06067   0.83333   0.68508   0.00000  Uiso   1.00
C1241  C     0.30436   0.83250   0.83651   0.00000  Uiso   1.00
C1242  C     0.02914   0.83244   0.66347   0.00000  Uiso   1.00
Cu1243 Cu    0.04689   0.83334   0.75000   0.00000  Uiso   1.00
Cu1244 Cu    0.28645   0.83333   0.75000   0.00000  Uiso   1.00
C1245  C     0.28549   0.82652   0.88679   0.00000  Uiso   1.00
C1246  C     0.04914   0.82606   0.61326   0.00000  Uiso   1.00
C1247  C     0.29376   0.83137   0.96161   0.00000  Uiso   1.00
C1248  C     0.04540   0.83446   0.53687   0.00000  Uiso   1.00
C1249  C     0.30928   0.84289   0.91514   0.00000  Uiso   1.00
C1250  C     0.02852   0.84537   0.58338   0.00000  Uiso   1.00
C1251  C     0.24245   0.80412   0.90673   0.00000  Uiso   1.00
C1252  C     0.09180   0.80171   0.59480   0.00000  Uiso   1.00
C1253  C     0.22587   0.79345   0.95382   0.00000  Uiso   1.00
C1254  C     0.11126   0.79284   0.54739   0.00000  Uiso   1.00
C1255  C     0.25463   0.80446   0.98050   0.00000  Uiso   1.00
C1256  C     0.08398   0.80569   0.51925   0.00000  Uiso   1.00
C1257  C     0.17845   0.77760   0.97678   0.00000  Uiso   1.00
C1258  C     0.16018   0.77807   0.52531   0.00000  Uiso   1.00
C1259  C     0.19457   0.77416   0.54806   0.00000  Uiso   1.00
C1260  C     0.14466   0.77195   0.95415   0.00000  Uiso   1.00
C1261  C     0.24163   0.78964   0.52623   0.00000  Uiso   1.00
C1262  C     0.09855   0.79115   0.97338   0.00000  Uiso   1.00
H1263  H     0.10978   0.79096   0.61805   0.00000  Uiso   1.00
H1264  H     0.22179   0.79607   0.88504   0.00000  Uiso   1.00
H1265  H     0.31088   0.84503   0.98334   0.00000  Uiso   1.00
H1266  H     0.03064   0.85094   0.51427   0.00000  Uiso   1.00
C1267  C     0.28983   0.68928   0.77171   0.00000  Uiso   1.00
C1268  C     0.04310   0.97738   0.73183   0.00000  Uiso   1.00
H1269  H     0.25622   0.70670   0.78794   0.00000  Uiso   1.00
H1270  H     0.07684   0.96006   0.71584   0.00000  Uiso   1.00
C1271  C     0.28845   0.97979   0.77278   0.00000  Uiso   1.00
C1272  C     0.04462   0.68677   0.73144   0.00000  Uiso   1.00
C1273  C     0.33200   0.95712   0.75177   0.00000  Uiso   1.00
C1274  C     0.00083   0.70951   0.75090   0.00000  Uiso   1.00
C1275  C     0.18290   0.80527   0.77535   0.00000  Uiso   1.00
C1276  C     0.14999   0.86120   0.72474   0.00000  Uiso   1.00
H1277  H     0.19437   0.78282   0.79593   0.00000  Uiso   1.00
H1278  H     0.13801   0.88394   0.70480   0.00000  Uiso   1.00
C1279  C     0.13336   0.80536   0.77569   0.00000  Uiso   1.00
C1280  C     0.19864   0.86214   0.72532   0.00000  Uiso   1.00
N1281  N     0.11736   0.83334   0.74999   0.00000  Uiso   1.00
N1282  N     0.21597   0.83332   0.75001   0.00000  Uiso   1.00
N1283  N     0.27556   0.78928   0.55054   0.00000  Uiso   1.00
H1284  H     0.28317   0.81967   0.55521   0.00000  Uiso   1.00
H1285  H     0.30755   0.77378   0.53103   0.00000  Uiso   1.00
N1286  N     0.06827   0.79650   0.94577   0.00000  Uiso   1.00
H1287  H     0.06384   0.82797   0.94124   0.00000  Uiso   1.00
H1288  H     0.03468   0.78283   0.96257   0.00000  Uiso   1.00
N1289  N     0.32726   0.87866   0.59938   0.00000  Uiso   1.00
H1290  H     0.29486   0.87185   0.59363   0.00000  Uiso   1.00
H1291  H     0.00846   0.90497   0.58019   0.00000  Uiso   1.00
N1292  N     0.01442   0.87223   0.89703   0.00000  Uiso   1.00
H1293  H     0.33306   0.89729   0.88425   0.00000  Uiso   1.00
H1294  H     0.02499   0.88422   0.92335   0.00000  Uiso   1.00
N1295  N     0.18325   0.75152   0.59041   0.00000  Uiso   1.00
O1296  O     0.19970   0.76285   0.62257   0.00000  Uiso   1.00
O1297  O     0.15602   0.71908   0.59682   0.00000  Uiso   1.00
N1298  N     0.15679   0.74578   0.91424   0.00000  Uiso   1.00
O1299  O     0.12587   0.74037   0.89278   0.00000  Uiso   1.00
O1300  O     0.19536   0.72167   0.90404   0.00000  Uiso   1.00
N1301  N     0.24336   0.95964   0.79673   0.00000  Uiso   1.00
H1302  H     0.21688   0.97027   0.78310   0.00000  Uiso   1.00
H1303  H     0.23205   0.96872   0.83106   0.00000  Uiso   1.00
N1304  N     0.09043   0.70677   0.71012   0.00000  Uiso   1.00
H1305  H     0.11440   0.69726   0.72714   0.00000  Uiso   1.00
H1306  H     0.10493   0.69632   0.67640   0.00000  Uiso   1.00
N1307  N     0.09967   0.77635   0.80374   0.00000  Uiso   1.00
H1308  H     0.11507   0.74680   0.79593   0.00000  Uiso   1.00
H1309  H     0.09537   0.78257   0.83788   0.00000  Uiso   1.00
N1310  N     0.22734   0.89588   0.70144   0.00000  Uiso   1.00
H1311  H     0.26187   0.88595   0.68091   0.00000  Uiso   1.00
H1312  H     0.22955   0.91749   0.72520   0.00000  Uiso   1.00
O1313  O     0.37291   0.77322   0.75000   0.00000  Uiso   1.00
O1314  O     0.62709   0.89345   0.75000   0.00000  Uiso   1.00
O1315  O     0.62706   0.77321   0.75001   0.00000  Uiso   1.00
O1316  O     0.37294   0.89346   0.74999   0.00000  Uiso   1.00
C1317  C     0.33371   0.75421   0.75006   0.00000  Uiso   1.00
C1318  C     0.66598   0.91243   0.75091   0.00000  Uiso   1.00
O1319  O     0.35186   0.83334   0.81491   0.00000  Uiso   1.00
O1320  O     0.64814   0.83332   0.68509   0.00000  Uiso   1.00
O1321  O     0.60600   0.83333   0.81492   0.00000  Uiso   1.00
O1322  O     0.39400   0.83333   0.68508   0.00000  Uiso   1.00
C1323  C     0.63769   0.83250   0.83651   0.00000  Uiso   1.00
C1324  C     0.36247   0.83244   0.66347   0.00000  Uiso   1.00
Cu1325 Cu    0.38022   0.83334   0.75000   0.00000  Uiso   1.00
Cu1326 Cu    0.61978   0.83333   0.75000   0.00000  Uiso   1.00
C1327  C     0.61882   0.82652   0.88679   0.00000  Uiso   1.00
C1328  C     0.38247   0.82606   0.61326   0.00000  Uiso   1.00
C1329  C     0.62710   0.83137   0.96161   0.00000  Uiso   1.00
C1330  C     0.37873   0.83446   0.53687   0.00000  Uiso   1.00
C1331  C     0.64262   0.84289   0.91514   0.00000  Uiso   1.00
C1332  C     0.36185   0.84537   0.58338   0.00000  Uiso   1.00
C1333  C     0.57578   0.80412   0.90673   0.00000  Uiso   1.00
C1334  C     0.42514   0.80171   0.59480   0.00000  Uiso   1.00
C1335  C     0.55920   0.79345   0.95382   0.00000  Uiso   1.00
C1336  C     0.44459   0.79284   0.54739   0.00000  Uiso   1.00
C1337  C     0.58796   0.80446   0.98050   0.00000  Uiso   1.00
C1338  C     0.41731   0.80569   0.51925   0.00000  Uiso   1.00
C1339  C     0.51178   0.77760   0.97678   0.00000  Uiso   1.00
C1340  C     0.49351   0.77807   0.52531   0.00000  Uiso   1.00
C1341  C     0.52791   0.77416   0.54806   0.00000  Uiso   1.00
C1342  C     0.47800   0.77195   0.95415   0.00000  Uiso   1.00
C1343  C     0.57497   0.78964   0.52623   0.00000  Uiso   1.00
C1344  C     0.43188   0.79115   0.97338   0.00000  Uiso   1.00
H1345  H     0.44311   0.79096   0.61805   0.00000  Uiso   1.00
H1346  H     0.55513   0.79607   0.88504   0.00000  Uiso   1.00
H1347  H     0.64422   0.84503   0.98334   0.00000  Uiso   1.00
H1348  H     0.36397   0.85094   0.51427   0.00000  Uiso   1.00
C1349  C     0.62316   0.68928   0.77171   0.00000  Uiso   1.00
C1350  C     0.37643   0.97738   0.73183   0.00000  Uiso   1.00
H1351  H     0.58956   0.70670   0.78794   0.00000  Uiso   1.00
H1352  H     0.41017   0.96006   0.71584   0.00000  Uiso   1.00
C1353  C     0.62179   0.97979   0.77278   0.00000  Uiso   1.00
C1354  C     0.37795   0.68677   0.73144   0.00000  Uiso   1.00
C1355  C     0.66534   0.95712   0.75177   0.00000  Uiso   1.00
C1356  C     0.33416   0.70951   0.75090   0.00000  Uiso   1.00
C1357  C     0.51623   0.80527   0.77535   0.00000  Uiso   1.00
C1358  C     0.48332   0.86120   0.72474   0.00000  Uiso   1.00
H1359  H     0.52771   0.78282   0.79593   0.00000  Uiso   1.00
H1360  H     0.47134   0.88394   0.70480   0.00000  Uiso   1.00
C1361  C     0.46669   0.80536   0.77569   0.00000  Uiso   1.00
C1362  C     0.53197   0.86214   0.72532   0.00000  Uiso   1.00
N1363  N     0.45069   0.83334   0.74999   0.00000  Uiso   1.00
N1364  N     0.54931   0.83332   0.75001   0.00000  Uiso   1.00
N1365  N     0.60890   0.78928   0.55054   0.00000  Uiso   1.00
H1366  H     0.61651   0.81967   0.55521   0.00000  Uiso   1.00
H1367  H     0.64088   0.77378   0.53103   0.00000  Uiso   1.00
N1368  N     0.40160   0.79650   0.94577   0.00000  Uiso   1.00
H1369  H     0.39718   0.82797   0.94124   0.00000  Uiso   1.00
H1370  H     0.36801   0.78283   0.96257   0.00000  Uiso   1.00
N1371  N     0.66059   0.87866   0.59938   0.00000  Uiso   1.00
H1372  H     0.62819   0.87185   0.59363   0.00000  Uiso   1.00
H1373  H     0.34179   0.90497   0.58019   0.00000  Uiso   1.00
N1374  N     0.34775   0.87223   0.89703   0.00000  Uiso   1.00
H1375  H     0.66640   0.89729   0.88425   0.00000  Uiso   1.00
H1376  H     0.35833   0.88422   0.92335   0.00000  Uiso   1.00
N1377  N     0.51658   0.75152   0.59041   0.00000  Uiso   1.00
O1378  O     0.53304   0.76285   0.62257   0.00000  Uiso   1.00
O1379  O     0.48935   0.71908   0.59682   0.00000  Uiso   1.00
N1380  N     0.49012   0.74578   0.91424   0.00000  Uiso   1.00
O1381  O     0.45921   0.74037   0.89278   0.00000  Uiso   1.00
O1382  O     0.52869   0.72167   0.90404   0.00000  Uiso   1.00
N1383  N     0.57669   0.95964   0.79673   0.00000  Uiso   1.00
H1384  H     0.55022   0.97027   0.78310   0.00000  Uiso   1.00
H1385  H     0.56538   0.96872   0.83106   0.00000  Uiso   1.00
N1386  N     0.42376   0.70677   0.71012   0.00000  Uiso   1.00
H1387  H     0.44773   0.69726   0.72714   0.00000  Uiso   1.00
H1388  H     0.43826   0.69632   0.67640   0.00000  Uiso   1.00
N1389  N     0.43301   0.77635   0.80374   0.00000  Uiso   1.00
H1390  H     0.44840   0.74680   0.79593   0.00000  Uiso   1.00
H1391  H     0.42870   0.78257   0.83788   0.00000  Uiso   1.00
N1392  N     0.56067   0.89588   0.70144   0.00000  Uiso   1.00
H1393  H     0.59520   0.88595   0.68091   0.00000  Uiso   1.00
H1394  H     0.56289   0.91749   0.72520   0.00000  Uiso   1.00
O1395  O     0.70625   0.77322   0.75000   0.00000  Uiso   1.00
O1396  O     0.96042   0.89345   0.75000   0.00000  Uiso   1.00
O1397  O     0.96039   0.77321   0.75001   0.00000  Uiso   1.00
O1398  O     0.70628   0.89346   0.74999   0.00000  Uiso   1.00
C1399  C     0.66705   0.75421   0.75006   0.00000  Uiso   1.00
C1400  C     0.99931   0.91243   0.75091   0.00000  Uiso   1.00
O1401  O     0.68519   0.83334   0.81491   0.00000  Uiso   1.00
O1402  O     0.98148   0.83332   0.68509   0.00000  Uiso   1.00
O1403  O     0.93933   0.83333   0.81492   0.00000  Uiso   1.00
O1404  O     0.72733   0.83333   0.68508   0.00000  Uiso   1.00
C1405  C     0.97103   0.83250   0.83651   0.00000  Uiso   1.00
C1406  C     0.69580   0.83244   0.66347   0.00000  Uiso   1.00
Cu1407 Cu    0.71355   0.83334   0.75000   0.00000  Uiso   1.00
Cu1408 Cu    0.95311   0.83333   0.75000   0.00000  Uiso   1.00
C1409  C     0.95216   0.82652   0.88679   0.00000  Uiso   1.00
C1410  C     0.71580   0.82606   0.61326   0.00000  Uiso   1.00
C1411  C     0.96043   0.83137   0.96161   0.00000  Uiso   1.00
C1412  C     0.71206   0.83446   0.53687   0.00000  Uiso   1.00
C1413  C     0.97595   0.84289   0.91514   0.00000  Uiso   1.00
C1414  C     0.69519   0.84537   0.58338   0.00000  Uiso   1.00
C1415  C     0.90911   0.80412   0.90673   0.00000  Uiso   1.00
C1416  C     0.75847   0.80171   0.59480   0.00000  Uiso   1.00
C1417  C     0.89253   0.79345   0.95382   0.00000  Uiso   1.00
C1418  C     0.77793   0.79284   0.54739   0.00000  Uiso   1.00
C1419  C     0.92129   0.80446   0.98050   0.00000  Uiso   1.00
C1420  C     0.75064   0.80569   0.51925   0.00000  Uiso   1.00
C1421  C     0.84512   0.77760   0.97678   0.00000  Uiso   1.00
C1422  C     0.82684   0.77807   0.52531   0.00000  Uiso   1.00
C1423  C     0.86124   0.77416   0.54806   0.00000  Uiso   1.00
C1424  C     0.81133   0.77195   0.95415   0.00000  Uiso   1.00
C1425  C     0.90830   0.78964   0.52623   0.00000  Uiso   1.00
C1426  C     0.76521   0.79115   0.97338   0.00000  Uiso   1.00
H1427  H     0.77645   0.79096   0.61805   0.00000  Uiso   1.00
H1428  H     0.88846   0.79607   0.88504   0.00000  Uiso   1.00
H1429  H     0.97755   0.84503   0.98334   0.00000  Uiso   1.00
H1430  H     0.69731   0.85094   0.51427   0.00000  Uiso   1.00
C1431  C     0.95650   0.68928   0.77171   0.00000  Uiso   1.00
C1432  C     0.70977   0.97738   0.73183   0.00000  Uiso   1.00
H1433  H     0.92289   0.70670   0.78794   0.00000  Uiso   1.00
H1434  H     0.74351   0.96006   0.71584   0.00000  Uiso   1.00
C1435  C     0.95512   0.97979   0.77278   0.00000  Uiso   1.00
C1436  C     0.71129   0.68677   0.73144   0.00000  Uiso   1.00
C1437  C     0.99867   0.95712   0.75177   0.00000  Uiso   1.00
C1438  C     0.66750   0.70951   0.75090   0.00000  Uiso   1.00
C1439  C     0.84956   0.80527   0.77535   0.00000  Uiso   1.00
C1440  C     0.81666   0.86120   0.72474   0.00000  Uiso   1.00
H1441  H     0.86104   0.78282   0.79593   0.00000  Uiso   1.00
H1442  H     0.80468   0.88394   0.70480   0.00000  Uiso   1.00
C1443  C     0.80003   0.80536   0.77569   0.00000  Uiso   1.00
C1444  C     0.86530   0.86214   0.72532   0.00000  Uiso   1.00
N1445  N     0.78403   0.83334   0.74999   0.00000  Uiso   1.00
N1446  N     0.88264   0.83332   0.75001   0.00000  Uiso   1.00
N1447  N     0.94223   0.78928   0.55054   0.00000  Uiso   1.00
H1448  H     0.94984   0.81967   0.55521   0.00000  Uiso   1.00
H1449  H     0.97421   0.77378   0.53103   0.00000  Uiso   1.00
N1450  N     0.73494   0.79650   0.94577   0.00000  Uiso   1.00
H1451  H     0.73051   0.82797   0.94124   0.00000  Uiso   1.00
H1452  H     0.70134   0.78283   0.96257   0.00000  Uiso   1.00
N1453  N     0.99392   0.87866   0.59938   0.00000  Uiso   1.00
H1454  H     0.96152   0.87185   0.59363   0.00000  Uiso   1.00
H1455  H     0.67513   0.90497   0.58019   0.00000  Uiso   1.00
N1456  N     0.68108   0.87223   0.89703   0.00000  Uiso   1.00
H1457  H     0.99973   0.89729   0.88425   0.00000  Uiso   1.00
H1458  H     0.69166   0.88422   0.92335   0.00000  Uiso   1.00
N1459  N     0.84992   0.75152   0.59041   0.00000  Uiso   1.00
O1460  O     0.86637   0.76285   0.62257   0.00000  Uiso   1.00
O1461  O     0.82268   0.71908   0.59682   0.00000  Uiso   1.00
N1462  N     0.82345   0.74578   0.91424   0.00000  Uiso   1.00
O1463  O     0.79254   0.74037   0.89278   0.00000  Uiso   1.00
O1464  O     0.86203   0.72167   0.90404   0.00000  Uiso   1.00
N1465  N     0.91002   0.95964   0.79673   0.00000  Uiso   1.00
H1466  H     0.88355   0.97027   0.78310   0.00000  Uiso   1.00
H1467  H     0.89871   0.96872   0.83106   0.00000  Uiso   1.00
N1468  N     0.75709   0.70677   0.71012   0.00000  Uiso   1.00
H1469  H     0.78106   0.69726   0.72714   0.00000  Uiso   1.00
H1470  H     0.77159   0.69632   0.67640   0.00000  Uiso   1.00
N1471  N     0.76634   0.77635   0.80374   0.00000  Uiso   1.00
H1472  H     0.78174   0.74680   0.79593   0.00000  Uiso   1.00
H1473  H     0.76204   0.78257   0.83788   0.00000  Uiso   1.00
N1474  N     0.89400   0.89588   0.70144   0.00000  Uiso   1.00
H1475  H     0.92854   0.88595   0.68091   0.00000  Uiso   1.00
H1476  H     0.89622   0.91749   0.72520   0.00000  Uiso   1.00
loop_
_geom_bond_atom_site_label_1
_geom_bond_atom_site_label_2
_geom_bond_distance
_geom_bond_site_symmetry_2
_ccdc_geom_bond_type
O1     C5      1.303   .     A
O1     Cu13    1.966   .     S
O2     C6      1.305   .     A
O2     Cu14    1.966   .     S
O3     Cu14    1.958   .     S
O3     C87     1.304   .     S
O4     Cu13    1.958   .     S
O4     C170    1.303   1_455 S
C5     C44     1.450   .     S
C5     O167    1.304   1_455 S
C6     C43     1.450   .     S
C6     O86     1.303   .     S
O7     Cu13    1.898   .     S
O7     C175    1.313   1_455 S
O8     Cu14    1.898   .     S
O8     C94     1.316   .     S
O9     Cu14    1.914   .     S
O9     C11     1.307   .     A
O10    C12     1.305   .     A
O10    Cu13    1.914   .     S
C11    C15     1.478   .     S
C11    O89     1.313   .     S
C12    C16     1.480   .     S
C12    O172    1.316   1_455 S
Cu13   N51     2.044   .     S
Cu13   Cu178   2.720   1_455 S
Cu14   N52     2.044   .     S
Cu14   Cu95    2.720   .     S
C15    C19     1.402   .     A
C15    C21     1.404   .     A
C16    C20     1.398   .     A
C16    C22     1.406   .     A
C17    C25     1.404   .     A
C17    C19     1.404   .     A
C17    H35     1.067   .     S
C18    C26     1.407   .     A
C18    C20     1.403   .     A
C18    H36     1.070   .     S
C19    N144    1.439   .     S
C20    N223    1.433   1_455 S
C21    H34     1.078   .     S
C21    C23     1.414   .     A
C22    C24     1.415   .     A
C22    H33     1.075   .     S
C23    C27     1.421   .     A
C23    C25     1.412   .     A
C24    C26     1.417   .     A
C24    C28     1.427   .     A
C25    C769    1.418   .     S
C26    C770    1.422   1_554 S
C27    C30     1.400   .     A
C27    C766    1.415   .     S
C28    C29     1.407   .     A
C28    C765    1.415   1_554 S
C29    N65     1.437   .     S
C29    C31     1.402   .     A
C30    C32     1.403   .     A
C30    N68     1.447   .     S
C31    N53     1.428   .     S
C31    C763    1.418   1_554 S
C32    N56     1.426   .     S
C32    C764    1.422   .     S
C37    H39     1.084   .     S
C37    C533    1.391   1_545 S
C37    C126    1.401   .     S
C38    H40     1.084   .     S
C38    C288    1.388   .     S
C38    C207    1.399   1_455 S
C41    N71     1.433   .     S
C41    C43     1.407   .     A
C41    C283    1.391   .     S
C42    C44     1.406   .     A
C42    N74     1.432   .     S
C42    C530    1.388   1_545 S
C43    C120    1.399   .     S
C44    C201    1.401   1_455 S
C45    H47     1.082   .     S
C45    N52     1.368   .     A
C45    C49     1.433   .     A
C46    H48     1.083   .     S
C46    N51     1.357   .     A
C46    C50     1.418   .     A
C49    N51     1.375   .     A
C49    N77     1.428   .     S
C50    N52     1.392   .     A
C50    N80     1.428   .     S
N53    H55     1.043   .     S
N53    H54     1.037   .     S
N56    H57     1.041   .     S
N56    H58     1.042   .     S
N59    H60     1.042   .     S
N59    C102    1.433   .     S
N59    H143    1.046   .     S
H61    N223    1.046   1_455 S
N62    H64     1.045   .     S
N62    C183    1.439   1_455 S
N62    H227    1.046   1_455 S
H63    N144    1.046   .     S
N65    O67     1.301   .     A
N65    O66     1.302   .     A
N68    O69     1.300   .     A
N68    O70     1.302   .     A
N71    H73     1.046   .     S
N71    H72     1.046   .     S
N74    H76     1.044   .     S
N74    H75     1.046   .     S
N77    H78     1.045   .     S
N77    H79     1.044   .     S
N80    H82     1.041   .     S
N80    H81     1.036   .     S
O83    C87     1.303   .     A
O83    Cu95    1.966   .     S
O84    C88     1.305   .     A
O84    Cu96    1.966   .     S
O85    Cu96    1.958   .     S
O85    C169    1.304   .     S
O86    Cu95    1.958   .     S
C87    C126    1.450   .     S
C88    C125    1.450   .     S
C88    O168    1.303   .     S
O89    Cu95    1.898   .     S
O90    Cu96    1.898   .     S
O90    C176    1.316   .     S
O91    Cu96    1.914   .     S
O91    C93     1.307   .     A
O92    C94     1.305   .     A
O92    Cu95    1.914   .     S
C93    C97     1.478   .     S
C93    O171    1.313   .     S
C94    C98     1.480   .     S
Cu95   N133    2.044   .     S
Cu96   N134    2.044   .     S
Cu96   Cu177   2.720   .     S
C97    C101    1.402   .     A
C97    C103    1.404   .     A
C98    C102    1.398   .     A
C98    C104    1.406   .     A
C99    C107    1.404   .     A
C99    C101    1.404   .     A
C99    H117    1.067   .     S
C100   C108    1.407   .     A
C100   C102    1.403   .     A
C100   H118    1.070   .     S
C101   N226    1.439   .     S
C103   H116    1.078   .     S
C103   C105    1.414   .     A
C104   C106    1.415   .     A
C104   H115    1.075   .     S
C105   C109    1.421   .     A
C105   C107    1.412   .     A
C106   C108    1.417   .     A
C106   C110    1.427   .     A
C107   C851    1.418   .     S
C108   C852    1.422   1_554 S
C109   C112    1.400   .     A
C109   C848    1.415   .     S
C110   C111    1.407   .     A
C110   C847    1.415   1_554 S
C111   N147    1.437   .     S
C111   C113    1.402   .     A
C112   C114    1.403   .     A
C112   N150    1.447   .     S
C113   N135    1.428   .     S
C113   C845    1.418   1_554 S
C114   N138    1.426   .     S
C114   C846    1.422   .     S
C119   H121    1.084   .     S
C119   C615    1.391   1_545 S
C119   C208    1.401   .     S
C120   H122    1.084   .     S
C120   C370    1.388   .     S
C123   N153    1.433   .     S
C123   C125    1.407   .     A
C123   C365    1.391   .     S
C124   C126    1.406   .     A
C124   N156    1.432   .     S
C124   C612    1.388   1_545 S
C125   C202    1.399   .     S
C127   H129    1.082   .     S
C127   N134    1.368   .     A
C127   C131    1.433   .     A
C128   H130    1.083   .     S
C128   N133    1.357   .     A
C128   C132    1.418   .     A
C131   N133    1.375   .     A
C131   N159    1.428   .     S
C132   N134    1.392   .     A
C132   N162    1.428   .     S
N135   H137    1.043   .     S
N135   H136    1.037   .     S
N138   H139    1.041   .     S
N138   H140    1.042   .     S
N141   H142    1.042   .     S
N141   C184    1.433   .     S
N141   H225    1.046   .     S
N144   H146    1.045   .     S
H145   N226    1.046   .     S
N147   O149    1.301   .     A
N147   O148    1.302   .     A
N150   O151    1.300   .     A
N150   O152    1.302   .     A
N153   H155    1.046   .     S
N153   H154    1.046   .     S
N156   H158    1.044   .     S
N156   H157    1.046   .     S
N159   H160    1.045   .     S
N159   H161    1.044   .     S
N162   H164    1.041   .     S
N162   H163    1.036   .     S
O165   C169    1.303   .     A
O165   Cu177   1.966   .     S
O166   C170    1.305   .     A
O166   Cu178   1.966   .     S
O167   Cu178   1.958   .     S
O167   C5      1.304   1_655 S
O168   Cu177   1.958   .     S
C169   C208    1.450   .     S
C170   C207    1.450   .     S
C170   O4      1.303   1_655 S
O171   Cu177   1.898   .     S
O172   Cu178   1.898   .     S
O172   C12     1.316   1_655 S
O173   Cu178   1.914   .     S
O173   C175    1.307   .     A
O174   C176    1.305   .     A
O174   Cu177   1.914   .     S
C175   C179    1.478   .     S
C175   O7      1.313   1_655 S
C176   C180    1.480   .     S
Cu177  N215    2.044   .     S
Cu178  N216    2.044   .     S
Cu178  Cu13    2.720   1_655 S
C179   C183    1.402   .     A
C179   C185    1.404   .     A
C180   C184    1.398   .     A
C180   C186    1.406   .     A
C181   C189    1.404   .     A
C181   C183    1.404   .     A
C181   H199    1.067   .     S
C182   C190    1.407   .     A
C182   C184    1.403   .     A
C182   H200    1.070   .     S
C183   N62     1.439   1_655 S
C185   H198    1.078   .     S
C185   C187    1.414   .     A
C186   C188    1.415   .     A
C186   H197    1.075   .     S
C187   C191    1.421   .     A
C187   C189    1.412   .     A
C188   C190    1.417   .     A
C188   C192    1.427   .     A
C189   C933    1.418   .     S
C190   C934    1.422   1_554 S
C191   C194    1.400   .     A
C191   C930    1.415   .     S
C192   C193    1.407   .     A
C192   C929    1.415   1_554 S
C193   N229    1.437   .     S
C193   C195    1.402   .     A
C194   C196    1.403   .     A
C194   N232    1.447   .     S
C195   N217    1.428   .     S
C195   C927    1.418   1_554 S
C196   N220    1.426   .     S
C196   C928    1.422   .     S
C201   H203    1.084   .     S
C201   C697    1.391   1_545 S
C201   C44     1.401   1_655 S
C202   H204    1.084   .     S
C202   C452    1.388   .     S
C205   N235    1.433   .     S
C205   C207    1.407   .     A
C205   C447    1.391   .     S
C206   C208    1.406   .     A
C206   N238    1.432   .     S
C206   C694    1.388   1_545 S
C207   C38     1.399   1_655 S
C209   H211    1.082   .     S
C209   N216    1.368   .     A
C209   C213    1.433   .     A
C210   H212    1.083   .     S
C210   N215    1.357   .     A
C210   C214    1.418   .     A
C213   N215    1.375   .     A
C213   N241    1.428   .     S
C214   N216    1.392   .     A
C214   N244    1.428   .     S
N217   H219    1.043   .     S
N217   H218    1.037   .     S
N220   H221    1.041   .     S
N220   H222    1.042   .     S
N223   H224    1.042   .     S
N223   C20     1.433   1_655 S
N223   H61     1.046   1_655 S
N226   H228    1.045   .     S
H227   N62     1.046   1_655 S
N229   O231    1.301   .     A
N229   O230    1.302   .     A
N232   O233    1.300   .     A
N232   O234    1.302   .     A
N235   H237    1.046   .     S
N235   H236    1.046   .     S
N238   H240    1.044   .     S
N238   H239    1.046   .     S
N241   H242    1.045   .     S
N241   H243    1.044   .     S
N244   H246    1.041   .     S
N244   H245    1.036   .     S
O247   C251    1.303   .     A
O247   Cu259   1.966   .     S
O248   C252    1.305   .     A
O248   Cu260   1.966   .     S
O249   Cu260   1.958   .     S
O249   C333    1.304   .     S
O250   Cu259   1.958   .     S
O250   C416    1.303   1_455 S
C251   C290    1.450   .     S
C251   O413    1.304   1_455 S
C252   C289    1.450   .     S
C252   O332    1.303   .     S
O253   Cu259   1.898   .     S
O253   C421    1.313   1_455 S
O254   Cu260   1.898   .     S
O254   C340    1.316   .     S
O255   Cu260   1.914   .     S
O255   C257    1.307   .     A
O256   C258    1.305   .     A
O256   Cu259   1.914   .     S
C257   C261    1.478   .     S
C257   O335    1.313   .     S
C258   C262    1.480   .     S
C258   O418    1.316   1_455 S
Cu259  N297    2.044   .     S
Cu259  Cu424   2.720   1_455 S
Cu260  N298    2.044   .     S
Cu260  Cu341   2.720   .     S
C261   C265    1.402   .     A
C261   C267    1.404   .     A
C262   C266    1.398   .     A
C262   C268    1.406   .     A
C263   C271    1.404   .     A
C263   C265    1.404   .     A
C263   H281    1.067   .     S
C264   C272    1.407   .     A
C264   C266    1.403   .     A
C264   H282    1.070   .     S
C265   N390    1.439   .     S
C266   N469    1.433   1_455 S
C267   H280    1.078   .     S
C267   C269    1.414   .     A
C268   C270    1.415   .     A
C268   H279    1.075   .     S
C269   C273    1.421   .     A
C269   C271    1.412   .     A
C270   C272    1.417   .     A
C270   C274    1.427   .     A
C271   C1015   1.418   .     S
C272   C1016   1.422   1_554 S
C273   C276    1.400   .     A
C273   C1012   1.415   .     S
C274   C275    1.407   .     A
C274   C1011   1.415   1_554 S
C275   N311    1.437   .     S
C275   C277    1.402   .     A
C276   C278    1.403   .     A
C276   N314    1.447   .     S
C277   N299    1.428   .     S
C277   C1009   1.418   1_554 S
C278   N302    1.426   .     S
C278   C1010   1.422   .     S
C283   H285    1.084   .     S
C283   C372    1.401   .     S
C284   H286    1.084   .     S
C284   C534    1.388   .     S
C284   C453    1.399   1_455 S
C287   N317    1.433   .     S
C287   C289    1.407   .     A
C287   C529    1.391   .     S
C288   C290    1.406   .     A
C288   N320    1.432   .     S
C289   C366    1.399   .     S
C290   C447    1.401   1_455 S
C291   H293    1.082   .     S
C291   N298    1.368   .     A
C291   C295    1.433   .     A
C292   H294    1.083   .     S
C292   N297    1.357   .     A
C292   C296    1.418   .     A
C295   N297    1.375   .     A
C295   N323    1.428   .     S
C296   N298    1.392   .     A
C296   N326    1.428   .     S
N299   H301    1.043   .     S
N299   H300    1.037   .     S
N302   H303    1.041   .     S
N302   H304    1.042   .     S
N305   H306    1.042   .     S
N305   C348    1.433   .     S
N305   H389    1.046   .     S
H307   N469    1.046   1_455 S
N308   H310    1.045   .     S
N308   C429    1.439   1_455 S
N308   H473    1.046   1_455 S
H309   N390    1.046   .     S
N311   O313    1.301   .     A
N311   O312    1.302   .     A
N314   O315    1.300   .     A
N314   O316    1.302   .     A
N317   H319    1.046   .     S
N317   H318    1.046   .     S
N320   H322    1.044   .     S
N320   H321    1.046   .     S
N323   H324    1.045   .     S
N323   H325    1.044   .     S
N326   H328    1.041   .     S
N326   H327    1.036   .     S
O329   C333    1.303   .     A
O329   Cu341   1.966   .     S
O330   C334    1.305   .     A
O330   Cu342   1.966   .     S
O331   Cu342   1.958   .     S
O331   C415    1.304   .     S
O332   Cu341   1.958   .     S
C333   C372    1.450   .     S
C334   C371    1.450   .     S
C334   O414    1.303   .     S
O335   Cu341   1.898   .     S
O336   Cu342   1.898   .     S
O336   C422    1.316   .     S
O337   Cu342   1.914   .     S
O337   C339    1.307   .     A
O338   C340    1.305   .     A
O338   Cu341   1.914   .     S
C339   C343    1.478   .     S
C339   O417    1.313   .     S
C340   C344    1.480   .     S
Cu341  N379    2.044   .     S
Cu342  N380    2.044   .     S
Cu342  Cu423   2.720   .     S
C343   C347    1.402   .     A
C343   C349    1.404   .     A
C344   C348    1.398   .     A
C344   C350    1.406   .     A
C345   C353    1.404   .     A
C345   C347    1.404   .     A
C345   H363    1.067   .     S
C346   C354    1.407   .     A
C346   C348    1.403   .     A
C346   H364    1.070   .     S
C347   N472    1.439   .     S
C349   H362    1.078   .     S
C349   C351    1.414   .     A
C350   C352    1.415   .     A
C350   H361    1.075   .     S
C351   C355    1.421   .     A
C351   C353    1.412   .     A
C352   C354    1.417   .     A
C352   C356    1.427   .     A
C353   C1097   1.418   .     S
C354   C1098   1.422   1_554 S
C355   C358    1.400   .     A
C355   C1094   1.415   .     S
C356   C357    1.407   .     A
C356   C1093   1.415   1_554 S
C357   N393    1.437   .     S
C357   C359    1.402   .     A
C358   C360    1.403   .     A
C358   N396    1.447   .     S
C359   N381    1.428   .     S
C359   C1091   1.418   1_554 S
C360   N384    1.426   .     S
C360   C1092   1.422   .     S
C365   H367    1.084   .     S
C365   C454    1.401   .     S
C366   H368    1.084   .     S
C366   C616    1.388   .     S
C369   N399    1.433   .     S
C369   C371    1.407   .     A
C369   C611    1.391   .     S
C370   C372    1.406   .     A
C370   N402    1.432   .     S
C371   C448    1.399   .     S
C373   H375    1.082   .     S
C373   N380    1.368   .     A
C373   C377    1.433   .     A
C374   H376    1.083   .     S
C374   N379    1.357   .     A
C374   C378    1.418   .     A
C377   N379    1.375   .     A
C377   N405    1.428   .     S
C378   N380    1.392   .     A
C378   N408    1.428   .     S
N381   H383    1.043   .     S
N381   H382    1.037   .     S
N384   H385    1.041   .     S
N384   H386    1.042   .     S
N387   H388    1.042   .     S
N387   C430    1.433   .     S
N387   H471    1.046   .     S
N390   H392    1.045   .     S
H391   N472    1.046   .     S
N393   O395    1.301   .     A
N393   O394    1.302   .     A
N396   O397    1.300   .     A
N396   O398    1.302   .     A
N399   H401    1.046   .     S
N399   H400    1.046   .     S
N402   H404    1.044   .     S
N402   H403    1.046   .     S
N405   H406    1.045   .     S
N405   H407    1.044   .     S
N408   H410    1.041   .     S
N408   H409    1.036   .     S
O411   C415    1.303   .     A
O411   Cu423   1.966   .     S
O412   C416    1.305   .     A
O412   Cu424   1.966   .     S
O413   Cu424   1.958   .     S
O413   C251    1.304   1_655 S
O414   Cu423   1.958   .     S
C415   C454    1.450   .     S
C416   C453    1.450   .     S
C416   O250    1.303   1_655 S
O417   Cu423   1.898   .     S
O418   Cu424   1.898   .     S
O418   C258    1.316   1_655 S
O419   Cu424   1.914   .     S
O419   C421    1.307   .     A
O420   C422    1.305   .     A
O420   Cu423   1.914   .     S
C421   C425    1.478   .     S
C421   O253    1.313   1_655 S
C422   C426    1.480   .     S
Cu423  N461    2.044   .     S
Cu424  N462    2.044   .     S
Cu424  Cu259   2.720   1_655 S
C425   C429    1.402   .     A
C425   C431    1.404   .     A
C426   C430    1.398   .     A
C426   C432    1.406   .     A
C427   C435    1.404   .     A
C427   C429    1.404   .     A
C427   H445    1.067   .     S
C428   C436    1.407   .     A
C428   C430    1.403   .     A
C428   H446    1.070   .     S
C429   N308    1.439   1_655 S
C431   H444    1.078   .     S
C431   C433    1.414   .     A
C432   C434    1.415   .     A
C432   H443    1.075   .     S
C433   C437    1.421   .     A
C433   C435    1.412   .     A
C434   C436    1.417   .     A
C434   C438    1.427   .     A
C435   C1179   1.418   .     S
C436   C1180   1.422   1_554 S
C437   C440    1.400   .     A
C437   C1176   1.415   .     S
C438   C439    1.407   .     A
C438   C1175   1.415   1_554 S
C439   N475    1.437   .     S
C439   C441    1.402   .     A
C440   C442    1.403   .     A
C440   N478    1.447   .     S
C441   N463    1.428   .     S
C441   C1173   1.418   1_554 S
C442   N466    1.426   .     S
C442   C1174   1.422   .     S
C447   H449    1.084   .     S
C447   C290    1.401   1_655 S
C448   H450    1.084   .     S
C448   C698    1.388   .     S
C451   N481    1.433   .     S
C451   C453    1.407   .     A
C451   C693    1.391   .     S
C452   C454    1.406   .     A
C452   N484    1.432   .     S
C453   C284    1.399   1_655 S
C455   H457    1.082   .     S
C455   N462    1.368   .     A
C455   C459    1.433   .     A
C456   H458    1.083   .     S
C456   N461    1.357   .     A
C456   C460    1.418   .     A
C459   N461    1.375   .     A
C459   N487    1.428   .     S
C460   N462    1.392   .     A
C460   N490    1.428   .     S
N463   H465    1.043   .     S
N463   H464    1.037   .     S
N466   H467    1.041   .     S
N466   H468    1.042   .     S
N469   H470    1.042   .     S
N469   C266    1.433   1_655 S
N469   H307    1.046   1_655 S
N472   H474    1.045   .     S
H473   N308    1.046   1_655 S
N475   O477    1.301   .     A
N475   O476    1.302   .     A
N478   O479    1.300   .     A
N478   O480    1.302   .     A
N481   H483    1.046   .     S
N481   H482    1.046   .     S
N484   H486    1.044   .     S
N484   H485    1.046   .     S
N487   H488    1.045   .     S
N487   H489    1.044   .     S
N490   H492    1.041   .     S
N490   H491    1.036   .     S
O493   C497    1.303   .     A
O493   Cu505   1.966   .     S
O494   C498    1.305   .     A
O494   Cu506   1.966   .     S
O495   Cu506   1.958   .     S
O495   C579    1.304   .     S
O496   Cu505   1.958   .     S
O496   C662    1.303   1_455 S
C497   C536    1.450   .     S
C497   O659    1.304   1_455 S
C498   C535    1.450   .     S
C498   O578    1.303   .     S
O499   Cu505   1.898   .     S
O499   C667    1.313   1_455 S
O500   Cu506   1.898   .     S
O500   C586    1.316   .     S
O501   Cu506   1.914   .     S
O501   C503    1.307   .     A
O502   C504    1.305   .     A
O502   Cu505   1.914   .     S
C503   C507    1.478   .     S
C503   O581    1.313   .     S
C504   C508    1.480   .     S
C504   O664    1.316   1_455 S
Cu505  N543    2.044   .     S
Cu505  Cu670   2.720   1_455 S
Cu506  N544    2.044   .     S
Cu506  Cu587   2.720   .     S
C507   C511    1.402   .     A
C507   C513    1.404   .     A
C508   C512    1.398   .     A
C508   C514    1.406   .     A
C509   C517    1.404   .     A
C509   C511    1.404   .     A
C509   H527    1.067   .     S
C510   C518    1.407   .     A
C510   C512    1.403   .     A
C510   H528    1.070   .     S
C511   N636    1.439   .     S
C512   N715    1.433   1_455 S
C513   H526    1.078   .     S
C513   C515    1.414   .     A
C514   C516    1.415   .     A
C514   H525    1.075   .     S
C515   C519    1.421   .     A
C515   C517    1.412   .     A
C516   C518    1.417   .     A
C516   C520    1.427   .     A
C517   C1261   1.418   .     S
C518   C1262   1.422   1_554 S
C519   C522    1.400   .     A
C519   C1258   1.415   .     S
C520   C521    1.407   .     A
C520   C1257   1.415   1_554 S
C521   N557    1.437   .     S
C521   C523    1.402   .     A
C522   C524    1.403   .     A
C522   N560    1.447   .     S
C523   N545    1.428   .     S
C523   C1255   1.418   1_554 S
C524   N548    1.426   .     S
C524   C1256   1.422   .     S
C529   H531    1.084   .     S
C529   C618    1.401   .     S
C530   H532    1.084   .     S
C530   C42     1.388   1_565 S
C530   C699    1.399   1_455 S
C533   N563    1.433   .     S
C533   C535    1.407   .     A
C533   C37     1.391   1_565 S
C534   C536    1.406   .     A
C534   N566    1.432   .     S
C535   C612    1.399   .     S
C536   C693    1.401   1_455 S
C537   H539    1.082   .     S
C537   N544    1.368   .     A
C537   C541    1.433   .     A
C538   H540    1.083   .     S
C538   N543    1.357   .     A
C538   C542    1.418   .     A
C541   N543    1.375   .     A
C541   N569    1.428   .     S
C542   N544    1.392   .     A
C542   N572    1.428   .     S
N545   H547    1.043   .     S
N545   H546    1.037   .     S
N548   H549    1.041   .     S
N548   H550    1.042   .     S
N551   H552    1.042   .     S
N551   C594    1.433   .     S
N551   H635    1.046   .     S
H553   N715    1.046   1_455 S
N554   H556    1.045   .     S
N554   C675    1.439   1_455 S
N554   H719    1.046   1_455 S
H555   N636    1.046   .     S
N557   O559    1.301   .     A
N557   O558    1.302   .     A
N560   O561    1.300   .     A
N560   O562    1.302   .     A
N563   H565    1.046   .     S
N563   H564    1.046   .     S
N566   H568    1.044   .     S
N566   H567    1.046   .     S
N569   H570    1.045   .     S
N569   H571    1.044   .     S
N572   H574    1.041   .     S
N572   H573    1.036   .     S
O575   C579    1.303   .     A
O575   Cu587   1.966   .     S
O576   C580    1.305   .     A
O576   Cu588   1.966   .     S
O577   Cu588   1.958   .     S
O577   C661    1.304   .     S
O578   Cu587   1.958   .     S
C579   C618    1.450   .     S
C580   C617    1.450   .     S
C580   O660    1.303   .     S
O581   Cu587   1.898   .     S
O582   Cu588   1.898   .     S
O582   C668    1.316   .     S
O583   Cu588   1.914   .     S
O583   C585    1.307   .     A
O584   C586    1.305   .     A
O584   Cu587   1.914   .     S
C585   C589    1.478   .     S
C585   O663    1.313   .     S
C586   C590    1.480   .     S
Cu587  N625    2.044   .     S
Cu588  N626    2.044   .     S
Cu588  Cu669   2.720   .     S
C589   C593    1.402   .     A
C589   C595    1.404   .     A
C590   C594    1.398   .     A
C590   C596    1.406   .     A
C591   C599    1.404   .     A
C591   C593    1.404   .     A
C591   H609    1.067   .     S
C592   C600    1.407   .     A
C592   C594    1.403   .     A
C592   H610    1.070   .     S
C593   N718    1.439   .     S
C595   H608    1.078   .     S
C595   C597    1.414   .     A
C596   C598    1.415   .     A
C596   H607    1.075   .     S
C597   C601    1.421   .     A
C597   C599    1.412   .     A
C598   C600    1.417   .     A
C598   C602    1.427   .     A
C599   C1343   1.418   .     S
C600   C1344   1.422   1_554 S
C601   C604    1.400   .     A
C601   C1340   1.415   .     S
C602   C603    1.407   .     A
C602   C1339   1.415   1_554 S
C603   N639    1.437   .     S
C603   C605    1.402   .     A
C604   C606    1.403   .     A
C604   N642    1.447   .     S
C605   N627    1.428   .     S
C605   C1337   1.418   1_554 S
C606   N630    1.426   .     S
C606   C1338   1.422   .     S
C611   H613    1.084   .     S
C611   C700    1.401   .     S
C612   H614    1.084   .     S
C612   C124    1.388   1_565 S
C615   N645    1.433   .     S
C615   C617    1.407   .     A
C615   C119    1.391   1_565 S
C616   C618    1.406   .     A
C616   N648    1.432   .     S
C617   C694    1.399   .     S
C619   H621    1.082   .     S
C619   N626    1.368   .     A
C619   C623    1.433   .     A
C620   H622    1.083   .     S
C620   N625    1.357   .     A
C620   C624    1.418   .     A
C623   N625    1.375   .     A
C623   N651    1.428   .     S
C624   N626    1.392   .     A
C624   N654    1.428   .     S
N627   H629    1.043   .     S
N627   H628    1.037   .     S
N630   H631    1.041   .     S
N630   H632    1.042   .     S
N633   H634    1.042   .     S
N633   C676    1.433   .     S
N633   H717    1.046   .     S
N636   H638    1.045   .     S
H637   N718    1.046   .     S
N639   O641    1.301   .     A
N639   O640    1.302   .     A
N642   O643    1.300   .     A
N642   O644    1.302   .     A
N645   H647    1.046   .     S
N645   H646    1.046   .     S
N648   H650    1.044   .     S
N648   H649    1.046   .     S
N651   H652    1.045   .     S
N651   H653    1.044   .     S
N654   H656    1.041   .     S
N654   H655    1.036   .     S
O657   C661    1.303   .     A
O657   Cu669   1.966   .     S
O658   C662    1.305   .     A
O658   Cu670   1.966   .     S
O659   Cu670   1.958   .     S
O659   C497    1.304   1_655 S
O660   Cu669   1.958   .     S
C661   C700    1.450   .     S
C662   C699    1.450   .     S
C662   O496    1.303   1_655 S
O663   Cu669   1.898   .     S
O664   Cu670   1.898   .     S
O664   C504    1.316   1_655 S
O665   Cu670   1.914   .     S
O665   C667    1.307   .     A
O666   C668    1.305   .     A
O666   Cu669   1.914   .     S
C667   C671    1.478   .     S
C667   O499    1.313   1_655 S
C668   C672    1.480   .     S
Cu669  N707    2.044   .     S
Cu670  N708    2.044   .     S
Cu670  Cu505   2.720   1_655 S
C671   C675    1.402   .     A
C671   C677    1.404   .     A
C672   C676    1.398   .     A
C672   C678    1.406   .     A
C673   C681    1.404   .     A
C673   C675    1.404   .     A
C673   H691    1.067   .     S
C674   C682    1.407   .     A
C674   C676    1.403   .     A
C674   H692    1.070   .     S
C675   N554    1.439   1_655 S
C677   H690    1.078   .     S
C677   C679    1.414   .     A
C678   C680    1.415   .     A
C678   H689    1.075   .     S
C679   C683    1.421   .     A
C679   C681    1.412   .     A
C680   C682    1.417   .     A
C680   C684    1.427   .     A
C681   C1425   1.418   .     S
C682   C1426   1.422   1_554 S
C683   C686    1.400   .     A
C683   C1422   1.415   .     S
C684   C685    1.407   .     A
C684   C1421   1.415   1_554 S
C685   N721    1.437   .     S
C685   C687    1.402   .     A
C686   C688    1.403   .     A
C686   N724    1.447   .     S
C687   N709    1.428   .     S
C687   C1419   1.418   1_554 S
C688   N712    1.426   .     S
C688   C1420   1.422   .     S
C693   H695    1.084   .     S
C693   C536    1.401   1_655 S
C694   H696    1.084   .     S
C694   C206    1.388   1_565 S
C697   N727    1.433   .     S
C697   C699    1.407   .     A
C697   C201    1.391   1_565 S
C698   C700    1.406   .     A
C698   N730    1.432   .     S
C699   C530    1.399   1_655 S
C701   H703    1.082   .     S
C701   N708    1.368   .     A
C701   C705    1.433   .     A
C702   H704    1.083   .     S
C702   N707    1.357   .     A
C702   C706    1.418   .     A
C705   N707    1.375   .     A
C705   N733    1.428   .     S
C706   N708    1.392   .     A
C706   N736    1.428   .     S
N709   H711    1.043   .     S
N709   H710    1.037   .     S
N712   H713    1.041   .     S
N712   H714    1.042   .     S
N715   H716    1.042   .     S
N715   C512    1.433   1_655 S
N715   H553    1.046   1_655 S
N718   H720    1.045   .     S
H719   N554    1.046   1_655 S
N721   O723    1.301   .     A
N721   O722    1.302   .     A
N724   O725    1.300   .     A
N724   O726    1.302   .     A
N727   H729    1.046   .     S
N727   H728    1.046   .     S
N730   H732    1.044   .     S
N730   H731    1.046   .     S
N733   H734    1.045   .     S
N733   H735    1.044   .     S
N736   H738    1.041   .     S
N736   H737    1.036   .     S
O739   C743    1.303   .     A
O739   Cu751   1.966   .     S
O740   C744    1.305   .     A
O740   Cu752   1.966   .     S
O741   Cu752   1.958   .     S
O741   C825    1.304   .     S
O742   Cu751   1.958   .     S
O742   C908    1.303   1_455 S
C743   C782    1.450   .     S
C743   O905    1.304   1_455 S
C744   C781    1.450   .     S
C744   O824    1.303   .     S
O745   Cu751   1.898   .     S
O745   C913    1.313   1_455 S
O746   Cu752   1.898   .     S
O746   C832    1.316   .     S
O747   Cu752   1.914   .     S
O747   C749    1.307   .     A
O748   C750    1.305   .     A
O748   Cu751   1.914   .     S
C749   C753    1.478   .     S
C749   O827    1.313   .     S
C750   C754    1.480   .     S
C750   O910    1.316   1_455 S
Cu751  N789    2.044   .     S
Cu751  Cu916   2.720   1_455 S
Cu752  N790    2.044   .     S
Cu752  Cu833   2.720   .     S
C753   C757    1.402   .     A
C753   C759    1.404   .     A
C754   C758    1.398   .     A
C754   C760    1.406   .     A
C755   C763    1.404   .     A
C755   C757    1.404   .     A
C755   H773    1.067   .     S
C756   C764    1.407   .     A
C756   C758    1.403   .     A
C756   H774    1.070   .     S
C757   N882    1.439   .     S
C758   N961    1.433   1_455 S
C759   H772    1.078   .     S
C759   C761    1.414   .     A
C760   C762    1.415   .     A
C760   H771    1.075   .     S
C761   C765    1.421   .     A
C761   C763    1.412   .     A
C762   C764    1.417   .     A
C762   C766    1.427   .     A
C763   C31     1.418   1_556 S
C765   C768    1.400   .     A
C765   C28     1.415   1_556 S
C766   C767    1.407   .     A
C767   N803    1.437   .     S
C767   C769    1.402   .     A
C768   C770    1.403   .     A
C768   N806    1.447   .     S
C769   N791    1.428   .     S
C770   N794    1.426   .     S
C770   C26     1.422   1_556 S
C775   H777    1.084   .     S
C775   C1271   1.391   1_545 S
C775   C864    1.401   .     S
C776   H778    1.084   .     S
C776   C1026   1.388   .     S
C776   C945    1.399   1_455 S
C779   N809    1.433   .     S
C779   C781    1.407   .     A
C779   C1021   1.391   .     S
C780   C782    1.406   .     A
C780   N812    1.432   .     S
C780   C1268   1.388   1_545 S
C781   C858    1.399   .     S
C782   C939    1.401   1_455 S
C783   H785    1.082   .     S
C783   N790    1.368   .     A
C783   C787    1.433   .     A
C784   H786    1.083   .     S
C784   N789    1.357   .     A
C784   C788    1.418   .     A
C787   N789    1.375   .     A
C787   N815    1.428   .     S
C788   N790    1.392   .     A
C788   N818    1.428   .     S
N791   H793    1.043   .     S
N791   H792    1.037   .     S
N794   H795    1.041   .     S
N794   H796    1.042   .     S
N797   H798    1.042   .     S
N797   C840    1.433   .     S
N797   H881    1.046   .     S
H799   N961    1.046   1_455 S
N800   H802    1.045   .     S
N800   C921    1.439   1_455 S
N800   H965    1.046   1_455 S
H801   N882    1.046   .     S
N803   O805    1.301   .     A
N803   O804    1.302   .     A
N806   O807    1.300   .     A
N806   O808    1.302   .     A
N809   H811    1.046   .     S
N809   H810    1.046   .     S
N812   H814    1.044   .     S
N812   H813    1.046   .     S
N815   H816    1.045   .     S
N815   H817    1.044   .     S
N818   H820    1.041   .     S
N818   H819    1.036   .     S
O821   C825    1.303   .     A
O821   Cu833   1.966   .     S
O822   C826    1.305   .     A
O822   Cu834   1.966   .     S
O823   Cu834   1.958   .     S
O823   C907    1.304   .     S
O824   Cu833   1.958   .     S
C825   C864    1.450   .     S
C826   C863    1.450   .     S
C826   O906    1.303   .     S
O827   Cu833   1.898   .     S
O828   Cu834   1.898   .     S
O828   C914    1.316   .     S
O829   Cu834   1.914   .     S
O829   C831    1.307   .     A
O830   C832    1.305   .     A
O830   Cu833   1.914   .     S
C831   C835    1.478   .     S
C831   O909    1.313   .     S
C832   C836    1.480   .     S
Cu833  N871    2.044   .     S
Cu834  N872    2.044   .     S
Cu834  Cu915   2.720   .     S
C835   C839    1.402   .     A
C835   C841    1.404   .     A
C836   C840    1.398   .     A
C836   C842    1.406   .     A
C837   C845    1.404   .     A
C837   C839    1.404   .     A
C837   H855    1.067   .     S
C838   C846    1.407   .     A
C838   C840    1.403   .     A
C838   H856    1.070   .     S
C839   N964    1.439   .     S
C841   H854    1.078   .     S
C841   C843    1.414   .     A
C842   C844    1.415   .     A
C842   H853    1.075   .     S
C843   C847    1.421   .     A
C843   C845    1.412   .     A
C844   C846    1.417   .     A
C844   C848    1.427   .     A
C845   C113    1.418   1_556 S
C847   C850    1.400   .     A
C847   C110    1.415   1_556 S
C848   C849    1.407   .     A
C849   N885    1.437   .     S
C849   C851    1.402   .     A
C850   C852    1.403   .     A
C850   N888    1.447   .     S
C851   N873    1.428   .     S
C852   N876    1.426   .     S
C852   C108    1.422   1_556 S
C857   H859    1.084   .     S
C857   C1353   1.391   1_545 S
C857   C946    1.401   .     S
C858   H860    1.084   .     S
C858   C1108   1.388   .     S
C861   N891    1.433   .     S
C861   C863    1.407   .     A
C861   C1103   1.391   .     S
C862   C864    1.406   .     A
C862   N894    1.432   .     S
C862   C1350   1.388   1_545 S
C863   C940    1.399   .     S
C865   H867    1.082   .     S
C865   N872    1.368   .     A
C865   C869    1.433   .     A
C866   H868    1.083   .     S
C866   N871    1.357   .     A
C866   C870    1.418   .     A
C869   N871    1.375   .     A
C869   N897    1.428   .     S
C870   N872    1.392   .     A
C870   N900    1.428   .     S
N873   H875    1.043   .     S
N873   H874    1.037   .     S
N876   H877    1.041   .     S
N876   H878    1.042   .     S
N879   H880    1.042   .     S
N879   C922    1.433   .     S
N879   H963    1.046   .     S
N882   H884    1.045   .     S
H883   N964    1.046   .     S
N885   O887    1.301   .     A
N885   O886    1.302   .     A
N888   O889    1.300   .     A
N888   O890    1.302   .     A
N891   H893    1.046   .     S
N891   H892    1.046   .     S
N894   H896    1.044   .     S
N894   H895    1.046   .     S
N897   H898    1.045   .     S
N897   H899    1.044   .     S
N900   H902    1.041   .     S
N900   H901    1.036   .     S
O903   C907    1.303   .     A
O903   Cu915   1.966   .     S
O904   C908    1.305   .     A
O904   Cu916   1.966   .     S
O905   Cu916   1.958   .     S
O905   C743    1.304   1_655 S
O906   Cu915   1.958   .     S
C907   C946    1.450   .     S
C908   C945    1.450   .     S
C908   O742    1.303   1_655 S
O909   Cu915   1.898   .     S
O910   Cu916   1.898   .     S
O910   C750    1.316   1_655 S
O911   Cu916   1.914   .     S
O911   C913    1.307   .     A
O912   C914    1.305   .     A
O912   Cu915   1.914   .     S
C913   C917    1.478   .     S
C913   O745    1.313   1_655 S
C914   C918    1.480   .     S
Cu915  N953    2.044   .     S
Cu916  N954    2.044   .     S
Cu916  Cu751   2.720   1_655 S
C917   C921    1.402   .     A
C917   C923    1.404   .     A
C918   C922    1.398   .     A
C918   C924    1.406   .     A
C919   C927    1.404   .     A
C919   C921    1.404   .     A
C919   H937    1.067   .     S
C920   C928    1.407   .     A
C920   C922    1.403   .     A
C920   H938    1.070   .     S
C921   N800    1.439   1_655 S
C923   H936    1.078   .     S
C923   C925    1.414   .     A
C924   C926    1.415   .     A
C924   H935    1.075   .     S
C925   C929    1.421   .     A
C925   C927    1.412   .     A
C926   C928    1.417   .     A
C926   C930    1.427   .     A
C927   C195    1.418   1_556 S
C929   C932    1.400   .     A
C929   C192    1.415   1_556 S
C930   C931    1.407   .     A
C931   N967    1.437   .     S
C931   C933    1.402   .     A
C932   C934    1.403   .     A
C932   N970    1.447   .     S
C933   N955    1.428   .     S
C934   N958    1.426   .     S
C934   C190    1.422   1_556 S
C939   H941    1.084   .     S
C939   C1435   1.391   1_545 S
C939   C782    1.401   1_655 S
C940   H942    1.084   .     S
C940   C1190   1.388   .     S
C943   N973    1.433   .     S
C943   C945    1.407   .     A
C943   C1185   1.391   .     S
C944   C946    1.406   .     A
C944   N976    1.432   .     S
C944   C1432   1.388   1_545 S
C945   C776    1.399   1_655 S
C947   H949    1.082   .     S
C947   N954    1.368   .     A
C947   C951    1.433   .     A
C948   H950    1.083   .     S
C948   N953    1.357   .     A
C948   C952    1.418   .     A
C951   N953    1.375   .     A
C951   N979    1.428   .     S
C952   N954    1.392   .     A
C952   N982    1.428   .     S
N955   H957    1.043   .     S
N955   H956    1.037   .     S
N958   H959    1.041   .     S
N958   H960    1.042   .     S
N961   H962    1.042   .     S
N961   C758    1.433   1_655 S
N961   H799    1.046   1_655 S
N964   H966    1.045   .     S
H965   N800    1.046   1_655 S
N967   O969    1.301   .     A
N967   O968    1.302   .     A
N970   O971    1.300   .     A
N970   O972    1.302   .     A
N973   H975    1.046   .     S
N973   H974    1.046   .     S
N976   H978    1.044   .     S
N976   H977    1.046   .     S
N979   H980    1.045   .     S
N979   H981    1.044   .     S
N982   H984    1.041   .     S
N982   H983    1.036   .     S
O985   C989    1.303   .     A
O985   Cu997   1.966   .     S
O986   C990    1.305   .     A
O986   Cu998   1.966   .     S
O987   Cu998   1.958   .     S
O987   C1071   1.304   .     S
O988   Cu997   1.958   .     S
O988   C1154   1.303   1_455 S
C989   C1028   1.450   .     S
C989   O1151   1.304   1_455 S
C990   C1027   1.450   .     S
C990   O1070   1.303   .     S
O991   Cu997   1.898   .     S
O991   C1159   1.313   1_455 S
O992   Cu998   1.898   .     S
O992   C1078   1.316   .     S
O993   Cu998   1.914   .     S
O993   C995    1.307   .     A
O994   C996    1.305   .     A
O994   Cu997   1.914   .     S
C995   C999    1.478   .     S
C995   O1073   1.313   .     S
C996   C1000   1.480   .     S
C996   O1156   1.316   1_455 S
Cu997  N1035   2.044   .     S
Cu997  Cu1162  2.720   1_455 S
Cu998  N1036   2.044   .     S
Cu998  Cu1079  2.720   .     S
C999   C1003   1.402   .     A
C999   C1005   1.404   .     A
C1000  C1004   1.398   .     A
C1000  C1006   1.406   .     A
C1001  C1009   1.404   .     A
C1001  C1003   1.404   .     A
C1001  H1019   1.067   .     S
C1002  C1010   1.407   .     A
C1002  C1004   1.403   .     A
C1002  H1020   1.070   .     S
C1003  N1128   1.439   .     S
C1004  N1207   1.433   1_455 S
C1005  H1018   1.078   .     S
C1005  C1007   1.414   .     A
C1006  C1008   1.415   .     A
C1006  H1017   1.075   .     S
C1007  C1011   1.421   .     A
C1007  C1009   1.412   .     A
C1008  C1010   1.417   .     A
C1008  C1012   1.427   .     A
C1009  C277    1.418   1_556 S
C1011  C1014   1.400   .     A
C1011  C274    1.415   1_556 S
C1012  C1013   1.407   .     A
C1013  N1049   1.437   .     S
C1013  C1015   1.402   .     A
C1014  C1016   1.403   .     A
C1014  N1052   1.447   .     S
C1015  N1037   1.428   .     S
C1016  N1040   1.426   .     S
C1016  C272    1.422   1_556 S
C1021  H1023   1.084   .     S
C1021  C1110   1.401   .     S
C1022  H1024   1.084   .     S
C1022  C1272   1.388   .     S
C1022  C1191   1.399   1_455 S
C1025  N1055   1.433   .     S
C1025  C1027   1.407   .     A
C1025  C1267   1.391   .     S
C1026  C1028   1.406   .     A
C1026  N1058   1.432   .     S
C1027  C1104   1.399   .     S
C1028  C1185   1.401   1_455 S
C1029  H1031   1.082   .     S
C1029  N1036   1.368   .     A
C1029  C1033   1.433   .     A
C1030  H1032   1.083   .     S
C1030  N1035   1.357   .     A
C1030  C1034   1.418   .     A
C1033  N1035   1.375   .     A
C1033  N1061   1.428   .     S
C1034  N1036   1.392   .     A
C1034  N1064   1.428   .     S
N1037  H1039   1.043   .     S
N1037  H1038   1.037   .     S
N1040  H1041   1.041   .     S
N1040  H1042   1.042   .     S
N1043  H1044   1.042   .     S
N1043  C1086   1.433   .     S
N1043  H1127   1.046   .     S
H1045  N1207   1.046   1_455 S
N1046  H1048   1.045   .     S
N1046  C1167   1.439   1_455 S
N1046  H1211   1.046   1_455 S
H1047  N1128   1.046   .     S
N1049  O1051   1.301   .     A
N1049  O1050   1.302   .     A
N1052  O1053   1.300   .     A
N1052  O1054   1.302   .     A
N1055  H1057   1.046   .     S
N1055  H1056   1.046   .     S
N1058  H1060   1.044   .     S
N1058  H1059   1.046   .     S
N1061  H1062   1.045   .     S
N1061  H1063   1.044   .     S
N1064  H1066   1.041   .     S
N1064  H1065   1.036   .     S
O1067  C1071   1.303   .     A
O1067  Cu1079  1.966   .     S
O1068  C1072   1.305   .     A
O1068  Cu1080  1.966   .     S
O1069  Cu1080  1.958   .     S
O1069  C1153   1.304   .     S
O1070  Cu1079  1.958   .     S
C1071  C1110   1.450   .     S
C1072  C1109   1.450   .     S
C1072  O1152   1.303   .     S
O1073  Cu1079  1.898   .     S
O1074  Cu1080  1.898   .     S
O1074  C1160   1.316   .     S
O1075  Cu1080  1.914   .     S
O1075  C1077   1.307   .     A
O1076  C1078   1.305   .     A
O1076  Cu1079  1.914   .     S
C1077  C1081   1.478   .     S
C1077  O1155   1.313   .     S
C1078  C1082   1.480   .     S
Cu1079 N1117   2.044   .     S
Cu1080 N1118   2.044   .     S
Cu1080 Cu1161  2.720   .     S
C1081  C1085   1.402   .     A
C1081  C1087   1.404   .     A
C1082  C1086   1.398   .     A
C1082  C1088   1.406   .     A
C1083  C1091   1.404   .     A
C1083  C1085   1.404   .     A
C1083  H1101   1.067   .     S
C1084  C1092   1.407   .     A
C1084  C1086   1.403   .     A
C1084  H1102   1.070   .     S
C1085  N1210   1.439   .     S
C1087  H1100   1.078   .     S
C1087  C1089   1.414   .     A
C1088  C1090   1.415   .     A
C1088  H1099   1.075   .     S
C1089  C1093   1.421   .     A
C1089  C1091   1.412   .     A
C1090  C1092   1.417   .     A
C1090  C1094   1.427   .     A
C1091  C359    1.418   1_556 S
C1093  C1096   1.400   .     A
C1093  C356    1.415   1_556 S
C1094  C1095   1.407   .     A
C1095  N1131   1.437   .     S
C1095  C1097   1.402   .     A
C1096  C1098   1.403   .     A
C1096  N1134   1.447   .     S
C1097  N1119   1.428   .     S
C1098  N1122   1.426   .     S
C1098  C354    1.422   1_556 S
C1103  H1105   1.084   .     S
C1103  C1192   1.401   .     S
C1104  H1106   1.084   .     S
C1104  C1354   1.388   .     S
C1107  N1137   1.433   .     S
C1107  C1109   1.407   .     A
C1107  C1349   1.391   .     S
C1108  C1110   1.406   .     A
C1108  N1140   1.432   .     S
C1109  C1186   1.399   .     S
C1111  H1113   1.082   .     S
C1111  N1118   1.368   .     A
C1111  C1115   1.433   .     A
C1112  H1114   1.083   .     S
C1112  N1117   1.357   .     A
C1112  C1116   1.418   .     A
C1115  N1117   1.375   .     A
C1115  N1143   1.428   .     S
C1116  N1118   1.392   .     A
C1116  N1146   1.428   .     S
N1119  H1121   1.043   .     S
N1119  H1120   1.037   .     S
N1122  H1123   1.041   .     S
N1122  H1124   1.042   .     S
N1125  H1126   1.042   .     S
N1125  C1168   1.433   .     S
N1125  H1209   1.046   .     S
N1128  H1130   1.045   .     S
H1129  N1210   1.046   .     S
N1131  O1133   1.301   .     A
N1131  O1132   1.302   .     A
N1134  O1135   1.300   .     A
N1134  O1136   1.302   .     A
N1137  H1139   1.046   .     S
N1137  H1138   1.046   .     S
N1140  H1142   1.044   .     S
N1140  H1141   1.046   .     S
N1143  H1144   1.045   .     S
N1143  H1145   1.044   .     S
N1146  H1148   1.041   .     S
N1146  H1147   1.036   .     S
O1149  C1153   1.303   .     A
O1149  Cu1161  1.966   .     S
O1150  C1154   1.305   .     A
O1150  Cu1162  1.966   .     S
O1151  Cu1162  1.958   .     S
O1151  C989    1.304   1_655 S
O1152  Cu1161  1.958   .     S
C1153  C1192   1.450   .     S
C1154  C1191   1.450   .     S
C1154  O988    1.303   1_655 S
O1155  Cu1161  1.898   .     S
O1156  Cu1162  1.898   .     S
O1156  C996    1.316   1_655 S
O1157  Cu1162  1.914   .     S
O1157  C1159   1.307   .     A
O1158  C1160   1.305   .     A
O1158  Cu1161  1.914   .     S
C1159  C1163   1.478   .     S
C1159  O991    1.313   1_655 S
C1160  C1164   1.480   .     S
Cu1161 N1199   2.044   .     S
Cu1162 N1200   2.044   .     S
Cu1162 Cu997   2.720   1_655 S
C1163  C1167   1.402   .     A
C1163  C1169   1.404   .     A
C1164  C1168   1.398   .     A
C1164  C1170   1.406   .     A
C1165  C1173   1.404   .     A
C1165  C1167   1.404   .     A
C1165  H1183   1.067   .     S
C1166  C1174   1.407   .     A
C1166  C1168   1.403   .     A
C1166  H1184   1.070   .     S
C1167  N1046   1.439   1_655 S
C1169  H1182   1.078   .     S
C1169  C1171   1.414   .     A
C1170  C1172   1.415   .     A
C1170  H1181   1.075   .     S
C1171  C1175   1.421   .     A
C1171  C1173   1.412   .     A
C1172  C1174   1.417   .     A
C1172  C1176   1.427   .     A
C1173  C441    1.418   1_556 S
C1175  C1178   1.400   .     A
C1175  C438    1.415   1_556 S
C1176  C1177   1.407   .     A
C1177  N1213   1.437   .     S
C1177  C1179   1.402   .     A
C1178  C1180   1.403   .     A
C1178  N1216   1.447   .     S
C1179  N1201   1.428   .     S
C1180  N1204   1.426   .     S
C1180  C436    1.422   1_556 S
C1185  H1187   1.084   .     S
C1185  C1028   1.401   1_655 S
C1186  H1188   1.084   .     S
C1186  C1436   1.388   .     S
C1189  N1219   1.433   .     S
C1189  C1191   1.407   .     A
C1189  C1431   1.391   .     S
C1190  C1192   1.406   .     A
C1190  N1222   1.432   .     S
C1191  C1022   1.399   1_655 S
C1193  H1195   1.082   .     S
C1193  N1200   1.368   .     A
C1193  C1197   1.433   .     A
C1194  H1196   1.083   .     S
C1194  N1199   1.357   .     A
C1194  C1198   1.418   .     A
C1197  N1199   1.375   .     A
C1197  N1225   1.428   .     S
C1198  N1200   1.392   .     A
C1198  N1228   1.428   .     S
N1201  H1203   1.043   .     S
N1201  H1202   1.037   .     S
N1204  H1205   1.041   .     S
N1204  H1206   1.042   .     S
N1207  H1208   1.042   .     S
N1207  C1004   1.433   1_655 S
N1207  H1045   1.046   1_655 S
N1210  H1212   1.045   .     S
H1211  N1046   1.046   1_655 S
N1213  O1215   1.301   .     A
N1213  O1214   1.302   .     A
N1216  O1217   1.300   .     A
N1216  O1218   1.302   .     A
N1219  H1221   1.046   .     S
N1219  H1220   1.046   .     S
N1222  H1224   1.044   .     S
N1222  H1223   1.046   .     S
N1225  H1226   1.045   .     S
N1225  H1227   1.044   .     S
N1228  H1230   1.041   .     S
N1228  H1229   1.036   .     S
O1231  C1235   1.303   .     A
O1231  Cu1243  1.966   .     S
O1232  C1236   1.305   .     A
O1232  Cu1244  1.966   .     S
O1233  Cu1244  1.958   .     S
O1233  C1317   1.304   .     S
O1234  Cu1243  1.958   .     S
O1234  C1400   1.303   1_455 S
C1235  C1274   1.450   .     S
C1235  O1397   1.304   1_455 S
C1236  C1273   1.450   .     S
C1236  O1316   1.303   .     S
O1237  Cu1243  1.898   .     S
O1237  C1405   1.313   1_455 S
O1238  Cu1244  1.898   .     S
O1238  C1324   1.316   .     S
O1239  Cu1244  1.914   .     S
O1239  C1241   1.307   .     A
O1240  C1242   1.305   .     A
O1240  Cu1243  1.914   .     S
C1241  C1245   1.478   .     S
C1241  O1319   1.313   .     S
C1242  C1246   1.480   .     S
C1242  O1402   1.316   1_455 S
Cu1243 N1281   2.044   .     S
Cu1243 Cu1408  2.720   1_455 S
Cu1244 N1282   2.044   .     S
Cu1244 Cu1325  2.720   .     S
C1245  C1249   1.402   .     A
C1245  C1251   1.404   .     A
C1246  C1250   1.398   .     A
C1246  C1252   1.406   .     A
C1247  C1255   1.404   .     A
C1247  C1249   1.404   .     A
C1247  H1265   1.067   .     S
C1248  C1256   1.407   .     A
C1248  C1250   1.403   .     A
C1248  H1266   1.070   .     S
C1249  N1374   1.439   .     S
C1250  N1453   1.433   1_455 S
C1251  H1264   1.078   .     S
C1251  C1253   1.414   .     A
C1252  C1254   1.415   .     A
C1252  H1263   1.075   .     S
C1253  C1257   1.421   .     A
C1253  C1255   1.412   .     A
C1254  C1256   1.417   .     A
C1254  C1258   1.427   .     A
C1255  C523    1.418   1_556 S
C1257  C1260   1.400   .     A
C1257  C520    1.415   1_556 S
C1258  C1259   1.407   .     A
C1259  N1295   1.437   .     S
C1259  C1261   1.402   .     A
C1260  C1262   1.403   .     A
C1260  N1298   1.447   .     S
C1261  N1283   1.428   .     S
C1262  N1286   1.426   .     S
C1262  C518    1.422   1_556 S
C1267  H1269   1.084   .     S
C1267  C1356   1.401   .     S
C1268  H1270   1.084   .     S
C1268  C780    1.388   1_565 S
C1268  C1437   1.399   1_455 S
C1271  N1301   1.433   .     S
C1271  C1273   1.407   .     A
C1271  C775    1.391   1_565 S
C1272  C1274   1.406   .     A
C1272  N1304   1.432   .     S
C1273  C1350   1.399   .     S
C1274  C1431   1.401   1_455 S
C1275  H1277   1.082   .     S
C1275  N1282   1.368   .     A
C1275  C1279   1.433   .     A
C1276  H1278   1.083   .     S
C1276  N1281   1.357   .     A
C1276  C1280   1.418   .     A
C1279  N1281   1.375   .     A
C1279  N1307   1.428   .     S
C1280  N1282   1.392   .     A
C1280  N1310   1.428   .     S
N1283  H1285   1.043   .     S
N1283  H1284   1.037   .     S
N1286  H1287   1.041   .     S
N1286  H1288   1.042   .     S
N1289  H1290   1.042   .     S
N1289  C1332   1.433   .     S
N1289  H1373   1.046   .     S
H1291  N1453   1.046   1_455 S
N1292  H1294   1.045   .     S
N1292  C1413   1.439   1_455 S
N1292  H1457   1.046   1_455 S
H1293  N1374   1.046   .     S
N1295  O1297   1.301   .     A
N1295  O1296   1.302   .     A
N1298  O1299   1.300   .     A
N1298  O1300   1.302   .     A
N1301  H1303   1.046   .     S
N1301  H1302   1.046   .     S
N1304  H1306   1.044   .     S
N1304  H1305   1.046   .     S
N1307  H1308   1.045   .     S
N1307  H1309   1.044   .     S
N1310  H1312   1.041   .     S
N1310  H1311   1.036   .     S
O1313  C1317   1.303   .     A
O1313  Cu1325  1.966   .     S
O1314  C1318   1.305   .     A
O1314  Cu1326  1.966   .     S
O1315  Cu1326  1.958   .     S
O1315  C1399   1.304   .     S
O1316  Cu1325  1.958   .     S
C1317  C1356   1.450   .     S
C1318  C1355   1.450   .     S
C1318  O1398   1.303   .     S
O1319  Cu1325  1.898   .     S
O1320  Cu1326  1.898   .     S
O1320  C1406   1.316   .     S
O1321  Cu1326  1.914   .     S
O1321  C1323   1.307   .     A
O1322  C1324   1.305   .     A
O1322  Cu1325  1.914   .     S
C1323  C1327   1.478   .     S
C1323  O1401   1.313   .     S
C1324  C1328   1.480   .     S
Cu1325 N1363   2.044   .     S
Cu1326 N1364   2.044   .     S
Cu1326 Cu1407  2.720   .     S
C1327  C1331   1.402   .     A
C1327  C1333   1.404   .     A
C1328  C1332   1.398   .     A
C1328  C1334   1.406   .     A
C1329  C1337   1.404   .     A
C1329  C1331   1.404   .     A
C1329  H1347   1.067   .     S
C1330  C1338   1.407   .     A
C1330  C1332   1.403   .     A
C1330  H1348   1.070   .     S
C1331  N1456   1.439   .     S
C1333  H1346   1.078   .     S
C1333  C1335   1.414   .     A
C1334  C1336   1.415   .     A
C1334  H1345   1.075   .     S
C1335  C1339   1.421   .     A
C1335  C1337   1.412   .     A
C1336  C1338   1.417   .     A
C1336  C1340   1.427   .     A
C1337  C605    1.418   1_556 S
C1339  C1342   1.400   .     A
C1339  C602    1.415   1_556 S
C1340  C1341   1.407   .     A
C1341  N1377   1.437   .     S
C1341  C1343   1.402   .     A
C1342  C1344   1.403   .     A
C1342  N1380   1.447   .     S
C1343  N1365   1.428   .     S
C1344  N1368   1.426   .     S
C1344  C600    1.422   1_556 S
C1349  H1351   1.084   .     S
C1349  C1438   1.401   .     S
C1350  H1352   1.084   .     S
C1350  C862    1.388   1_565 S
C1353  N1383   1.433   .     S
C1353  C1355   1.407   .     A
C1353  C857    1.391   1_565 S
C1354  C1356   1.406   .     A
C1354  N1386   1.432   .     S
C1355  C1432   1.399   .     S
C1357  H1359   1.082   .     S
C1357  N1364   1.368   .     A
C1357  C1361   1.433   .     A
C1358  H1360   1.083   .     S
C1358  N1363   1.357   .     A
C1358  C1362   1.418   .     A
C1361  N1363   1.375   .     A
C1361  N1389   1.428   .     S
C1362  N1364   1.392   .     A
C1362  N1392   1.428   .     S
N1365  H1367   1.043   .     S
N1365  H1366   1.037   .     S
N1368  H1369   1.041   .     S
N1368  H1370   1.042   .     S
N1371  H1372   1.042   .     S
N1371  C1414   1.433   .     S
N1371  H1455   1.046   .     S
N1374  H1376   1.045   .     S
H1375  N1456   1.046   .     S
N1377  O1379   1.301   .     A
N1377  O1378   1.302   .     A
N1380  O1381   1.300   .     A
N1380  O1382   1.302   .     A
N1383  H1385   1.046   .     S
N1383  H1384   1.046   .     S
N1386  H1388   1.044   .     S
N1386  H1387   1.046   .     S
N1389  H1390   1.045   .     S
N1389  H1391   1.044   .     S
N1392  H1394   1.041   .     S
N1392  H1393   1.036   .     S
O1395  C1399   1.303   .     A
O1395  Cu1407  1.966   .     S
O1396  C1400   1.305   .     A
O1396  Cu1408  1.966   .     S
O1397  Cu1408  1.958   .     S
O1397  C1235   1.304   1_655 S
O1398  Cu1407  1.958   .     S
C1399  C1438   1.450   .     S
C1400  C1437   1.450   .     S
C1400  O1234   1.303   1_655 S
O1401  Cu1407  1.898   .     S
O1402  Cu1408  1.898   .     S
O1402  C1242   1.316   1_655 S
O1403  Cu1408  1.914   .     S
O1403  C1405   1.307   .     A
O1404  C1406   1.305   .     A
O1404  Cu1407  1.914   .     S
C1405  C1409   1.478   .     S
C1405  O1237   1.313   1_655 S
C1406  C1410   1.480   .     S
Cu1407 N1445   2.044   .     S
Cu1408 N1446   2.044   .     S
Cu1408 Cu1243  2.720   1_655 S
C1409  C1413   1.402   .     A
C1409  C1415   1.404   .     A
C1410  C1414   1.398   .     A
C1410  C1416   1.406   .     A
C1411  C1419   1.404   .     A
C1411  C1413   1.404   .     A
C1411  H1429   1.067   .     S
C1412  C1420   1.407   .     A
C1412  C1414   1.403   .     A
C1412  H1430   1.070   .     S
C1413  N1292   1.439   1_655 S
C1415  H1428   1.078   .     S
C1415  C1417   1.414   .     A
C1416  C1418   1.415   .     A
C1416  H1427   1.075   .     S
C1417  C1421   1.421   .     A
C1417  C1419   1.412   .     A
C1418  C1420   1.417   .     A
C1418  C1422   1.427   .     A
C1419  C687    1.418   1_556 S
C1421  C1424   1.400   .     A
C1421  C684    1.415   1_556 S
C1422  C1423   1.407   .     A
C1423  N1459   1.437   .     S
C1423  C1425   1.402   .     A
C1424  C1426   1.403   .     A
C1424  N1462   1.447   .     S
C1425  N1447   1.428   .     S
C1426  N1450   1.426   .     S
C1426  C682    1.422   1_556 S
C1431  H1433   1.084   .     S
C1431  C1274   1.401   1_655 S
C1432  H1434   1.084   .     S
C1432  C944    1.388   1_565 S
C1435  N1465   1.433   .     S
C1435  C1437   1.407   .     A
C1435  C939    1.391   1_565 S
C1436  C1438   1.406   .     A
C1436  N1468   1.432   .     S
C1437  C1268   1.399   1_655 S
C1439  H1441   1.082   .     S
C1439  N1446   1.368   .     A
C1439  C1443   1.433   .     A
C1440  H1442   1.083   .     S
C1440  N1445   1.357   .     A
C1440  C1444   1.418   .     A
C1443  N1445   1.375   .     A
C1443  N1471   1.428   .     S
C1444  N1446   1.392   .     A
C1444  N1474   1.428   .     S
N1447  H1449   1.043   .     S
N1447  H1448   1.037   .     S
N1450  H1451   1.041   .     S
N1450  H1452   1.042   .     S
N1453  H1454   1.042   .     S
N1453  C1250   1.433   1_655 S
N1453  H1291   1.046   1_655 S
N1456  H1458   1.045   .     S
H1457  N1292   1.046   1_655 S
N1459  O1461   1.301   .     A
N1459  O1460   1.302   .     A
N1462  O1463   1.300   .     A
N1462  O1464   1.302   .     A
N1465  H1467   1.046   .     S
N1465  H1466   1.046   .     S
N1468  H1470   1.044   .     S
N1468  H1469   1.046   .     S
N1471  H1472   1.045   .     S
N1471  H1473   1.044   .     S
N1474  H1476   1.041   .     S
N1474  H1475   1.036   .     S
