data_str_m2_o1_o17_pcu_sym.119
_audit_creation_date              2020-01-03
_audit_creation_method            'Materials Studio'
_symmetry_space_group_name_H-M    'P1'
_symmetry_Int_Tables_number       1
_symmetry_cell_setting            triclinic
loop_
_symmetry_equiv_pos_as_xyz
  x,y,z
_cell_length_a                    32.9228
_cell_length_b                    28.5582
_cell_length_c                    30.1556
_cell_angle_alpha                 90.1703
_cell_angle_beta                  90.1317
_cell_angle_gamma                 89.9948
loop_
_atom_site_label
_atom_site_type_symbol
_atom_site_fract_x
_atom_site_fract_y
_atom_site_fract_z
_atom_site_U_iso_or_equiv
_atom_site_adp_type
_atom_site_occupancy
C1     C     0.08738   0.16669   0.25099   0.00000  Uiso   1.00
C2     C     0.24594   0.16656   0.25165   0.00000  Uiso   1.00
C3     C     0.09899   0.20190   0.02311   0.00000  Uiso   1.00
C4     C     0.22799   0.11887   0.47709   0.00000  Uiso   1.00
C5     C     0.02132   0.12398   0.25879   0.00000  Uiso   1.00
C6     C     0.31220   0.20876   0.25858   0.00000  Uiso   1.00
C7     C     0.31253   0.12342   0.25397   0.00000  Uiso   1.00
C8     C     0.02068   0.20921   0.25190   0.00000  Uiso   1.00
C9     C     0.29061   0.16618   0.25479   0.00000  Uiso   1.00
C10    C     0.04272   0.16665   0.25360   0.00000  Uiso   1.00
C11    C     0.14821   0.02469   0.21664   0.00000  Uiso   1.00
C12    C     0.18468   0.30867   0.28360   0.00000  Uiso   1.00
C13    C     0.18487   0.02488   0.28350   0.00000  Uiso   1.00
C14    C     0.14839   0.30845   0.21653   0.00000  Uiso   1.00
C15    C     0.16655   0.16660   0.16459   0.00000  Uiso   1.00
C16    C     0.16665   0.16676   0.33550   0.00000  Uiso   1.00
C17    C     0.19758   0.14245   0.40673   0.00000  Uiso   1.00
C18    C     0.13232   0.18432   0.09355   0.00000  Uiso   1.00
C19    C     0.16704   0.16677   0.38383   0.00000  Uiso   1.00
C20    C     0.16599   0.16636   0.11643   0.00000  Uiso   1.00
C21    C     0.13624   0.19073   0.40665   0.00000  Uiso   1.00
C22    C     0.19930   0.14733   0.09376   0.00000  Uiso   1.00
C23    C     0.13298   0.18609   0.45318   0.00000  Uiso   1.00
C24    C     0.19797   0.14275   0.04714   0.00000  Uiso   1.00
C25    C     0.16501   0.16368   0.47668   0.00000  Uiso   1.00
C26    C     0.16499   0.16328   0.02361   0.00000  Uiso   1.00
C27    C     0.19721   0.14183   0.45336   0.00000  Uiso   1.00
C28    C     0.13205   0.18365   0.04691   0.00000  Uiso   1.00
C29    C     0.09884   0.20277   0.47705   0.00000  Uiso   1.00
C30    C     0.22858   0.11876   0.02314   0.00000  Uiso   1.00
Cu31   Cu    0.16667   0.21355   0.25000   0.00000  Uiso   1.00
Cu32   Cu    0.16667   0.11978   0.25000   0.00000  Uiso   1.00
H33    H     0.07265   0.21562   0.04031   0.00000  Uiso   1.00
H34    H     0.25203   0.10040   0.45984   0.00000  Uiso   1.00
H35    H     0.13319   0.04321   0.19003   0.00000  Uiso   1.00
H36    H     0.19911   0.29017   0.31059   0.00000  Uiso   1.00
H37    H     0.19971   0.04352   0.31025   0.00000  Uiso   1.00
H38    H     0.13358   0.28978   0.18977   0.00000  Uiso   1.00
N39    N     0.16667   0.28402   0.25000   0.00000  Uiso   1.00
N40    N     0.16667   0.04931   0.25000   0.00000  Uiso   1.00
O41    O     0.10655   0.20625   0.24999   0.00000  Uiso   1.00
O42    O     0.22679   0.12709   0.25000   0.00000  Uiso   1.00
O43    O     0.22679   0.20625   0.25000   0.00000  Uiso   1.00
O44    O     0.10655   0.12709   0.24999   0.00000  Uiso   1.00
O45    O     0.16666   0.20627   0.18513   0.00000  Uiso   1.00
O46    O     0.16668   0.12707   0.31487   0.00000  Uiso   1.00
O47    O     0.16668   0.20627   0.31487   0.00000  Uiso   1.00
O48    O     0.16666   0.12707   0.18513   0.00000  Uiso   1.00
C49    C     0.23033   0.12036   0.38201   0.00000  Uiso   1.00
N50    N     0.25640   0.10287   0.36229   0.00000  Uiso   1.00
C51    C     0.09818   0.20312   0.11841   0.00000  Uiso   1.00
N52    N     0.07103   0.21806   0.13823   0.00000  Uiso   1.00
O53    O     0.10885   0.21736   0.38256   0.00000  Uiso   1.00
C54    C     0.12128   0.26479   0.38421   0.00000  Uiso   1.00
H55    H     0.15385   0.26898   0.37507   0.00000  Uiso   1.00
H56    H     0.11683   0.27962   0.41800   0.00000  Uiso   1.00
C57    C     0.09587   0.29302   0.35169   0.00000  Uiso   1.00
H58    H     0.10548   0.33029   0.35255   0.00000  Uiso   1.00
H59    H     0.10009   0.27921   0.31757   0.00000  Uiso   1.00
H60    H     0.06322   0.29077   0.36060   0.00000  Uiso   1.00
O61    O     0.23353   0.13412   0.11748   0.00000  Uiso   1.00
C62    C     0.25840   0.17400   0.12413   0.00000  Uiso   1.00
H63    H     0.24613   0.19568   0.15169   0.00000  Uiso   1.00
H64    H     0.26079   0.19613   0.09378   0.00000  Uiso   1.00
C65    C     0.30111   0.15846   0.13666   0.00000  Uiso   1.00
H66    H     0.31878   0.18886   0.14923   0.00000  Uiso   1.00
H67    H     0.29982   0.13128   0.16275   0.00000  Uiso   1.00
H68    H     0.31687   0.14379   0.10725   0.00000  Uiso   1.00
C69    C     0.06176   0.21841   0.45589   0.00000  Uiso   1.00
N70    N     0.03201   0.23087   0.43914   0.00000  Uiso   1.00
C71    C     0.25990   0.09089   0.04400   0.00000  Uiso   1.00
N72    N     0.28493   0.06829   0.06040   0.00000  Uiso   1.00
C73    C     0.04157   0.08054   0.27070   0.00000  Uiso   1.00
N74    N     0.05764   0.04611   0.28066   0.00000  Uiso   1.00
C75    C     0.29280   0.25212   0.27206   0.00000  Uiso   1.00
N76    N     0.27781   0.28669   0.28349   0.00000  Uiso   1.00
C77    C     0.29303   0.07849   0.24630   0.00000  Uiso   1.00
N78    N     0.27757   0.04281   0.23958   0.00000  Uiso   1.00
C79    C     0.03960   0.25389   0.24203   0.00000  Uiso   1.00
N80    N     0.05430   0.28956   0.23369   0.00000  Uiso   1.00
C81    C     0.42072   0.16669   0.25099   0.00000  Uiso   1.00
C82    C     0.57927   0.16656   0.25165   0.00000  Uiso   1.00
C83    C     0.43232   0.20190   0.02311   0.00000  Uiso   1.00
C84    C     0.56132   0.11887   0.47709   0.00000  Uiso   1.00
C85    C     0.35466   0.12398   0.25879   0.00000  Uiso   1.00
C86    C     0.64553   0.20876   0.25858   0.00000  Uiso   1.00
C87    C     0.64587   0.12342   0.25397   0.00000  Uiso   1.00
C88    C     0.35401   0.20921   0.25190   0.00000  Uiso   1.00
C89    C     0.62395   0.16618   0.25479   0.00000  Uiso   1.00
C90    C     0.37605   0.16665   0.25360   0.00000  Uiso   1.00
C91    C     0.48154   0.02469   0.21664   0.00000  Uiso   1.00
C92    C     0.51801   0.30867   0.28360   0.00000  Uiso   1.00
C93    C     0.51821   0.02488   0.28350   0.00000  Uiso   1.00
C94    C     0.48173   0.30845   0.21653   0.00000  Uiso   1.00
C95    C     0.49988   0.16660   0.16459   0.00000  Uiso   1.00
C96    C     0.49998   0.16676   0.33550   0.00000  Uiso   1.00
C97    C     0.53091   0.14245   0.40673   0.00000  Uiso   1.00
C98    C     0.46565   0.18432   0.09355   0.00000  Uiso   1.00
C99    C     0.50037   0.16677   0.38383   0.00000  Uiso   1.00
C100   C     0.49932   0.16636   0.11643   0.00000  Uiso   1.00
C101   C     0.46958   0.19073   0.40665   0.00000  Uiso   1.00
C102   C     0.53264   0.14733   0.09376   0.00000  Uiso   1.00
C103   C     0.46631   0.18609   0.45318   0.00000  Uiso   1.00
C104   C     0.53130   0.14275   0.04714   0.00000  Uiso   1.00
C105   C     0.49834   0.16368   0.47668   0.00000  Uiso   1.00
C106   C     0.49833   0.16328   0.02361   0.00000  Uiso   1.00
C107   C     0.53054   0.14183   0.45336   0.00000  Uiso   1.00
C108   C     0.46538   0.18365   0.04691   0.00000  Uiso   1.00
C109   C     0.43217   0.20277   0.47705   0.00000  Uiso   1.00
C110   C     0.56191   0.11876   0.02314   0.00000  Uiso   1.00
Cu111  Cu    0.50000   0.21355   0.25000   0.00000  Uiso   1.00
Cu112  Cu    0.50000   0.11978   0.25000   0.00000  Uiso   1.00
H113   H     0.40599   0.21562   0.04031   0.00000  Uiso   1.00
H114   H     0.58536   0.10040   0.45984   0.00000  Uiso   1.00
H115   H     0.46652   0.04321   0.19003   0.00000  Uiso   1.00
H116   H     0.53244   0.29017   0.31059   0.00000  Uiso   1.00
H117   H     0.53305   0.04352   0.31025   0.00000  Uiso   1.00
H118   H     0.46692   0.28978   0.18977   0.00000  Uiso   1.00
N119   N     0.50000   0.28402   0.25000   0.00000  Uiso   1.00
N120   N     0.50000   0.04931   0.25000   0.00000  Uiso   1.00
O121   O     0.43988   0.20625   0.24999   0.00000  Uiso   1.00
O122   O     0.56012   0.12709   0.25000   0.00000  Uiso   1.00
O123   O     0.56012   0.20625   0.25000   0.00000  Uiso   1.00
O124   O     0.43988   0.12709   0.24999   0.00000  Uiso   1.00
O125   O     0.49999   0.20627   0.18513   0.00000  Uiso   1.00
O126   O     0.50001   0.12707   0.31487   0.00000  Uiso   1.00
O127   O     0.50001   0.20627   0.31487   0.00000  Uiso   1.00
O128   O     0.49999   0.12707   0.18513   0.00000  Uiso   1.00
C129   C     0.56366   0.12036   0.38201   0.00000  Uiso   1.00
N130   N     0.58973   0.10287   0.36229   0.00000  Uiso   1.00
C131   C     0.43151   0.20312   0.11841   0.00000  Uiso   1.00
N132   N     0.40437   0.21806   0.13823   0.00000  Uiso   1.00
O133   O     0.44218   0.21736   0.38256   0.00000  Uiso   1.00
C134   C     0.45461   0.26479   0.38421   0.00000  Uiso   1.00
H135   H     0.48718   0.26898   0.37507   0.00000  Uiso   1.00
H136   H     0.45016   0.27962   0.41800   0.00000  Uiso   1.00
C137   C     0.42921   0.29302   0.35169   0.00000  Uiso   1.00
H138   H     0.43882   0.33029   0.35255   0.00000  Uiso   1.00
H139   H     0.43342   0.27921   0.31757   0.00000  Uiso   1.00
H140   H     0.39656   0.29077   0.36060   0.00000  Uiso   1.00
O141   O     0.56686   0.13412   0.11748   0.00000  Uiso   1.00
C142   C     0.59173   0.17400   0.12413   0.00000  Uiso   1.00
H143   H     0.57946   0.19568   0.15169   0.00000  Uiso   1.00
H144   H     0.59413   0.19613   0.09378   0.00000  Uiso   1.00
C145   C     0.63444   0.15846   0.13666   0.00000  Uiso   1.00
H146   H     0.65211   0.18886   0.14923   0.00000  Uiso   1.00
H147   H     0.63315   0.13128   0.16275   0.00000  Uiso   1.00
H148   H     0.65020   0.14379   0.10725   0.00000  Uiso   1.00
C149   C     0.39510   0.21841   0.45589   0.00000  Uiso   1.00
N150   N     0.36534   0.23087   0.43914   0.00000  Uiso   1.00
C151   C     0.59324   0.09089   0.04400   0.00000  Uiso   1.00
N152   N     0.61826   0.06829   0.06040   0.00000  Uiso   1.00
C153   C     0.37490   0.08054   0.27070   0.00000  Uiso   1.00
N154   N     0.39098   0.04611   0.28066   0.00000  Uiso   1.00
C155   C     0.62614   0.25212   0.27206   0.00000  Uiso   1.00
N156   N     0.61115   0.28669   0.28349   0.00000  Uiso   1.00
C157   C     0.62637   0.07849   0.24630   0.00000  Uiso   1.00
N158   N     0.61091   0.04281   0.23958   0.00000  Uiso   1.00
C159   C     0.37293   0.25389   0.24203   0.00000  Uiso   1.00
N160   N     0.38763   0.28956   0.23369   0.00000  Uiso   1.00
C161   C     0.75405   0.16669   0.25099   0.00000  Uiso   1.00
C162   C     0.91260   0.16656   0.25165   0.00000  Uiso   1.00
C163   C     0.76566   0.20190   0.02311   0.00000  Uiso   1.00
C164   C     0.89466   0.11887   0.47709   0.00000  Uiso   1.00
C165   C     0.68799   0.12398   0.25879   0.00000  Uiso   1.00
C166   C     0.97887   0.20876   0.25858   0.00000  Uiso   1.00
C167   C     0.97920   0.12342   0.25397   0.00000  Uiso   1.00
C168   C     0.68735   0.20921   0.25190   0.00000  Uiso   1.00
C169   C     0.95728   0.16618   0.25479   0.00000  Uiso   1.00
C170   C     0.70938   0.16665   0.25360   0.00000  Uiso   1.00
C171   C     0.81488   0.02469   0.21664   0.00000  Uiso   1.00
C172   C     0.85135   0.30867   0.28360   0.00000  Uiso   1.00
C173   C     0.85154   0.02488   0.28350   0.00000  Uiso   1.00
C174   C     0.81506   0.30845   0.21653   0.00000  Uiso   1.00
C175   C     0.83322   0.16660   0.16459   0.00000  Uiso   1.00
C176   C     0.83331   0.16676   0.33550   0.00000  Uiso   1.00
C177   C     0.86424   0.14245   0.40673   0.00000  Uiso   1.00
C178   C     0.79899   0.18432   0.09355   0.00000  Uiso   1.00
C179   C     0.83371   0.16677   0.38383   0.00000  Uiso   1.00
C180   C     0.83265   0.16636   0.11643   0.00000  Uiso   1.00
C181   C     0.80291   0.19073   0.40665   0.00000  Uiso   1.00
C182   C     0.86597   0.14733   0.09376   0.00000  Uiso   1.00
C183   C     0.79965   0.18609   0.45318   0.00000  Uiso   1.00
C184   C     0.86463   0.14275   0.04714   0.00000  Uiso   1.00
C185   C     0.83168   0.16368   0.47668   0.00000  Uiso   1.00
C186   C     0.83166   0.16328   0.02361   0.00000  Uiso   1.00
C187   C     0.86387   0.14183   0.45336   0.00000  Uiso   1.00
C188   C     0.79872   0.18365   0.04691   0.00000  Uiso   1.00
C189   C     0.76550   0.20277   0.47705   0.00000  Uiso   1.00
C190   C     0.89525   0.11876   0.02314   0.00000  Uiso   1.00
Cu191  Cu    0.83333   0.21355   0.25000   0.00000  Uiso   1.00
Cu192  Cu    0.83333   0.11978   0.25000   0.00000  Uiso   1.00
H193   H     0.73932   0.21562   0.04031   0.00000  Uiso   1.00
H194   H     0.91870   0.10040   0.45984   0.00000  Uiso   1.00
H195   H     0.79985   0.04321   0.19003   0.00000  Uiso   1.00
H196   H     0.86578   0.29017   0.31059   0.00000  Uiso   1.00
H197   H     0.86638   0.04352   0.31025   0.00000  Uiso   1.00
H198   H     0.80025   0.28978   0.18977   0.00000  Uiso   1.00
N199   N     0.83333   0.28402   0.25000   0.00000  Uiso   1.00
N200   N     0.83333   0.04931   0.25000   0.00000  Uiso   1.00
O201   O     0.77321   0.20625   0.24999   0.00000  Uiso   1.00
O202   O     0.89345   0.12709   0.25000   0.00000  Uiso   1.00
O203   O     0.89345   0.20625   0.25000   0.00000  Uiso   1.00
O204   O     0.77321   0.12709   0.24999   0.00000  Uiso   1.00
O205   O     0.83332   0.20627   0.18513   0.00000  Uiso   1.00
O206   O     0.83334   0.12707   0.31487   0.00000  Uiso   1.00
O207   O     0.83334   0.20627   0.31487   0.00000  Uiso   1.00
O208   O     0.83332   0.12707   0.18513   0.00000  Uiso   1.00
C209   C     0.89699   0.12036   0.38201   0.00000  Uiso   1.00
N210   N     0.92306   0.10287   0.36229   0.00000  Uiso   1.00
C211   C     0.76485   0.20312   0.11841   0.00000  Uiso   1.00
N212   N     0.73770   0.21806   0.13823   0.00000  Uiso   1.00
O213   O     0.77551   0.21736   0.38256   0.00000  Uiso   1.00
C214   C     0.78795   0.26479   0.38421   0.00000  Uiso   1.00
H215   H     0.82051   0.26898   0.37507   0.00000  Uiso   1.00
H216   H     0.78349   0.27962   0.41800   0.00000  Uiso   1.00
C217   C     0.76254   0.29302   0.35169   0.00000  Uiso   1.00
H218   H     0.77215   0.33029   0.35255   0.00000  Uiso   1.00
H219   H     0.76675   0.27921   0.31757   0.00000  Uiso   1.00
H220   H     0.72989   0.29077   0.36060   0.00000  Uiso   1.00
O221   O     0.90019   0.13412   0.11748   0.00000  Uiso   1.00
C222   C     0.92506   0.17400   0.12413   0.00000  Uiso   1.00
H223   H     0.91280   0.19568   0.15169   0.00000  Uiso   1.00
H224   H     0.92746   0.19613   0.09378   0.00000  Uiso   1.00
C225   C     0.96778   0.15846   0.13666   0.00000  Uiso   1.00
H226   H     0.98544   0.18886   0.14923   0.00000  Uiso   1.00
H227   H     0.96649   0.13128   0.16275   0.00000  Uiso   1.00
H228   H     0.98353   0.14379   0.10725   0.00000  Uiso   1.00
C229   C     0.72843   0.21841   0.45589   0.00000  Uiso   1.00
N230   N     0.69867   0.23087   0.43914   0.00000  Uiso   1.00
C231   C     0.92657   0.09089   0.04400   0.00000  Uiso   1.00
N232   N     0.95159   0.06829   0.06040   0.00000  Uiso   1.00
C233   C     0.70823   0.08054   0.27070   0.00000  Uiso   1.00
N234   N     0.72431   0.04611   0.28066   0.00000  Uiso   1.00
C235   C     0.95947   0.25212   0.27206   0.00000  Uiso   1.00
N236   N     0.94448   0.28669   0.28349   0.00000  Uiso   1.00
C237   C     0.95970   0.07849   0.24630   0.00000  Uiso   1.00
N238   N     0.94424   0.04281   0.23958   0.00000  Uiso   1.00
C239   C     0.70626   0.25389   0.24203   0.00000  Uiso   1.00
N240   N     0.72097   0.28956   0.23369   0.00000  Uiso   1.00
C241   C     0.08738   0.50002   0.25099   0.00000  Uiso   1.00
C242   C     0.24594   0.49990   0.25165   0.00000  Uiso   1.00
C243   C     0.09899   0.53523   0.02311   0.00000  Uiso   1.00
C244   C     0.22799   0.45220   0.47709   0.00000  Uiso   1.00
C245   C     0.02132   0.45731   0.25879   0.00000  Uiso   1.00
C246   C     0.31220   0.54210   0.25858   0.00000  Uiso   1.00
C247   C     0.31253   0.45675   0.25397   0.00000  Uiso   1.00
C248   C     0.02068   0.54255   0.25190   0.00000  Uiso   1.00
C249   C     0.29061   0.49951   0.25479   0.00000  Uiso   1.00
C250   C     0.04272   0.49998   0.25360   0.00000  Uiso   1.00
C251   C     0.14821   0.35802   0.21664   0.00000  Uiso   1.00
C252   C     0.18468   0.64200   0.28360   0.00000  Uiso   1.00
C253   C     0.18487   0.35822   0.28350   0.00000  Uiso   1.00
C254   C     0.14839   0.64178   0.21653   0.00000  Uiso   1.00
C255   C     0.16655   0.49993   0.16459   0.00000  Uiso   1.00
C256   C     0.16665   0.50010   0.33550   0.00000  Uiso   1.00
C257   C     0.19758   0.47578   0.40673   0.00000  Uiso   1.00
C258   C     0.13232   0.51766   0.09355   0.00000  Uiso   1.00
C259   C     0.16704   0.50010   0.38383   0.00000  Uiso   1.00
C260   C     0.16599   0.49970   0.11643   0.00000  Uiso   1.00
C261   C     0.13624   0.52407   0.40665   0.00000  Uiso   1.00
C262   C     0.19930   0.48066   0.09376   0.00000  Uiso   1.00
C263   C     0.13298   0.51942   0.45318   0.00000  Uiso   1.00
C264   C     0.19797   0.47609   0.04714   0.00000  Uiso   1.00
C265   C     0.16501   0.49702   0.47668   0.00000  Uiso   1.00
C266   C     0.16499   0.49661   0.02361   0.00000  Uiso   1.00
C267   C     0.19721   0.47517   0.45336   0.00000  Uiso   1.00
C268   C     0.13205   0.51698   0.04691   0.00000  Uiso   1.00
C269   C     0.09884   0.53610   0.47705   0.00000  Uiso   1.00
C270   C     0.22858   0.45209   0.02314   0.00000  Uiso   1.00
Cu271  Cu    0.16667   0.54689   0.25000   0.00000  Uiso   1.00
Cu272  Cu    0.16667   0.45311   0.25000   0.00000  Uiso   1.00
H273   H     0.07265   0.54895   0.04031   0.00000  Uiso   1.00
H274   H     0.25203   0.43373   0.45984   0.00000  Uiso   1.00
H275   H     0.13319   0.37654   0.19003   0.00000  Uiso   1.00
H276   H     0.19911   0.62351   0.31059   0.00000  Uiso   1.00
H277   H     0.19971   0.37685   0.31025   0.00000  Uiso   1.00
H278   H     0.13358   0.62311   0.18977   0.00000  Uiso   1.00
N279   N     0.16667   0.61736   0.25000   0.00000  Uiso   1.00
N280   N     0.16667   0.38264   0.25000   0.00000  Uiso   1.00
O281   O     0.10655   0.53958   0.24999   0.00000  Uiso   1.00
O282   O     0.22679   0.46042   0.25000   0.00000  Uiso   1.00
O283   O     0.22679   0.53958   0.25000   0.00000  Uiso   1.00
O284   O     0.10655   0.46042   0.24999   0.00000  Uiso   1.00
O285   O     0.16666   0.53960   0.18513   0.00000  Uiso   1.00
O286   O     0.16668   0.46040   0.31487   0.00000  Uiso   1.00
O287   O     0.16668   0.53960   0.31487   0.00000  Uiso   1.00
O288   O     0.16666   0.46040   0.18513   0.00000  Uiso   1.00
C289   C     0.23033   0.45369   0.38201   0.00000  Uiso   1.00
N290   N     0.25640   0.43620   0.36229   0.00000  Uiso   1.00
C291   C     0.09818   0.53645   0.11841   0.00000  Uiso   1.00
N292   N     0.07103   0.55139   0.13823   0.00000  Uiso   1.00
O293   O     0.10885   0.55069   0.38256   0.00000  Uiso   1.00
C294   C     0.12128   0.59812   0.38421   0.00000  Uiso   1.00
H295   H     0.15385   0.60232   0.37507   0.00000  Uiso   1.00
H296   H     0.11683   0.61296   0.41800   0.00000  Uiso   1.00
C297   C     0.09587   0.62635   0.35169   0.00000  Uiso   1.00
H298   H     0.10548   0.66362   0.35255   0.00000  Uiso   1.00
H299   H     0.10009   0.61254   0.31757   0.00000  Uiso   1.00
H300   H     0.06322   0.62410   0.36060   0.00000  Uiso   1.00
O301   O     0.23353   0.46745   0.11748   0.00000  Uiso   1.00
C302   C     0.25840   0.50733   0.12413   0.00000  Uiso   1.00
H303   H     0.24613   0.52902   0.15169   0.00000  Uiso   1.00
H304   H     0.26079   0.52946   0.09378   0.00000  Uiso   1.00
C305   C     0.30111   0.49180   0.13666   0.00000  Uiso   1.00
H306   H     0.31878   0.52220   0.14923   0.00000  Uiso   1.00
H307   H     0.29982   0.46461   0.16275   0.00000  Uiso   1.00
H308   H     0.31687   0.47712   0.10725   0.00000  Uiso   1.00
C309   C     0.06176   0.55175   0.45589   0.00000  Uiso   1.00
N310   N     0.03201   0.56420   0.43914   0.00000  Uiso   1.00
C311   C     0.25990   0.42422   0.04400   0.00000  Uiso   1.00
N312   N     0.28493   0.40162   0.06040   0.00000  Uiso   1.00
C313   C     0.04157   0.41388   0.27070   0.00000  Uiso   1.00
N314   N     0.05764   0.37945   0.28066   0.00000  Uiso   1.00
C315   C     0.29280   0.58545   0.27206   0.00000  Uiso   1.00
N316   N     0.27781   0.62002   0.28349   0.00000  Uiso   1.00
C317   C     0.29303   0.41183   0.24630   0.00000  Uiso   1.00
N318   N     0.27757   0.37614   0.23958   0.00000  Uiso   1.00
C319   C     0.03960   0.58723   0.24203   0.00000  Uiso   1.00
N320   N     0.05430   0.62289   0.23369   0.00000  Uiso   1.00
C321   C     0.42072   0.50002   0.25099   0.00000  Uiso   1.00
C322   C     0.57927   0.49990   0.25165   0.00000  Uiso   1.00
C323   C     0.43232   0.53523   0.02311   0.00000  Uiso   1.00
C324   C     0.56132   0.45220   0.47709   0.00000  Uiso   1.00
C325   C     0.35466   0.45731   0.25879   0.00000  Uiso   1.00
C326   C     0.64553   0.54210   0.25858   0.00000  Uiso   1.00
C327   C     0.64587   0.45675   0.25397   0.00000  Uiso   1.00
C328   C     0.35401   0.54255   0.25190   0.00000  Uiso   1.00
C329   C     0.62395   0.49951   0.25479   0.00000  Uiso   1.00
C330   C     0.37605   0.49998   0.25360   0.00000  Uiso   1.00
C331   C     0.48154   0.35802   0.21664   0.00000  Uiso   1.00
C332   C     0.51801   0.64200   0.28360   0.00000  Uiso   1.00
C333   C     0.51821   0.35822   0.28350   0.00000  Uiso   1.00
C334   C     0.48173   0.64178   0.21653   0.00000  Uiso   1.00
C335   C     0.49988   0.49993   0.16459   0.00000  Uiso   1.00
C336   C     0.49998   0.50010   0.33550   0.00000  Uiso   1.00
C337   C     0.53091   0.47578   0.40673   0.00000  Uiso   1.00
C338   C     0.46565   0.51766   0.09355   0.00000  Uiso   1.00
C339   C     0.50037   0.50010   0.38383   0.00000  Uiso   1.00
C340   C     0.49932   0.49970   0.11643   0.00000  Uiso   1.00
C341   C     0.46958   0.52407   0.40665   0.00000  Uiso   1.00
C342   C     0.53264   0.48066   0.09376   0.00000  Uiso   1.00
C343   C     0.46631   0.51942   0.45318   0.00000  Uiso   1.00
C344   C     0.53130   0.47609   0.04714   0.00000  Uiso   1.00
C345   C     0.49834   0.49702   0.47668   0.00000  Uiso   1.00
C346   C     0.49833   0.49661   0.02361   0.00000  Uiso   1.00
C347   C     0.53054   0.47517   0.45336   0.00000  Uiso   1.00
C348   C     0.46538   0.51698   0.04691   0.00000  Uiso   1.00
C349   C     0.43217   0.53610   0.47705   0.00000  Uiso   1.00
C350   C     0.56191   0.45209   0.02314   0.00000  Uiso   1.00
Cu351  Cu    0.50000   0.54689   0.25000   0.00000  Uiso   1.00
Cu352  Cu    0.50000   0.45311   0.25000   0.00000  Uiso   1.00
H353   H     0.40599   0.54895   0.04031   0.00000  Uiso   1.00
H354   H     0.58536   0.43373   0.45984   0.00000  Uiso   1.00
H355   H     0.46652   0.37654   0.19003   0.00000  Uiso   1.00
H356   H     0.53244   0.62351   0.31059   0.00000  Uiso   1.00
H357   H     0.53305   0.37685   0.31025   0.00000  Uiso   1.00
H358   H     0.46692   0.62311   0.18977   0.00000  Uiso   1.00
N359   N     0.50000   0.61736   0.25000   0.00000  Uiso   1.00
N360   N     0.50000   0.38264   0.25000   0.00000  Uiso   1.00
O361   O     0.43988   0.53958   0.24999   0.00000  Uiso   1.00
O362   O     0.56012   0.46042   0.25000   0.00000  Uiso   1.00
O363   O     0.56012   0.53958   0.25000   0.00000  Uiso   1.00
O364   O     0.43988   0.46042   0.24999   0.00000  Uiso   1.00
O365   O     0.49999   0.53960   0.18513   0.00000  Uiso   1.00
O366   O     0.50001   0.46040   0.31487   0.00000  Uiso   1.00
O367   O     0.50001   0.53960   0.31487   0.00000  Uiso   1.00
O368   O     0.49999   0.46040   0.18513   0.00000  Uiso   1.00
C369   C     0.56366   0.45369   0.38201   0.00000  Uiso   1.00
N370   N     0.58973   0.43620   0.36229   0.00000  Uiso   1.00
C371   C     0.43151   0.53645   0.11841   0.00000  Uiso   1.00
N372   N     0.40437   0.55139   0.13823   0.00000  Uiso   1.00
O373   O     0.44218   0.55069   0.38256   0.00000  Uiso   1.00
C374   C     0.45461   0.59812   0.38421   0.00000  Uiso   1.00
H375   H     0.48718   0.60232   0.37507   0.00000  Uiso   1.00
H376   H     0.45016   0.61296   0.41800   0.00000  Uiso   1.00
C377   C     0.42921   0.62635   0.35169   0.00000  Uiso   1.00
H378   H     0.43882   0.66362   0.35255   0.00000  Uiso   1.00
H379   H     0.43342   0.61254   0.31757   0.00000  Uiso   1.00
H380   H     0.39656   0.62410   0.36060   0.00000  Uiso   1.00
O381   O     0.56686   0.46745   0.11748   0.00000  Uiso   1.00
C382   C     0.59173   0.50733   0.12413   0.00000  Uiso   1.00
H383   H     0.57946   0.52902   0.15169   0.00000  Uiso   1.00
H384   H     0.59413   0.52946   0.09378   0.00000  Uiso   1.00
C385   C     0.63444   0.49180   0.13666   0.00000  Uiso   1.00
H386   H     0.65211   0.52220   0.14923   0.00000  Uiso   1.00
H387   H     0.63315   0.46461   0.16275   0.00000  Uiso   1.00
H388   H     0.65020   0.47712   0.10725   0.00000  Uiso   1.00
C389   C     0.39510   0.55175   0.45589   0.00000  Uiso   1.00
N390   N     0.36534   0.56420   0.43914   0.00000  Uiso   1.00
C391   C     0.59324   0.42422   0.04400   0.00000  Uiso   1.00
N392   N     0.61826   0.40162   0.06040   0.00000  Uiso   1.00
C393   C     0.37490   0.41388   0.27070   0.00000  Uiso   1.00
N394   N     0.39098   0.37945   0.28066   0.00000  Uiso   1.00
C395   C     0.62614   0.58545   0.27206   0.00000  Uiso   1.00
N396   N     0.61115   0.62002   0.28349   0.00000  Uiso   1.00
C397   C     0.62637   0.41183   0.24630   0.00000  Uiso   1.00
N398   N     0.61091   0.37614   0.23958   0.00000  Uiso   1.00
C399   C     0.37293   0.58723   0.24203   0.00000  Uiso   1.00
N400   N     0.38763   0.62289   0.23369   0.00000  Uiso   1.00
C401   C     0.75405   0.50002   0.25099   0.00000  Uiso   1.00
C402   C     0.91260   0.49990   0.25165   0.00000  Uiso   1.00
C403   C     0.76566   0.53523   0.02311   0.00000  Uiso   1.00
C404   C     0.89466   0.45220   0.47709   0.00000  Uiso   1.00
C405   C     0.68799   0.45731   0.25879   0.00000  Uiso   1.00
C406   C     0.97887   0.54210   0.25858   0.00000  Uiso   1.00
C407   C     0.97920   0.45675   0.25397   0.00000  Uiso   1.00
C408   C     0.68735   0.54255   0.25190   0.00000  Uiso   1.00
C409   C     0.95728   0.49951   0.25479   0.00000  Uiso   1.00
C410   C     0.70938   0.49998   0.25360   0.00000  Uiso   1.00
C411   C     0.81488   0.35802   0.21664   0.00000  Uiso   1.00
C412   C     0.85135   0.64200   0.28360   0.00000  Uiso   1.00
C413   C     0.85154   0.35822   0.28350   0.00000  Uiso   1.00
C414   C     0.81506   0.64178   0.21653   0.00000  Uiso   1.00
C415   C     0.83322   0.49993   0.16459   0.00000  Uiso   1.00
C416   C     0.83331   0.50010   0.33550   0.00000  Uiso   1.00
C417   C     0.86424   0.47578   0.40673   0.00000  Uiso   1.00
C418   C     0.79899   0.51766   0.09355   0.00000  Uiso   1.00
C419   C     0.83371   0.50010   0.38383   0.00000  Uiso   1.00
C420   C     0.83265   0.49970   0.11643   0.00000  Uiso   1.00
C421   C     0.80291   0.52407   0.40665   0.00000  Uiso   1.00
C422   C     0.86597   0.48066   0.09376   0.00000  Uiso   1.00
C423   C     0.79965   0.51942   0.45318   0.00000  Uiso   1.00
C424   C     0.86463   0.47609   0.04714   0.00000  Uiso   1.00
C425   C     0.83168   0.49702   0.47668   0.00000  Uiso   1.00
C426   C     0.83166   0.49661   0.02361   0.00000  Uiso   1.00
C427   C     0.86387   0.47517   0.45336   0.00000  Uiso   1.00
C428   C     0.79872   0.51698   0.04691   0.00000  Uiso   1.00
C429   C     0.76550   0.53610   0.47705   0.00000  Uiso   1.00
C430   C     0.89525   0.45209   0.02314   0.00000  Uiso   1.00
Cu431  Cu    0.83333   0.54689   0.25000   0.00000  Uiso   1.00
Cu432  Cu    0.83333   0.45311   0.25000   0.00000  Uiso   1.00
H433   H     0.73932   0.54895   0.04031   0.00000  Uiso   1.00
H434   H     0.91870   0.43373   0.45984   0.00000  Uiso   1.00
H435   H     0.79985   0.37654   0.19003   0.00000  Uiso   1.00
H436   H     0.86578   0.62351   0.31059   0.00000  Uiso   1.00
H437   H     0.86638   0.37685   0.31025   0.00000  Uiso   1.00
H438   H     0.80025   0.62311   0.18977   0.00000  Uiso   1.00
N439   N     0.83333   0.61736   0.25000   0.00000  Uiso   1.00
N440   N     0.83333   0.38264   0.25000   0.00000  Uiso   1.00
O441   O     0.77321   0.53958   0.24999   0.00000  Uiso   1.00
O442   O     0.89345   0.46042   0.25000   0.00000  Uiso   1.00
O443   O     0.89345   0.53958   0.25000   0.00000  Uiso   1.00
O444   O     0.77321   0.46042   0.24999   0.00000  Uiso   1.00
O445   O     0.83332   0.53960   0.18513   0.00000  Uiso   1.00
O446   O     0.83334   0.46040   0.31487   0.00000  Uiso   1.00
O447   O     0.83334   0.53960   0.31487   0.00000  Uiso   1.00
O448   O     0.83332   0.46040   0.18513   0.00000  Uiso   1.00
C449   C     0.89699   0.45369   0.38201   0.00000  Uiso   1.00
N450   N     0.92306   0.43620   0.36229   0.00000  Uiso   1.00
C451   C     0.76485   0.53645   0.11841   0.00000  Uiso   1.00
N452   N     0.73770   0.55139   0.13823   0.00000  Uiso   1.00
O453   O     0.77551   0.55069   0.38256   0.00000  Uiso   1.00
C454   C     0.78795   0.59812   0.38421   0.00000  Uiso   1.00
H455   H     0.82051   0.60232   0.37507   0.00000  Uiso   1.00
H456   H     0.78349   0.61296   0.41800   0.00000  Uiso   1.00
C457   C     0.76254   0.62635   0.35169   0.00000  Uiso   1.00
H458   H     0.77215   0.66362   0.35255   0.00000  Uiso   1.00
H459   H     0.76675   0.61254   0.31757   0.00000  Uiso   1.00
H460   H     0.72989   0.62410   0.36060   0.00000  Uiso   1.00
O461   O     0.90019   0.46745   0.11748   0.00000  Uiso   1.00
C462   C     0.92506   0.50733   0.12413   0.00000  Uiso   1.00
H463   H     0.91280   0.52902   0.15169   0.00000  Uiso   1.00
H464   H     0.92746   0.52946   0.09378   0.00000  Uiso   1.00
C465   C     0.96778   0.49180   0.13666   0.00000  Uiso   1.00
H466   H     0.98544   0.52220   0.14923   0.00000  Uiso   1.00
H467   H     0.96649   0.46461   0.16275   0.00000  Uiso   1.00
H468   H     0.98353   0.47712   0.10725   0.00000  Uiso   1.00
C469   C     0.72843   0.55175   0.45589   0.00000  Uiso   1.00
N470   N     0.69867   0.56420   0.43914   0.00000  Uiso   1.00
C471   C     0.92657   0.42422   0.04400   0.00000  Uiso   1.00
N472   N     0.95159   0.40162   0.06040   0.00000  Uiso   1.00
C473   C     0.70823   0.41388   0.27070   0.00000  Uiso   1.00
N474   N     0.72431   0.37945   0.28066   0.00000  Uiso   1.00
C475   C     0.95947   0.58545   0.27206   0.00000  Uiso   1.00
N476   N     0.94448   0.62002   0.28349   0.00000  Uiso   1.00
C477   C     0.95970   0.41183   0.24630   0.00000  Uiso   1.00
N478   N     0.94424   0.37614   0.23958   0.00000  Uiso   1.00
C479   C     0.70626   0.58723   0.24203   0.00000  Uiso   1.00
N480   N     0.72097   0.62289   0.23369   0.00000  Uiso   1.00
C481   C     0.08738   0.83335   0.25099   0.00000  Uiso   1.00
C482   C     0.24594   0.83323   0.25165   0.00000  Uiso   1.00
C483   C     0.09899   0.86856   0.02311   0.00000  Uiso   1.00
C484   C     0.22799   0.78553   0.47709   0.00000  Uiso   1.00
C485   C     0.02132   0.79065   0.25879   0.00000  Uiso   1.00
C486   C     0.31220   0.87543   0.25858   0.00000  Uiso   1.00
C487   C     0.31253   0.79008   0.25397   0.00000  Uiso   1.00
C488   C     0.02068   0.87588   0.25190   0.00000  Uiso   1.00
C489   C     0.29061   0.83285   0.25479   0.00000  Uiso   1.00
C490   C     0.04272   0.83332   0.25360   0.00000  Uiso   1.00
C491   C     0.14821   0.69136   0.21664   0.00000  Uiso   1.00
C492   C     0.18468   0.97533   0.28360   0.00000  Uiso   1.00
C493   C     0.18487   0.69155   0.28350   0.00000  Uiso   1.00
C494   C     0.14839   0.97512   0.21653   0.00000  Uiso   1.00
C495   C     0.16655   0.83326   0.16459   0.00000  Uiso   1.00
C496   C     0.16665   0.83343   0.33550   0.00000  Uiso   1.00
C497   C     0.19758   0.80911   0.40673   0.00000  Uiso   1.00
C498   C     0.13232   0.85099   0.09355   0.00000  Uiso   1.00
C499   C     0.16704   0.83343   0.38383   0.00000  Uiso   1.00
C500   C     0.16599   0.83303   0.11643   0.00000  Uiso   1.00
C501   C     0.13624   0.85740   0.40665   0.00000  Uiso   1.00
C502   C     0.19930   0.81400   0.09376   0.00000  Uiso   1.00
C503   C     0.13298   0.85276   0.45318   0.00000  Uiso   1.00
C504   C     0.19797   0.80942   0.04714   0.00000  Uiso   1.00
C505   C     0.16501   0.83035   0.47668   0.00000  Uiso   1.00
C506   C     0.16499   0.82995   0.02361   0.00000  Uiso   1.00
C507   C     0.19721   0.80850   0.45336   0.00000  Uiso   1.00
C508   C     0.13205   0.85032   0.04691   0.00000  Uiso   1.00
C509   C     0.09884   0.86943   0.47705   0.00000  Uiso   1.00
C510   C     0.22858   0.78543   0.02314   0.00000  Uiso   1.00
Cu511  Cu    0.16667   0.88022   0.25000   0.00000  Uiso   1.00
Cu512  Cu    0.16667   0.78645   0.25000   0.00000  Uiso   1.00
H513   H     0.07265   0.88229   0.04031   0.00000  Uiso   1.00
H514   H     0.25203   0.76706   0.45984   0.00000  Uiso   1.00
H515   H     0.13319   0.70987   0.19003   0.00000  Uiso   1.00
H516   H     0.19911   0.95684   0.31059   0.00000  Uiso   1.00
H517   H     0.19971   0.71018   0.31025   0.00000  Uiso   1.00
H518   H     0.13358   0.95645   0.18977   0.00000  Uiso   1.00
N519   N     0.16667   0.95069   0.25000   0.00000  Uiso   1.00
N520   N     0.16667   0.71598   0.25000   0.00000  Uiso   1.00
O521   O     0.10655   0.87291   0.24999   0.00000  Uiso   1.00
O522   O     0.22679   0.79375   0.25000   0.00000  Uiso   1.00
O523   O     0.22679   0.87291   0.25000   0.00000  Uiso   1.00
O524   O     0.10655   0.79375   0.24999   0.00000  Uiso   1.00
O525   O     0.16666   0.87293   0.18513   0.00000  Uiso   1.00
O526   O     0.16668   0.79373   0.31487   0.00000  Uiso   1.00
O527   O     0.16668   0.87293   0.31487   0.00000  Uiso   1.00
O528   O     0.16666   0.79373   0.18513   0.00000  Uiso   1.00
C529   C     0.23033   0.78702   0.38201   0.00000  Uiso   1.00
N530   N     0.25640   0.76953   0.36229   0.00000  Uiso   1.00
C531   C     0.09818   0.86978   0.11841   0.00000  Uiso   1.00
N532   N     0.07103   0.88473   0.13823   0.00000  Uiso   1.00
O533   O     0.10885   0.88402   0.38256   0.00000  Uiso   1.00
C534   C     0.12128   0.93145   0.38421   0.00000  Uiso   1.00
H535   H     0.15385   0.93565   0.37507   0.00000  Uiso   1.00
H536   H     0.11683   0.94629   0.41800   0.00000  Uiso   1.00
C537   C     0.09587   0.95969   0.35169   0.00000  Uiso   1.00
H538   H     0.10548   0.99695   0.35255   0.00000  Uiso   1.00
H539   H     0.10009   0.94588   0.31757   0.00000  Uiso   1.00
H540   H     0.06322   0.95744   0.36060   0.00000  Uiso   1.00
O541   O     0.23353   0.80079   0.11748   0.00000  Uiso   1.00
C542   C     0.25840   0.84067   0.12413   0.00000  Uiso   1.00
H543   H     0.24613   0.86235   0.15169   0.00000  Uiso   1.00
H544   H     0.26079   0.86279   0.09378   0.00000  Uiso   1.00
C545   C     0.30111   0.82513   0.13666   0.00000  Uiso   1.00
H546   H     0.31878   0.85553   0.14923   0.00000  Uiso   1.00
H547   H     0.29982   0.79795   0.16275   0.00000  Uiso   1.00
H548   H     0.31687   0.81045   0.10725   0.00000  Uiso   1.00
C549   C     0.06176   0.88508   0.45589   0.00000  Uiso   1.00
N550   N     0.03201   0.89753   0.43914   0.00000  Uiso   1.00
C551   C     0.25990   0.75755   0.04400   0.00000  Uiso   1.00
N552   N     0.28493   0.73495   0.06040   0.00000  Uiso   1.00
C553   C     0.04157   0.74721   0.27070   0.00000  Uiso   1.00
N554   N     0.05764   0.71278   0.28066   0.00000  Uiso   1.00
C555   C     0.29280   0.91878   0.27206   0.00000  Uiso   1.00
N556   N     0.27781   0.95335   0.28349   0.00000  Uiso   1.00
C557   C     0.29303   0.74516   0.24630   0.00000  Uiso   1.00
N558   N     0.27757   0.70947   0.23958   0.00000  Uiso   1.00
C559   C     0.03960   0.92056   0.24203   0.00000  Uiso   1.00
N560   N     0.05430   0.95623   0.23369   0.00000  Uiso   1.00
C561   C     0.42072   0.83335   0.25099   0.00000  Uiso   1.00
C562   C     0.57927   0.83323   0.25165   0.00000  Uiso   1.00
C563   C     0.43232   0.86856   0.02311   0.00000  Uiso   1.00
C564   C     0.56132   0.78553   0.47709   0.00000  Uiso   1.00
C565   C     0.35466   0.79065   0.25879   0.00000  Uiso   1.00
C566   C     0.64553   0.87543   0.25858   0.00000  Uiso   1.00
C567   C     0.64587   0.79008   0.25397   0.00000  Uiso   1.00
C568   C     0.35401   0.87588   0.25190   0.00000  Uiso   1.00
C569   C     0.62395   0.83285   0.25479   0.00000  Uiso   1.00
C570   C     0.37605   0.83332   0.25360   0.00000  Uiso   1.00
C571   C     0.48154   0.69136   0.21664   0.00000  Uiso   1.00
C572   C     0.51801   0.97533   0.28360   0.00000  Uiso   1.00
C573   C     0.51821   0.69155   0.28350   0.00000  Uiso   1.00
C574   C     0.48173   0.97512   0.21653   0.00000  Uiso   1.00
C575   C     0.49988   0.83326   0.16459   0.00000  Uiso   1.00
C576   C     0.49998   0.83343   0.33550   0.00000  Uiso   1.00
C577   C     0.53091   0.80911   0.40673   0.00000  Uiso   1.00
C578   C     0.46565   0.85099   0.09355   0.00000  Uiso   1.00
C579   C     0.50037   0.83343   0.38383   0.00000  Uiso   1.00
C580   C     0.49932   0.83303   0.11643   0.00000  Uiso   1.00
C581   C     0.46958   0.85740   0.40665   0.00000  Uiso   1.00
C582   C     0.53264   0.81400   0.09376   0.00000  Uiso   1.00
C583   C     0.46631   0.85276   0.45318   0.00000  Uiso   1.00
C584   C     0.53130   0.80942   0.04714   0.00000  Uiso   1.00
C585   C     0.49834   0.83035   0.47668   0.00000  Uiso   1.00
C586   C     0.49833   0.82995   0.02361   0.00000  Uiso   1.00
C587   C     0.53054   0.80850   0.45336   0.00000  Uiso   1.00
C588   C     0.46538   0.85032   0.04691   0.00000  Uiso   1.00
C589   C     0.43217   0.86943   0.47705   0.00000  Uiso   1.00
C590   C     0.56191   0.78543   0.02314   0.00000  Uiso   1.00
Cu591  Cu    0.50000   0.88022   0.25000   0.00000  Uiso   1.00
Cu592  Cu    0.50000   0.78645   0.25000   0.00000  Uiso   1.00
H593   H     0.40599   0.88229   0.04031   0.00000  Uiso   1.00
H594   H     0.58536   0.76706   0.45984   0.00000  Uiso   1.00
H595   H     0.46652   0.70987   0.19003   0.00000  Uiso   1.00
H596   H     0.53244   0.95684   0.31059   0.00000  Uiso   1.00
H597   H     0.53305   0.71018   0.31025   0.00000  Uiso   1.00
H598   H     0.46692   0.95645   0.18977   0.00000  Uiso   1.00
N599   N     0.50000   0.95069   0.25000   0.00000  Uiso   1.00
N600   N     0.50000   0.71598   0.25000   0.00000  Uiso   1.00
O601   O     0.43988   0.87291   0.24999   0.00000  Uiso   1.00
O602   O     0.56012   0.79375   0.25000   0.00000  Uiso   1.00
O603   O     0.56012   0.87291   0.25000   0.00000  Uiso   1.00
O604   O     0.43988   0.79375   0.24999   0.00000  Uiso   1.00
O605   O     0.49999   0.87293   0.18513   0.00000  Uiso   1.00
O606   O     0.50001   0.79373   0.31487   0.00000  Uiso   1.00
O607   O     0.50001   0.87293   0.31487   0.00000  Uiso   1.00
O608   O     0.49999   0.79373   0.18513   0.00000  Uiso   1.00
C609   C     0.56366   0.78702   0.38201   0.00000  Uiso   1.00
N610   N     0.58973   0.76953   0.36229   0.00000  Uiso   1.00
C611   C     0.43151   0.86978   0.11841   0.00000  Uiso   1.00
N612   N     0.40437   0.88473   0.13823   0.00000  Uiso   1.00
O613   O     0.44218   0.88402   0.38256   0.00000  Uiso   1.00
C614   C     0.45461   0.93145   0.38421   0.00000  Uiso   1.00
H615   H     0.48718   0.93565   0.37507   0.00000  Uiso   1.00
H616   H     0.45016   0.94629   0.41800   0.00000  Uiso   1.00
C617   C     0.42921   0.95969   0.35169   0.00000  Uiso   1.00
H618   H     0.43882   0.99695   0.35255   0.00000  Uiso   1.00
H619   H     0.43342   0.94588   0.31757   0.00000  Uiso   1.00
H620   H     0.39656   0.95744   0.36060   0.00000  Uiso   1.00
O621   O     0.56686   0.80079   0.11748   0.00000  Uiso   1.00
C622   C     0.59173   0.84067   0.12413   0.00000  Uiso   1.00
H623   H     0.57946   0.86235   0.15169   0.00000  Uiso   1.00
H624   H     0.59413   0.86279   0.09378   0.00000  Uiso   1.00
C625   C     0.63444   0.82513   0.13666   0.00000  Uiso   1.00
H626   H     0.65211   0.85553   0.14923   0.00000  Uiso   1.00
H627   H     0.63315   0.79795   0.16275   0.00000  Uiso   1.00
H628   H     0.65020   0.81045   0.10725   0.00000  Uiso   1.00
C629   C     0.39510   0.88508   0.45589   0.00000  Uiso   1.00
N630   N     0.36534   0.89753   0.43914   0.00000  Uiso   1.00
C631   C     0.59324   0.75755   0.04400   0.00000  Uiso   1.00
N632   N     0.61826   0.73495   0.06040   0.00000  Uiso   1.00
C633   C     0.37490   0.74721   0.27070   0.00000  Uiso   1.00
N634   N     0.39098   0.71278   0.28066   0.00000  Uiso   1.00
C635   C     0.62614   0.91878   0.27206   0.00000  Uiso   1.00
N636   N     0.61115   0.95335   0.28349   0.00000  Uiso   1.00
C637   C     0.62637   0.74516   0.24630   0.00000  Uiso   1.00
N638   N     0.61091   0.70947   0.23958   0.00000  Uiso   1.00
C639   C     0.37293   0.92056   0.24203   0.00000  Uiso   1.00
N640   N     0.38763   0.95623   0.23369   0.00000  Uiso   1.00
C641   C     0.75405   0.83335   0.25099   0.00000  Uiso   1.00
C642   C     0.91260   0.83323   0.25165   0.00000  Uiso   1.00
C643   C     0.76566   0.86856   0.02311   0.00000  Uiso   1.00
C644   C     0.89466   0.78553   0.47709   0.00000  Uiso   1.00
C645   C     0.68799   0.79065   0.25879   0.00000  Uiso   1.00
C646   C     0.97887   0.87543   0.25858   0.00000  Uiso   1.00
C647   C     0.97920   0.79008   0.25397   0.00000  Uiso   1.00
C648   C     0.68735   0.87588   0.25190   0.00000  Uiso   1.00
C649   C     0.95728   0.83285   0.25479   0.00000  Uiso   1.00
C650   C     0.70938   0.83332   0.25360   0.00000  Uiso   1.00
C651   C     0.81488   0.69136   0.21664   0.00000  Uiso   1.00
C652   C     0.85135   0.97533   0.28360   0.00000  Uiso   1.00
C653   C     0.85154   0.69155   0.28350   0.00000  Uiso   1.00
C654   C     0.81506   0.97512   0.21653   0.00000  Uiso   1.00
C655   C     0.83322   0.83326   0.16459   0.00000  Uiso   1.00
C656   C     0.83331   0.83343   0.33550   0.00000  Uiso   1.00
C657   C     0.86424   0.80911   0.40673   0.00000  Uiso   1.00
C658   C     0.79899   0.85099   0.09355   0.00000  Uiso   1.00
C659   C     0.83371   0.83343   0.38383   0.00000  Uiso   1.00
C660   C     0.83265   0.83303   0.11643   0.00000  Uiso   1.00
C661   C     0.80291   0.85740   0.40665   0.00000  Uiso   1.00
C662   C     0.86597   0.81400   0.09376   0.00000  Uiso   1.00
C663   C     0.79965   0.85276   0.45318   0.00000  Uiso   1.00
C664   C     0.86463   0.80942   0.04714   0.00000  Uiso   1.00
C665   C     0.83168   0.83035   0.47668   0.00000  Uiso   1.00
C666   C     0.83166   0.82995   0.02361   0.00000  Uiso   1.00
C667   C     0.86387   0.80850   0.45336   0.00000  Uiso   1.00
C668   C     0.79872   0.85032   0.04691   0.00000  Uiso   1.00
C669   C     0.76550   0.86943   0.47705   0.00000  Uiso   1.00
C670   C     0.89525   0.78543   0.02314   0.00000  Uiso   1.00
Cu671  Cu    0.83333   0.88022   0.25000   0.00000  Uiso   1.00
Cu672  Cu    0.83333   0.78645   0.25000   0.00000  Uiso   1.00
H673   H     0.73932   0.88229   0.04031   0.00000  Uiso   1.00
H674   H     0.91870   0.76706   0.45984   0.00000  Uiso   1.00
H675   H     0.79985   0.70987   0.19003   0.00000  Uiso   1.00
H676   H     0.86578   0.95684   0.31059   0.00000  Uiso   1.00
H677   H     0.86638   0.71018   0.31025   0.00000  Uiso   1.00
H678   H     0.80025   0.95645   0.18977   0.00000  Uiso   1.00
N679   N     0.83333   0.95069   0.25000   0.00000  Uiso   1.00
N680   N     0.83333   0.71598   0.25000   0.00000  Uiso   1.00
O681   O     0.77321   0.87291   0.24999   0.00000  Uiso   1.00
O682   O     0.89345   0.79375   0.25000   0.00000  Uiso   1.00
O683   O     0.89345   0.87291   0.25000   0.00000  Uiso   1.00
O684   O     0.77321   0.79375   0.24999   0.00000  Uiso   1.00
O685   O     0.83332   0.87293   0.18513   0.00000  Uiso   1.00
O686   O     0.83334   0.79373   0.31487   0.00000  Uiso   1.00
O687   O     0.83334   0.87293   0.31487   0.00000  Uiso   1.00
O688   O     0.83332   0.79373   0.18513   0.00000  Uiso   1.00
C689   C     0.89699   0.78702   0.38201   0.00000  Uiso   1.00
N690   N     0.92306   0.76953   0.36229   0.00000  Uiso   1.00
C691   C     0.76485   0.86978   0.11841   0.00000  Uiso   1.00
N692   N     0.73770   0.88473   0.13823   0.00000  Uiso   1.00
O693   O     0.77551   0.88402   0.38256   0.00000  Uiso   1.00
C694   C     0.78795   0.93145   0.38421   0.00000  Uiso   1.00
H695   H     0.82051   0.93565   0.37507   0.00000  Uiso   1.00
H696   H     0.78349   0.94629   0.41800   0.00000  Uiso   1.00
C697   C     0.76254   0.95969   0.35169   0.00000  Uiso   1.00
H698   H     0.77215   0.99695   0.35255   0.00000  Uiso   1.00
H699   H     0.76675   0.94588   0.31757   0.00000  Uiso   1.00
H700   H     0.72989   0.95744   0.36060   0.00000  Uiso   1.00
O701   O     0.90019   0.80079   0.11748   0.00000  Uiso   1.00
C702   C     0.92506   0.84067   0.12413   0.00000  Uiso   1.00
H703   H     0.91280   0.86235   0.15169   0.00000  Uiso   1.00
H704   H     0.92746   0.86279   0.09378   0.00000  Uiso   1.00
C705   C     0.96778   0.82513   0.13666   0.00000  Uiso   1.00
H706   H     0.98544   0.85553   0.14923   0.00000  Uiso   1.00
H707   H     0.96649   0.79795   0.16275   0.00000  Uiso   1.00
H708   H     0.98353   0.81045   0.10725   0.00000  Uiso   1.00
C709   C     0.72843   0.88508   0.45589   0.00000  Uiso   1.00
N710   N     0.69867   0.89753   0.43914   0.00000  Uiso   1.00
C711   C     0.92657   0.75755   0.04400   0.00000  Uiso   1.00
N712   N     0.95159   0.73495   0.06040   0.00000  Uiso   1.00
C713   C     0.70823   0.74721   0.27070   0.00000  Uiso   1.00
N714   N     0.72431   0.71278   0.28066   0.00000  Uiso   1.00
C715   C     0.95947   0.91878   0.27206   0.00000  Uiso   1.00
N716   N     0.94448   0.95335   0.28349   0.00000  Uiso   1.00
C717   C     0.95970   0.74516   0.24630   0.00000  Uiso   1.00
N718   N     0.94424   0.70947   0.23958   0.00000  Uiso   1.00
C719   C     0.70626   0.92056   0.24203   0.00000  Uiso   1.00
N720   N     0.72097   0.95623   0.23369   0.00000  Uiso   1.00
C721   C     0.08738   0.16669   0.75099   0.00000  Uiso   1.00
C722   C     0.24594   0.16656   0.75165   0.00000  Uiso   1.00
C723   C     0.09899   0.20190   0.52311   0.00000  Uiso   1.00
C724   C     0.22799   0.11887   0.97709   0.00000  Uiso   1.00
C725   C     0.02132   0.12398   0.75879   0.00000  Uiso   1.00
C726   C     0.31220   0.20876   0.75858   0.00000  Uiso   1.00
C727   C     0.31253   0.12342   0.75397   0.00000  Uiso   1.00
C728   C     0.02068   0.20921   0.75190   0.00000  Uiso   1.00
C729   C     0.29061   0.16618   0.75479   0.00000  Uiso   1.00
C730   C     0.04272   0.16665   0.75360   0.00000  Uiso   1.00
C731   C     0.14821   0.02469   0.71664   0.00000  Uiso   1.00
C732   C     0.18468   0.30867   0.78360   0.00000  Uiso   1.00
C733   C     0.18487   0.02488   0.78350   0.00000  Uiso   1.00
C734   C     0.14839   0.30845   0.71653   0.00000  Uiso   1.00
C735   C     0.16655   0.16660   0.66459   0.00000  Uiso   1.00
C736   C     0.16665   0.16676   0.83550   0.00000  Uiso   1.00
C737   C     0.19758   0.14245   0.90673   0.00000  Uiso   1.00
C738   C     0.13232   0.18432   0.59355   0.00000  Uiso   1.00
C739   C     0.16704   0.16677   0.88383   0.00000  Uiso   1.00
C740   C     0.16599   0.16636   0.61643   0.00000  Uiso   1.00
C741   C     0.13624   0.19073   0.90665   0.00000  Uiso   1.00
C742   C     0.19930   0.14733   0.59376   0.00000  Uiso   1.00
C743   C     0.13298   0.18609   0.95318   0.00000  Uiso   1.00
C744   C     0.19797   0.14275   0.54714   0.00000  Uiso   1.00
C745   C     0.16501   0.16368   0.97668   0.00000  Uiso   1.00
C746   C     0.16499   0.16328   0.52361   0.00000  Uiso   1.00
C747   C     0.19721   0.14183   0.95336   0.00000  Uiso   1.00
C748   C     0.13205   0.18365   0.54691   0.00000  Uiso   1.00
C749   C     0.09884   0.20277   0.97705   0.00000  Uiso   1.00
C750   C     0.22858   0.11876   0.52314   0.00000  Uiso   1.00
Cu751  Cu    0.16667   0.21355   0.75000   0.00000  Uiso   1.00
Cu752  Cu    0.16667   0.11978   0.75000   0.00000  Uiso   1.00
H753   H     0.07265   0.21562   0.54031   0.00000  Uiso   1.00
H754   H     0.25203   0.10040   0.95984   0.00000  Uiso   1.00
H755   H     0.13319   0.04321   0.69003   0.00000  Uiso   1.00
H756   H     0.19911   0.29017   0.81059   0.00000  Uiso   1.00
H757   H     0.19971   0.04352   0.81025   0.00000  Uiso   1.00
H758   H     0.13358   0.28978   0.68977   0.00000  Uiso   1.00
N759   N     0.16667   0.28402   0.75000   0.00000  Uiso   1.00
N760   N     0.16667   0.04931   0.75000   0.00000  Uiso   1.00
O761   O     0.10655   0.20625   0.74999   0.00000  Uiso   1.00
O762   O     0.22679   0.12709   0.75000   0.00000  Uiso   1.00
O763   O     0.22679   0.20625   0.75000   0.00000  Uiso   1.00
O764   O     0.10655   0.12709   0.74999   0.00000  Uiso   1.00
O765   O     0.16666   0.20627   0.68513   0.00000  Uiso   1.00
O766   O     0.16668   0.12707   0.81487   0.00000  Uiso   1.00
O767   O     0.16668   0.20627   0.81487   0.00000  Uiso   1.00
O768   O     0.16666   0.12707   0.68513   0.00000  Uiso   1.00
C769   C     0.23033   0.12036   0.88201   0.00000  Uiso   1.00
N770   N     0.25640   0.10287   0.86229   0.00000  Uiso   1.00
C771   C     0.09818   0.20312   0.61841   0.00000  Uiso   1.00
N772   N     0.07103   0.21806   0.63823   0.00000  Uiso   1.00
O773   O     0.10885   0.21736   0.88256   0.00000  Uiso   1.00
C774   C     0.12128   0.26479   0.88421   0.00000  Uiso   1.00
H775   H     0.15385   0.26898   0.87507   0.00000  Uiso   1.00
H776   H     0.11683   0.27962   0.91800   0.00000  Uiso   1.00
C777   C     0.09587   0.29302   0.85169   0.00000  Uiso   1.00
H778   H     0.10548   0.33029   0.85255   0.00000  Uiso   1.00
H779   H     0.10009   0.27921   0.81757   0.00000  Uiso   1.00
H780   H     0.06322   0.29077   0.86060   0.00000  Uiso   1.00
O781   O     0.23353   0.13412   0.61748   0.00000  Uiso   1.00
C782   C     0.25840   0.17400   0.62413   0.00000  Uiso   1.00
H783   H     0.24613   0.19568   0.65169   0.00000  Uiso   1.00
H784   H     0.26079   0.19613   0.59378   0.00000  Uiso   1.00
C785   C     0.30111   0.15846   0.63666   0.00000  Uiso   1.00
H786   H     0.31878   0.18886   0.64923   0.00000  Uiso   1.00
H787   H     0.29982   0.13128   0.66275   0.00000  Uiso   1.00
H788   H     0.31687   0.14379   0.60725   0.00000  Uiso   1.00
C789   C     0.06176   0.21841   0.95589   0.00000  Uiso   1.00
N790   N     0.03201   0.23087   0.93914   0.00000  Uiso   1.00
C791   C     0.25990   0.09089   0.54400   0.00000  Uiso   1.00
N792   N     0.28493   0.06829   0.56040   0.00000  Uiso   1.00
C793   C     0.04157   0.08054   0.77070   0.00000  Uiso   1.00
N794   N     0.05764   0.04611   0.78066   0.00000  Uiso   1.00
C795   C     0.29280   0.25212   0.77206   0.00000  Uiso   1.00
N796   N     0.27781   0.28669   0.78349   0.00000  Uiso   1.00
C797   C     0.29303   0.07849   0.74630   0.00000  Uiso   1.00
N798   N     0.27757   0.04281   0.73958   0.00000  Uiso   1.00
C799   C     0.03960   0.25389   0.74203   0.00000  Uiso   1.00
N800   N     0.05430   0.28956   0.73369   0.00000  Uiso   1.00
C801   C     0.42072   0.16669   0.75099   0.00000  Uiso   1.00
C802   C     0.57927   0.16656   0.75165   0.00000  Uiso   1.00
C803   C     0.43232   0.20190   0.52311   0.00000  Uiso   1.00
C804   C     0.56132   0.11887   0.97709   0.00000  Uiso   1.00
C805   C     0.35466   0.12398   0.75879   0.00000  Uiso   1.00
C806   C     0.64553   0.20876   0.75858   0.00000  Uiso   1.00
C807   C     0.64587   0.12342   0.75397   0.00000  Uiso   1.00
C808   C     0.35401   0.20921   0.75190   0.00000  Uiso   1.00
C809   C     0.62395   0.16618   0.75479   0.00000  Uiso   1.00
C810   C     0.37605   0.16665   0.75360   0.00000  Uiso   1.00
C811   C     0.48154   0.02469   0.71664   0.00000  Uiso   1.00
C812   C     0.51801   0.30867   0.78360   0.00000  Uiso   1.00
C813   C     0.51821   0.02488   0.78350   0.00000  Uiso   1.00
C814   C     0.48173   0.30845   0.71653   0.00000  Uiso   1.00
C815   C     0.49988   0.16660   0.66459   0.00000  Uiso   1.00
C816   C     0.49998   0.16676   0.83550   0.00000  Uiso   1.00
C817   C     0.53091   0.14245   0.90673   0.00000  Uiso   1.00
C818   C     0.46565   0.18432   0.59355   0.00000  Uiso   1.00
C819   C     0.50037   0.16677   0.88383   0.00000  Uiso   1.00
C820   C     0.49932   0.16636   0.61643   0.00000  Uiso   1.00
C821   C     0.46958   0.19073   0.90665   0.00000  Uiso   1.00
C822   C     0.53264   0.14733   0.59376   0.00000  Uiso   1.00
C823   C     0.46631   0.18609   0.95318   0.00000  Uiso   1.00
C824   C     0.53130   0.14275   0.54714   0.00000  Uiso   1.00
C825   C     0.49834   0.16368   0.97668   0.00000  Uiso   1.00
C826   C     0.49833   0.16328   0.52361   0.00000  Uiso   1.00
C827   C     0.53054   0.14183   0.95336   0.00000  Uiso   1.00
C828   C     0.46538   0.18365   0.54691   0.00000  Uiso   1.00
C829   C     0.43217   0.20277   0.97705   0.00000  Uiso   1.00
C830   C     0.56191   0.11876   0.52314   0.00000  Uiso   1.00
Cu831  Cu    0.50000   0.21355   0.75000   0.00000  Uiso   1.00
Cu832  Cu    0.50000   0.11978   0.75000   0.00000  Uiso   1.00
H833   H     0.40599   0.21562   0.54031   0.00000  Uiso   1.00
H834   H     0.58536   0.10040   0.95984   0.00000  Uiso   1.00
H835   H     0.46652   0.04321   0.69003   0.00000  Uiso   1.00
H836   H     0.53244   0.29017   0.81059   0.00000  Uiso   1.00
H837   H     0.53305   0.04352   0.81025   0.00000  Uiso   1.00
H838   H     0.46692   0.28978   0.68977   0.00000  Uiso   1.00
N839   N     0.50000   0.28402   0.75000   0.00000  Uiso   1.00
N840   N     0.50000   0.04931   0.75000   0.00000  Uiso   1.00
O841   O     0.43988   0.20625   0.74999   0.00000  Uiso   1.00
O842   O     0.56012   0.12709   0.75000   0.00000  Uiso   1.00
O843   O     0.56012   0.20625   0.75000   0.00000  Uiso   1.00
O844   O     0.43988   0.12709   0.74999   0.00000  Uiso   1.00
O845   O     0.49999   0.20627   0.68513   0.00000  Uiso   1.00
O846   O     0.50001   0.12707   0.81487   0.00000  Uiso   1.00
O847   O     0.50001   0.20627   0.81487   0.00000  Uiso   1.00
O848   O     0.49999   0.12707   0.68513   0.00000  Uiso   1.00
C849   C     0.56366   0.12036   0.88201   0.00000  Uiso   1.00
N850   N     0.58973   0.10287   0.86229   0.00000  Uiso   1.00
C851   C     0.43151   0.20312   0.61841   0.00000  Uiso   1.00
N852   N     0.40437   0.21806   0.63823   0.00000  Uiso   1.00
O853   O     0.44218   0.21736   0.88256   0.00000  Uiso   1.00
C854   C     0.45461   0.26479   0.88421   0.00000  Uiso   1.00
H855   H     0.48718   0.26898   0.87507   0.00000  Uiso   1.00
H856   H     0.45016   0.27962   0.91800   0.00000  Uiso   1.00
C857   C     0.42921   0.29302   0.85169   0.00000  Uiso   1.00
H858   H     0.43882   0.33029   0.85255   0.00000  Uiso   1.00
H859   H     0.43342   0.27921   0.81757   0.00000  Uiso   1.00
H860   H     0.39656   0.29077   0.86060   0.00000  Uiso   1.00
O861   O     0.56686   0.13412   0.61748   0.00000  Uiso   1.00
C862   C     0.59173   0.17400   0.62413   0.00000  Uiso   1.00
H863   H     0.57946   0.19568   0.65169   0.00000  Uiso   1.00
H864   H     0.59413   0.19613   0.59378   0.00000  Uiso   1.00
C865   C     0.63444   0.15846   0.63666   0.00000  Uiso   1.00
H866   H     0.65211   0.18886   0.64923   0.00000  Uiso   1.00
H867   H     0.63315   0.13128   0.66275   0.00000  Uiso   1.00
H868   H     0.65020   0.14379   0.60725   0.00000  Uiso   1.00
C869   C     0.39510   0.21841   0.95589   0.00000  Uiso   1.00
N870   N     0.36534   0.23087   0.93914   0.00000  Uiso   1.00
C871   C     0.59324   0.09089   0.54400   0.00000  Uiso   1.00
N872   N     0.61826   0.06829   0.56040   0.00000  Uiso   1.00
C873   C     0.37490   0.08054   0.77070   0.00000  Uiso   1.00
N874   N     0.39098   0.04611   0.78066   0.00000  Uiso   1.00
C875   C     0.62614   0.25212   0.77206   0.00000  Uiso   1.00
N876   N     0.61115   0.28669   0.78349   0.00000  Uiso   1.00
C877   C     0.62637   0.07849   0.74630   0.00000  Uiso   1.00
N878   N     0.61091   0.04281   0.73958   0.00000  Uiso   1.00
C879   C     0.37293   0.25389   0.74203   0.00000  Uiso   1.00
N880   N     0.38763   0.28956   0.73369   0.00000  Uiso   1.00
C881   C     0.75405   0.16669   0.75099   0.00000  Uiso   1.00
C882   C     0.91260   0.16656   0.75165   0.00000  Uiso   1.00
C883   C     0.76566   0.20190   0.52311   0.00000  Uiso   1.00
C884   C     0.89466   0.11887   0.97709   0.00000  Uiso   1.00
C885   C     0.68799   0.12398   0.75879   0.00000  Uiso   1.00
C886   C     0.97887   0.20876   0.75858   0.00000  Uiso   1.00
C887   C     0.97920   0.12342   0.75397   0.00000  Uiso   1.00
C888   C     0.68735   0.20921   0.75190   0.00000  Uiso   1.00
C889   C     0.95728   0.16618   0.75479   0.00000  Uiso   1.00
C890   C     0.70938   0.16665   0.75360   0.00000  Uiso   1.00
C891   C     0.81488   0.02469   0.71664   0.00000  Uiso   1.00
C892   C     0.85135   0.30867   0.78360   0.00000  Uiso   1.00
C893   C     0.85154   0.02488   0.78350   0.00000  Uiso   1.00
C894   C     0.81506   0.30845   0.71653   0.00000  Uiso   1.00
C895   C     0.83322   0.16660   0.66459   0.00000  Uiso   1.00
C896   C     0.83331   0.16676   0.83550   0.00000  Uiso   1.00
C897   C     0.86424   0.14245   0.90673   0.00000  Uiso   1.00
C898   C     0.79899   0.18432   0.59355   0.00000  Uiso   1.00
C899   C     0.83371   0.16677   0.88383   0.00000  Uiso   1.00
C900   C     0.83265   0.16636   0.61643   0.00000  Uiso   1.00
C901   C     0.80291   0.19073   0.90665   0.00000  Uiso   1.00
C902   C     0.86597   0.14733   0.59376   0.00000  Uiso   1.00
C903   C     0.79965   0.18609   0.95318   0.00000  Uiso   1.00
C904   C     0.86463   0.14275   0.54714   0.00000  Uiso   1.00
C905   C     0.83168   0.16368   0.97668   0.00000  Uiso   1.00
C906   C     0.83166   0.16328   0.52361   0.00000  Uiso   1.00
C907   C     0.86387   0.14183   0.95336   0.00000  Uiso   1.00
C908   C     0.79872   0.18365   0.54691   0.00000  Uiso   1.00
C909   C     0.76550   0.20277   0.97705   0.00000  Uiso   1.00
C910   C     0.89525   0.11876   0.52314   0.00000  Uiso   1.00
Cu911  Cu    0.83333   0.21355   0.75000   0.00000  Uiso   1.00
Cu912  Cu    0.83333   0.11978   0.75000   0.00000  Uiso   1.00
H913   H     0.73932   0.21562   0.54031   0.00000  Uiso   1.00
H914   H     0.91870   0.10040   0.95984   0.00000  Uiso   1.00
H915   H     0.79985   0.04321   0.69003   0.00000  Uiso   1.00
H916   H     0.86578   0.29017   0.81059   0.00000  Uiso   1.00
H917   H     0.86638   0.04352   0.81025   0.00000  Uiso   1.00
H918   H     0.80025   0.28978   0.68977   0.00000  Uiso   1.00
N919   N     0.83333   0.28402   0.75000   0.00000  Uiso   1.00
N920   N     0.83333   0.04931   0.75000   0.00000  Uiso   1.00
O921   O     0.77321   0.20625   0.74999   0.00000  Uiso   1.00
O922   O     0.89345   0.12709   0.75000   0.00000  Uiso   1.00
O923   O     0.89345   0.20625   0.75000   0.00000  Uiso   1.00
O924   O     0.77321   0.12709   0.74999   0.00000  Uiso   1.00
O925   O     0.83332   0.20627   0.68513   0.00000  Uiso   1.00
O926   O     0.83334   0.12707   0.81487   0.00000  Uiso   1.00
O927   O     0.83334   0.20627   0.81487   0.00000  Uiso   1.00
O928   O     0.83332   0.12707   0.68513   0.00000  Uiso   1.00
C929   C     0.89699   0.12036   0.88201   0.00000  Uiso   1.00
N930   N     0.92306   0.10287   0.86229   0.00000  Uiso   1.00
C931   C     0.76485   0.20312   0.61841   0.00000  Uiso   1.00
N932   N     0.73770   0.21806   0.63823   0.00000  Uiso   1.00
O933   O     0.77551   0.21736   0.88256   0.00000  Uiso   1.00
C934   C     0.78795   0.26479   0.88421   0.00000  Uiso   1.00
H935   H     0.82051   0.26898   0.87507   0.00000  Uiso   1.00
H936   H     0.78349   0.27962   0.91800   0.00000  Uiso   1.00
C937   C     0.76254   0.29302   0.85169   0.00000  Uiso   1.00
H938   H     0.77215   0.33029   0.85255   0.00000  Uiso   1.00
H939   H     0.76675   0.27921   0.81757   0.00000  Uiso   1.00
H940   H     0.72989   0.29077   0.86060   0.00000  Uiso   1.00
O941   O     0.90019   0.13412   0.61748   0.00000  Uiso   1.00
C942   C     0.92506   0.17400   0.62413   0.00000  Uiso   1.00
H943   H     0.91280   0.19568   0.65169   0.00000  Uiso   1.00
H944   H     0.92746   0.19613   0.59378   0.00000  Uiso   1.00
C945   C     0.96778   0.15846   0.63666   0.00000  Uiso   1.00
H946   H     0.98544   0.18886   0.64923   0.00000  Uiso   1.00
H947   H     0.96649   0.13128   0.66275   0.00000  Uiso   1.00
H948   H     0.98353   0.14379   0.60725   0.00000  Uiso   1.00
C949   C     0.72843   0.21841   0.95589   0.00000  Uiso   1.00
N950   N     0.69867   0.23087   0.93914   0.00000  Uiso   1.00
C951   C     0.92657   0.09089   0.54400   0.00000  Uiso   1.00
N952   N     0.95159   0.06829   0.56040   0.00000  Uiso   1.00
C953   C     0.70823   0.08054   0.77070   0.00000  Uiso   1.00
N954   N     0.72431   0.04611   0.78066   0.00000  Uiso   1.00
C955   C     0.95947   0.25212   0.77206   0.00000  Uiso   1.00
N956   N     0.94448   0.28669   0.78349   0.00000  Uiso   1.00
C957   C     0.95970   0.07849   0.74630   0.00000  Uiso   1.00
N958   N     0.94424   0.04281   0.73958   0.00000  Uiso   1.00
C959   C     0.70626   0.25389   0.74203   0.00000  Uiso   1.00
N960   N     0.72097   0.28956   0.73369   0.00000  Uiso   1.00
C961   C     0.08738   0.50002   0.75099   0.00000  Uiso   1.00
C962   C     0.24594   0.49990   0.75165   0.00000  Uiso   1.00
C963   C     0.09899   0.53523   0.52311   0.00000  Uiso   1.00
C964   C     0.22799   0.45220   0.97709   0.00000  Uiso   1.00
C965   C     0.02132   0.45731   0.75879   0.00000  Uiso   1.00
C966   C     0.31220   0.54210   0.75858   0.00000  Uiso   1.00
C967   C     0.31253   0.45675   0.75397   0.00000  Uiso   1.00
C968   C     0.02068   0.54255   0.75190   0.00000  Uiso   1.00
C969   C     0.29061   0.49951   0.75479   0.00000  Uiso   1.00
C970   C     0.04272   0.49998   0.75360   0.00000  Uiso   1.00
C971   C     0.14821   0.35802   0.71664   0.00000  Uiso   1.00
C972   C     0.18468   0.64200   0.78360   0.00000  Uiso   1.00
C973   C     0.18487   0.35822   0.78350   0.00000  Uiso   1.00
C974   C     0.14839   0.64178   0.71653   0.00000  Uiso   1.00
C975   C     0.16655   0.49993   0.66459   0.00000  Uiso   1.00
C976   C     0.16665   0.50010   0.83550   0.00000  Uiso   1.00
C977   C     0.19758   0.47578   0.90673   0.00000  Uiso   1.00
C978   C     0.13232   0.51766   0.59355   0.00000  Uiso   1.00
C979   C     0.16704   0.50010   0.88383   0.00000  Uiso   1.00
C980   C     0.16599   0.49970   0.61643   0.00000  Uiso   1.00
C981   C     0.13624   0.52407   0.90665   0.00000  Uiso   1.00
C982   C     0.19930   0.48066   0.59376   0.00000  Uiso   1.00
C983   C     0.13298   0.51942   0.95318   0.00000  Uiso   1.00
C984   C     0.19797   0.47609   0.54714   0.00000  Uiso   1.00
C985   C     0.16501   0.49702   0.97668   0.00000  Uiso   1.00
C986   C     0.16499   0.49661   0.52361   0.00000  Uiso   1.00
C987   C     0.19721   0.47517   0.95336   0.00000  Uiso   1.00
C988   C     0.13205   0.51698   0.54691   0.00000  Uiso   1.00
C989   C     0.09884   0.53610   0.97705   0.00000  Uiso   1.00
C990   C     0.22858   0.45209   0.52314   0.00000  Uiso   1.00
Cu991  Cu    0.16667   0.54689   0.75000   0.00000  Uiso   1.00
Cu992  Cu    0.16667   0.45311   0.75000   0.00000  Uiso   1.00
H993   H     0.07265   0.54895   0.54031   0.00000  Uiso   1.00
H994   H     0.25203   0.43373   0.95984   0.00000  Uiso   1.00
H995   H     0.13319   0.37654   0.69003   0.00000  Uiso   1.00
H996   H     0.19911   0.62351   0.81059   0.00000  Uiso   1.00
H997   H     0.19971   0.37685   0.81025   0.00000  Uiso   1.00
H998   H     0.13358   0.62311   0.68977   0.00000  Uiso   1.00
N999   N     0.16667   0.61736   0.75000   0.00000  Uiso   1.00
N1000  N     0.16667   0.38264   0.75000   0.00000  Uiso   1.00
O1001  O     0.10655   0.53958   0.74999   0.00000  Uiso   1.00
O1002  O     0.22679   0.46042   0.75000   0.00000  Uiso   1.00
O1003  O     0.22679   0.53958   0.75000   0.00000  Uiso   1.00
O1004  O     0.10655   0.46042   0.74999   0.00000  Uiso   1.00
O1005  O     0.16666   0.53960   0.68513   0.00000  Uiso   1.00
O1006  O     0.16668   0.46040   0.81487   0.00000  Uiso   1.00
O1007  O     0.16668   0.53960   0.81487   0.00000  Uiso   1.00
O1008  O     0.16666   0.46040   0.68513   0.00000  Uiso   1.00
C1009  C     0.23033   0.45369   0.88201   0.00000  Uiso   1.00
N1010  N     0.25640   0.43620   0.86229   0.00000  Uiso   1.00
C1011  C     0.09818   0.53645   0.61841   0.00000  Uiso   1.00
N1012  N     0.07103   0.55139   0.63823   0.00000  Uiso   1.00
O1013  O     0.10885   0.55069   0.88256   0.00000  Uiso   1.00
C1014  C     0.12128   0.59812   0.88421   0.00000  Uiso   1.00
H1015  H     0.15385   0.60232   0.87507   0.00000  Uiso   1.00
H1016  H     0.11683   0.61296   0.91800   0.00000  Uiso   1.00
C1017  C     0.09587   0.62635   0.85169   0.00000  Uiso   1.00
H1018  H     0.10548   0.66362   0.85255   0.00000  Uiso   1.00
H1019  H     0.10009   0.61254   0.81757   0.00000  Uiso   1.00
H1020  H     0.06322   0.62410   0.86060   0.00000  Uiso   1.00
O1021  O     0.23353   0.46745   0.61748   0.00000  Uiso   1.00
C1022  C     0.25840   0.50733   0.62413   0.00000  Uiso   1.00
H1023  H     0.24613   0.52902   0.65169   0.00000  Uiso   1.00
H1024  H     0.26079   0.52946   0.59378   0.00000  Uiso   1.00
C1025  C     0.30111   0.49180   0.63666   0.00000  Uiso   1.00
H1026  H     0.31878   0.52220   0.64923   0.00000  Uiso   1.00
H1027  H     0.29982   0.46461   0.66275   0.00000  Uiso   1.00
H1028  H     0.31687   0.47712   0.60725   0.00000  Uiso   1.00
C1029  C     0.06176   0.55175   0.95589   0.00000  Uiso   1.00
N1030  N     0.03201   0.56420   0.93914   0.00000  Uiso   1.00
C1031  C     0.25990   0.42422   0.54400   0.00000  Uiso   1.00
N1032  N     0.28493   0.40162   0.56040   0.00000  Uiso   1.00
C1033  C     0.04157   0.41388   0.77070   0.00000  Uiso   1.00
N1034  N     0.05764   0.37945   0.78066   0.00000  Uiso   1.00
C1035  C     0.29280   0.58545   0.77206   0.00000  Uiso   1.00
N1036  N     0.27781   0.62002   0.78349   0.00000  Uiso   1.00
C1037  C     0.29303   0.41183   0.74630   0.00000  Uiso   1.00
N1038  N     0.27757   0.37614   0.73958   0.00000  Uiso   1.00
C1039  C     0.03960   0.58723   0.74203   0.00000  Uiso   1.00
N1040  N     0.05430   0.62289   0.73369   0.00000  Uiso   1.00
C1041  C     0.42072   0.50002   0.75099   0.00000  Uiso   1.00
C1042  C     0.57927   0.49990   0.75165   0.00000  Uiso   1.00
C1043  C     0.43232   0.53523   0.52311   0.00000  Uiso   1.00
C1044  C     0.56132   0.45220   0.97709   0.00000  Uiso   1.00
C1045  C     0.35466   0.45731   0.75879   0.00000  Uiso   1.00
C1046  C     0.64553   0.54210   0.75858   0.00000  Uiso   1.00
C1047  C     0.64587   0.45675   0.75397   0.00000  Uiso   1.00
C1048  C     0.35401   0.54255   0.75190   0.00000  Uiso   1.00
C1049  C     0.62395   0.49951   0.75479   0.00000  Uiso   1.00
C1050  C     0.37605   0.49998   0.75360   0.00000  Uiso   1.00
C1051  C     0.48154   0.35802   0.71664   0.00000  Uiso   1.00
C1052  C     0.51801   0.64200   0.78360   0.00000  Uiso   1.00
C1053  C     0.51821   0.35822   0.78350   0.00000  Uiso   1.00
C1054  C     0.48173   0.64178   0.71653   0.00000  Uiso   1.00
C1055  C     0.49988   0.49993   0.66459   0.00000  Uiso   1.00
C1056  C     0.49998   0.50010   0.83550   0.00000  Uiso   1.00
C1057  C     0.53091   0.47578   0.90673   0.00000  Uiso   1.00
C1058  C     0.46565   0.51766   0.59355   0.00000  Uiso   1.00
C1059  C     0.50037   0.50010   0.88383   0.00000  Uiso   1.00
C1060  C     0.49932   0.49970   0.61643   0.00000  Uiso   1.00
C1061  C     0.46958   0.52407   0.90665   0.00000  Uiso   1.00
C1062  C     0.53264   0.48066   0.59376   0.00000  Uiso   1.00
C1063  C     0.46631   0.51942   0.95318   0.00000  Uiso   1.00
C1064  C     0.53130   0.47609   0.54714   0.00000  Uiso   1.00
C1065  C     0.49834   0.49702   0.97668   0.00000  Uiso   1.00
C1066  C     0.49833   0.49661   0.52361   0.00000  Uiso   1.00
C1067  C     0.53054   0.47517   0.95336   0.00000  Uiso   1.00
C1068  C     0.46538   0.51698   0.54691   0.00000  Uiso   1.00
C1069  C     0.43217   0.53610   0.97705   0.00000  Uiso   1.00
C1070  C     0.56191   0.45209   0.52314   0.00000  Uiso   1.00
Cu1071 Cu    0.50000   0.54689   0.75000   0.00000  Uiso   1.00
Cu1072 Cu    0.50000   0.45311   0.75000   0.00000  Uiso   1.00
H1073  H     0.40599   0.54895   0.54031   0.00000  Uiso   1.00
H1074  H     0.58536   0.43373   0.95984   0.00000  Uiso   1.00
H1075  H     0.46652   0.37654   0.69003   0.00000  Uiso   1.00
H1076  H     0.53244   0.62351   0.81059   0.00000  Uiso   1.00
H1077  H     0.53305   0.37685   0.81025   0.00000  Uiso   1.00
H1078  H     0.46692   0.62311   0.68977   0.00000  Uiso   1.00
N1079  N     0.50000   0.61736   0.75000   0.00000  Uiso   1.00
N1080  N     0.50000   0.38264   0.75000   0.00000  Uiso   1.00
O1081  O     0.43988   0.53958   0.74999   0.00000  Uiso   1.00
O1082  O     0.56012   0.46042   0.75000   0.00000  Uiso   1.00
O1083  O     0.56012   0.53958   0.75000   0.00000  Uiso   1.00
O1084  O     0.43988   0.46042   0.74999   0.00000  Uiso   1.00
O1085  O     0.49999   0.53960   0.68513   0.00000  Uiso   1.00
O1086  O     0.50001   0.46040   0.81487   0.00000  Uiso   1.00
O1087  O     0.50001   0.53960   0.81487   0.00000  Uiso   1.00
O1088  O     0.49999   0.46040   0.68513   0.00000  Uiso   1.00
C1089  C     0.56366   0.45369   0.88201   0.00000  Uiso   1.00
N1090  N     0.58973   0.43620   0.86229   0.00000  Uiso   1.00
C1091  C     0.43151   0.53645   0.61841   0.00000  Uiso   1.00
N1092  N     0.40437   0.55139   0.63823   0.00000  Uiso   1.00
O1093  O     0.44218   0.55069   0.88256   0.00000  Uiso   1.00
C1094  C     0.45461   0.59812   0.88421   0.00000  Uiso   1.00
H1095  H     0.48718   0.60232   0.87507   0.00000  Uiso   1.00
H1096  H     0.45016   0.61296   0.91800   0.00000  Uiso   1.00
C1097  C     0.42921   0.62635   0.85169   0.00000  Uiso   1.00
H1098  H     0.43882   0.66362   0.85255   0.00000  Uiso   1.00
H1099  H     0.43342   0.61254   0.81757   0.00000  Uiso   1.00
H1100  H     0.39656   0.62410   0.86060   0.00000  Uiso   1.00
O1101  O     0.56686   0.46745   0.61748   0.00000  Uiso   1.00
C1102  C     0.59173   0.50733   0.62413   0.00000  Uiso   1.00
H1103  H     0.57946   0.52902   0.65169   0.00000  Uiso   1.00
H1104  H     0.59413   0.52946   0.59378   0.00000  Uiso   1.00
C1105  C     0.63444   0.49180   0.63666   0.00000  Uiso   1.00
H1106  H     0.65211   0.52220   0.64923   0.00000  Uiso   1.00
H1107  H     0.63315   0.46461   0.66275   0.00000  Uiso   1.00
H1108  H     0.65020   0.47712   0.60725   0.00000  Uiso   1.00
C1109  C     0.39510   0.55175   0.95589   0.00000  Uiso   1.00
N1110  N     0.36534   0.56420   0.93914   0.00000  Uiso   1.00
C1111  C     0.59324   0.42422   0.54400   0.00000  Uiso   1.00
N1112  N     0.61826   0.40162   0.56040   0.00000  Uiso   1.00
C1113  C     0.37490   0.41388   0.77070   0.00000  Uiso   1.00
N1114  N     0.39098   0.37945   0.78066   0.00000  Uiso   1.00
C1115  C     0.62614   0.58545   0.77206   0.00000  Uiso   1.00
N1116  N     0.61115   0.62002   0.78349   0.00000  Uiso   1.00
C1117  C     0.62637   0.41183   0.74630   0.00000  Uiso   1.00
N1118  N     0.61091   0.37614   0.73958   0.00000  Uiso   1.00
C1119  C     0.37293   0.58723   0.74203   0.00000  Uiso   1.00
N1120  N     0.38763   0.62289   0.73369   0.00000  Uiso   1.00
C1121  C     0.75405   0.50002   0.75099   0.00000  Uiso   1.00
C1122  C     0.91260   0.49990   0.75165   0.00000  Uiso   1.00
C1123  C     0.76566   0.53523   0.52311   0.00000  Uiso   1.00
C1124  C     0.89466   0.45220   0.97709   0.00000  Uiso   1.00
C1125  C     0.68799   0.45731   0.75879   0.00000  Uiso   1.00
C1126  C     0.97887   0.54210   0.75858   0.00000  Uiso   1.00
C1127  C     0.97920   0.45675   0.75397   0.00000  Uiso   1.00
C1128  C     0.68735   0.54255   0.75190   0.00000  Uiso   1.00
C1129  C     0.95728   0.49951   0.75479   0.00000  Uiso   1.00
C1130  C     0.70938   0.49998   0.75360   0.00000  Uiso   1.00
C1131  C     0.81488   0.35802   0.71664   0.00000  Uiso   1.00
C1132  C     0.85135   0.64200   0.78360   0.00000  Uiso   1.00
C1133  C     0.85154   0.35822   0.78350   0.00000  Uiso   1.00
C1134  C     0.81506   0.64178   0.71653   0.00000  Uiso   1.00
C1135  C     0.83322   0.49993   0.66459   0.00000  Uiso   1.00
C1136  C     0.83331   0.50010   0.83550   0.00000  Uiso   1.00
C1137  C     0.86424   0.47578   0.90673   0.00000  Uiso   1.00
C1138  C     0.79899   0.51766   0.59355   0.00000  Uiso   1.00
C1139  C     0.83371   0.50010   0.88383   0.00000  Uiso   1.00
C1140  C     0.83265   0.49970   0.61643   0.00000  Uiso   1.00
C1141  C     0.80291   0.52407   0.90665   0.00000  Uiso   1.00
C1142  C     0.86597   0.48066   0.59376   0.00000  Uiso   1.00
C1143  C     0.79965   0.51942   0.95318   0.00000  Uiso   1.00
C1144  C     0.86463   0.47609   0.54714   0.00000  Uiso   1.00
C1145  C     0.83168   0.49702   0.97668   0.00000  Uiso   1.00
C1146  C     0.83166   0.49661   0.52361   0.00000  Uiso   1.00
C1147  C     0.86387   0.47517   0.95336   0.00000  Uiso   1.00
C1148  C     0.79872   0.51698   0.54691   0.00000  Uiso   1.00
C1149  C     0.76550   0.53610   0.97705   0.00000  Uiso   1.00
C1150  C     0.89525   0.45209   0.52314   0.00000  Uiso   1.00
Cu1151 Cu    0.83333   0.54689   0.75000   0.00000  Uiso   1.00
Cu1152 Cu    0.83333   0.45311   0.75000   0.00000  Uiso   1.00
H1153  H     0.73932   0.54895   0.54031   0.00000  Uiso   1.00
H1154  H     0.91870   0.43373   0.95984   0.00000  Uiso   1.00
H1155  H     0.79985   0.37654   0.69003   0.00000  Uiso   1.00
H1156  H     0.86578   0.62351   0.81059   0.00000  Uiso   1.00
H1157  H     0.86638   0.37685   0.81025   0.00000  Uiso   1.00
H1158  H     0.80025   0.62311   0.68977   0.00000  Uiso   1.00
N1159  N     0.83333   0.61736   0.75000   0.00000  Uiso   1.00
N1160  N     0.83333   0.38264   0.75000   0.00000  Uiso   1.00
O1161  O     0.77321   0.53958   0.74999   0.00000  Uiso   1.00
O1162  O     0.89345   0.46042   0.75000   0.00000  Uiso   1.00
O1163  O     0.89345   0.53958   0.75000   0.00000  Uiso   1.00
O1164  O     0.77321   0.46042   0.74999   0.00000  Uiso   1.00
O1165  O     0.83332   0.53960   0.68513   0.00000  Uiso   1.00
O1166  O     0.83334   0.46040   0.81487   0.00000  Uiso   1.00
O1167  O     0.83334   0.53960   0.81487   0.00000  Uiso   1.00
O1168  O     0.83332   0.46040   0.68513   0.00000  Uiso   1.00
C1169  C     0.89699   0.45369   0.88201   0.00000  Uiso   1.00
N1170  N     0.92306   0.43620   0.86229   0.00000  Uiso   1.00
C1171  C     0.76485   0.53645   0.61841   0.00000  Uiso   1.00
N1172  N     0.73770   0.55139   0.63823   0.00000  Uiso   1.00
O1173  O     0.77551   0.55069   0.88256   0.00000  Uiso   1.00
C1174  C     0.78795   0.59812   0.88421   0.00000  Uiso   1.00
H1175  H     0.82051   0.60232   0.87507   0.00000  Uiso   1.00
H1176  H     0.78349   0.61296   0.91800   0.00000  Uiso   1.00
C1177  C     0.76254   0.62635   0.85169   0.00000  Uiso   1.00
H1178  H     0.77215   0.66362   0.85255   0.00000  Uiso   1.00
H1179  H     0.76675   0.61254   0.81757   0.00000  Uiso   1.00
H1180  H     0.72989   0.62410   0.86060   0.00000  Uiso   1.00
O1181  O     0.90019   0.46745   0.61748   0.00000  Uiso   1.00
C1182  C     0.92506   0.50733   0.62413   0.00000  Uiso   1.00
H1183  H     0.91280   0.52902   0.65169   0.00000  Uiso   1.00
H1184  H     0.92746   0.52946   0.59378   0.00000  Uiso   1.00
C1185  C     0.96778   0.49180   0.63666   0.00000  Uiso   1.00
H1186  H     0.98544   0.52220   0.64923   0.00000  Uiso   1.00
H1187  H     0.96649   0.46461   0.66275   0.00000  Uiso   1.00
H1188  H     0.98353   0.47712   0.60725   0.00000  Uiso   1.00
C1189  C     0.72843   0.55175   0.95589   0.00000  Uiso   1.00
N1190  N     0.69867   0.56420   0.93914   0.00000  Uiso   1.00
C1191  C     0.92657   0.42422   0.54400   0.00000  Uiso   1.00
N1192  N     0.95159   0.40162   0.56040   0.00000  Uiso   1.00
C1193  C     0.70823   0.41388   0.77070   0.00000  Uiso   1.00
N1194  N     0.72431   0.37945   0.78066   0.00000  Uiso   1.00
C1195  C     0.95947   0.58545   0.77206   0.00000  Uiso   1.00
N1196  N     0.94448   0.62002   0.78349   0.00000  Uiso   1.00
C1197  C     0.95970   0.41183   0.74630   0.00000  Uiso   1.00
N1198  N     0.94424   0.37614   0.73958   0.00000  Uiso   1.00
C1199  C     0.70626   0.58723   0.74203   0.00000  Uiso   1.00
N1200  N     0.72097   0.62289   0.73369   0.00000  Uiso   1.00
C1201  C     0.08738   0.83335   0.75099   0.00000  Uiso   1.00
C1202  C     0.24594   0.83323   0.75165   0.00000  Uiso   1.00
C1203  C     0.09899   0.86856   0.52311   0.00000  Uiso   1.00
C1204  C     0.22799   0.78553   0.97709   0.00000  Uiso   1.00
C1205  C     0.02132   0.79065   0.75879   0.00000  Uiso   1.00
C1206  C     0.31220   0.87543   0.75858   0.00000  Uiso   1.00
C1207  C     0.31253   0.79008   0.75397   0.00000  Uiso   1.00
C1208  C     0.02068   0.87588   0.75190   0.00000  Uiso   1.00
C1209  C     0.29061   0.83285   0.75479   0.00000  Uiso   1.00
C1210  C     0.04272   0.83332   0.75360   0.00000  Uiso   1.00
C1211  C     0.14821   0.69136   0.71664   0.00000  Uiso   1.00
C1212  C     0.18468   0.97533   0.78360   0.00000  Uiso   1.00
C1213  C     0.18487   0.69155   0.78350   0.00000  Uiso   1.00
C1214  C     0.14839   0.97512   0.71653   0.00000  Uiso   1.00
C1215  C     0.16655   0.83326   0.66459   0.00000  Uiso   1.00
C1216  C     0.16665   0.83343   0.83550   0.00000  Uiso   1.00
C1217  C     0.19758   0.80911   0.90673   0.00000  Uiso   1.00
C1218  C     0.13232   0.85099   0.59355   0.00000  Uiso   1.00
C1219  C     0.16704   0.83343   0.88383   0.00000  Uiso   1.00
C1220  C     0.16599   0.83303   0.61643   0.00000  Uiso   1.00
C1221  C     0.13624   0.85740   0.90665   0.00000  Uiso   1.00
C1222  C     0.19930   0.81400   0.59376   0.00000  Uiso   1.00
C1223  C     0.13298   0.85276   0.95318   0.00000  Uiso   1.00
C1224  C     0.19797   0.80942   0.54714   0.00000  Uiso   1.00
C1225  C     0.16501   0.83035   0.97668   0.00000  Uiso   1.00
C1226  C     0.16499   0.82995   0.52361   0.00000  Uiso   1.00
C1227  C     0.19721   0.80850   0.95336   0.00000  Uiso   1.00
C1228  C     0.13205   0.85032   0.54691   0.00000  Uiso   1.00
C1229  C     0.09884   0.86943   0.97705   0.00000  Uiso   1.00
C1230  C     0.22858   0.78543   0.52314   0.00000  Uiso   1.00
Cu1231 Cu    0.16667   0.88022   0.75000   0.00000  Uiso   1.00
Cu1232 Cu    0.16667   0.78645   0.75000   0.00000  Uiso   1.00
H1233  H     0.07265   0.88229   0.54031   0.00000  Uiso   1.00
H1234  H     0.25203   0.76706   0.95984   0.00000  Uiso   1.00
H1235  H     0.13319   0.70987   0.69003   0.00000  Uiso   1.00
H1236  H     0.19911   0.95684   0.81059   0.00000  Uiso   1.00
H1237  H     0.19971   0.71018   0.81025   0.00000  Uiso   1.00
H1238  H     0.13358   0.95645   0.68977   0.00000  Uiso   1.00
N1239  N     0.16667   0.95069   0.75000   0.00000  Uiso   1.00
N1240  N     0.16667   0.71598   0.75000   0.00000  Uiso   1.00
O1241  O     0.10655   0.87291   0.74999   0.00000  Uiso   1.00
O1242  O     0.22679   0.79375   0.75000   0.00000  Uiso   1.00
O1243  O     0.22679   0.87291   0.75000   0.00000  Uiso   1.00
O1244  O     0.10655   0.79375   0.74999   0.00000  Uiso   1.00
O1245  O     0.16666   0.87293   0.68513   0.00000  Uiso   1.00
O1246  O     0.16668   0.79373   0.81487   0.00000  Uiso   1.00
O1247  O     0.16668   0.87293   0.81487   0.00000  Uiso   1.00
O1248  O     0.16666   0.79373   0.68513   0.00000  Uiso   1.00
C1249  C     0.23033   0.78702   0.88201   0.00000  Uiso   1.00
N1250  N     0.25640   0.76953   0.86229   0.00000  Uiso   1.00
C1251  C     0.09818   0.86978   0.61841   0.00000  Uiso   1.00
N1252  N     0.07103   0.88473   0.63823   0.00000  Uiso   1.00
O1253  O     0.10885   0.88402   0.88256   0.00000  Uiso   1.00
C1254  C     0.12128   0.93145   0.88421   0.00000  Uiso   1.00
H1255  H     0.15385   0.93565   0.87507   0.00000  Uiso   1.00
H1256  H     0.11683   0.94629   0.91800   0.00000  Uiso   1.00
C1257  C     0.09587   0.95969   0.85169   0.00000  Uiso   1.00
H1258  H     0.10548   0.99695   0.85255   0.00000  Uiso   1.00
H1259  H     0.10009   0.94588   0.81757   0.00000  Uiso   1.00
H1260  H     0.06322   0.95744   0.86060   0.00000  Uiso   1.00
O1261  O     0.23353   0.80079   0.61748   0.00000  Uiso   1.00
C1262  C     0.25840   0.84067   0.62413   0.00000  Uiso   1.00
H1263  H     0.24613   0.86235   0.65169   0.00000  Uiso   1.00
H1264  H     0.26079   0.86279   0.59378   0.00000  Uiso   1.00
C1265  C     0.30111   0.82513   0.63666   0.00000  Uiso   1.00
H1266  H     0.31878   0.85553   0.64923   0.00000  Uiso   1.00
H1267  H     0.29982   0.79795   0.66275   0.00000  Uiso   1.00
H1268  H     0.31687   0.81045   0.60725   0.00000  Uiso   1.00
C1269  C     0.06176   0.88508   0.95589   0.00000  Uiso   1.00
N1270  N     0.03201   0.89753   0.93914   0.00000  Uiso   1.00
C1271  C     0.25990   0.75755   0.54400   0.00000  Uiso   1.00
N1272  N     0.28493   0.73495   0.56040   0.00000  Uiso   1.00
C1273  C     0.04157   0.74721   0.77070   0.00000  Uiso   1.00
N1274  N     0.05764   0.71278   0.78066   0.00000  Uiso   1.00
C1275  C     0.29280   0.91878   0.77206   0.00000  Uiso   1.00
N1276  N     0.27781   0.95335   0.78349   0.00000  Uiso   1.00
C1277  C     0.29303   0.74516   0.74630   0.00000  Uiso   1.00
N1278  N     0.27757   0.70947   0.73958   0.00000  Uiso   1.00
C1279  C     0.03960   0.92056   0.74203   0.00000  Uiso   1.00
N1280  N     0.05430   0.95623   0.73369   0.00000  Uiso   1.00
C1281  C     0.42072   0.83335   0.75099   0.00000  Uiso   1.00
C1282  C     0.57927   0.83323   0.75165   0.00000  Uiso   1.00
C1283  C     0.43232   0.86856   0.52311   0.00000  Uiso   1.00
C1284  C     0.56132   0.78553   0.97709   0.00000  Uiso   1.00
C1285  C     0.35466   0.79065   0.75879   0.00000  Uiso   1.00
C1286  C     0.64553   0.87543   0.75858   0.00000  Uiso   1.00
C1287  C     0.64587   0.79008   0.75397   0.00000  Uiso   1.00
C1288  C     0.35401   0.87588   0.75190   0.00000  Uiso   1.00
C1289  C     0.62395   0.83285   0.75479   0.00000  Uiso   1.00
C1290  C     0.37605   0.83332   0.75360   0.00000  Uiso   1.00
C1291  C     0.48154   0.69136   0.71664   0.00000  Uiso   1.00
C1292  C     0.51801   0.97533   0.78360   0.00000  Uiso   1.00
C1293  C     0.51821   0.69155   0.78350   0.00000  Uiso   1.00
C1294  C     0.48173   0.97512   0.71653   0.00000  Uiso   1.00
C1295  C     0.49988   0.83326   0.66459   0.00000  Uiso   1.00
C1296  C     0.49998   0.83343   0.83550   0.00000  Uiso   1.00
C1297  C     0.53091   0.80911   0.90673   0.00000  Uiso   1.00
C1298  C     0.46565   0.85099   0.59355   0.00000  Uiso   1.00
C1299  C     0.50037   0.83343   0.88383   0.00000  Uiso   1.00
C1300  C     0.49932   0.83303   0.61643   0.00000  Uiso   1.00
C1301  C     0.46958   0.85740   0.90665   0.00000  Uiso   1.00
C1302  C     0.53264   0.81400   0.59376   0.00000  Uiso   1.00
C1303  C     0.46631   0.85276   0.95318   0.00000  Uiso   1.00
C1304  C     0.53130   0.80942   0.54714   0.00000  Uiso   1.00
C1305  C     0.49834   0.83035   0.97668   0.00000  Uiso   1.00
C1306  C     0.49833   0.82995   0.52361   0.00000  Uiso   1.00
C1307  C     0.53054   0.80850   0.95336   0.00000  Uiso   1.00
C1308  C     0.46538   0.85032   0.54691   0.00000  Uiso   1.00
C1309  C     0.43217   0.86943   0.97705   0.00000  Uiso   1.00
C1310  C     0.56191   0.78543   0.52314   0.00000  Uiso   1.00
Cu1311 Cu    0.50000   0.88022   0.75000   0.00000  Uiso   1.00
Cu1312 Cu    0.50000   0.78645   0.75000   0.00000  Uiso   1.00
H1313  H     0.40599   0.88229   0.54031   0.00000  Uiso   1.00
H1314  H     0.58536   0.76706   0.95984   0.00000  Uiso   1.00
H1315  H     0.46652   0.70987   0.69003   0.00000  Uiso   1.00
H1316  H     0.53244   0.95684   0.81059   0.00000  Uiso   1.00
H1317  H     0.53305   0.71018   0.81025   0.00000  Uiso   1.00
H1318  H     0.46692   0.95645   0.68977   0.00000  Uiso   1.00
N1319  N     0.50000   0.95069   0.75000   0.00000  Uiso   1.00
N1320  N     0.50000   0.71598   0.75000   0.00000  Uiso   1.00
O1321  O     0.43988   0.87291   0.74999   0.00000  Uiso   1.00
O1322  O     0.56012   0.79375   0.75000   0.00000  Uiso   1.00
O1323  O     0.56012   0.87291   0.75000   0.00000  Uiso   1.00
O1324  O     0.43988   0.79375   0.74999   0.00000  Uiso   1.00
O1325  O     0.49999   0.87293   0.68513   0.00000  Uiso   1.00
O1326  O     0.50001   0.79373   0.81487   0.00000  Uiso   1.00
O1327  O     0.50001   0.87293   0.81487   0.00000  Uiso   1.00
O1328  O     0.49999   0.79373   0.68513   0.00000  Uiso   1.00
C1329  C     0.56366   0.78702   0.88201   0.00000  Uiso   1.00
N1330  N     0.58973   0.76953   0.86229   0.00000  Uiso   1.00
C1331  C     0.43151   0.86978   0.61841   0.00000  Uiso   1.00
N1332  N     0.40437   0.88473   0.63823   0.00000  Uiso   1.00
O1333  O     0.44218   0.88402   0.88256   0.00000  Uiso   1.00
C1334  C     0.45461   0.93145   0.88421   0.00000  Uiso   1.00
H1335  H     0.48718   0.93565   0.87507   0.00000  Uiso   1.00
H1336  H     0.45016   0.94629   0.91800   0.00000  Uiso   1.00
C1337  C     0.42921   0.95969   0.85169   0.00000  Uiso   1.00
H1338  H     0.43882   0.99695   0.85255   0.00000  Uiso   1.00
H1339  H     0.43342   0.94588   0.81757   0.00000  Uiso   1.00
H1340  H     0.39656   0.95744   0.86060   0.00000  Uiso   1.00
O1341  O     0.56686   0.80079   0.61748   0.00000  Uiso   1.00
C1342  C     0.59173   0.84067   0.62413   0.00000  Uiso   1.00
H1343  H     0.57946   0.86235   0.65169   0.00000  Uiso   1.00
H1344  H     0.59413   0.86279   0.59378   0.00000  Uiso   1.00
C1345  C     0.63444   0.82513   0.63666   0.00000  Uiso   1.00
H1346  H     0.65211   0.85553   0.64923   0.00000  Uiso   1.00
H1347  H     0.63315   0.79795   0.66275   0.00000  Uiso   1.00
H1348  H     0.65020   0.81045   0.60725   0.00000  Uiso   1.00
C1349  C     0.39510   0.88508   0.95589   0.00000  Uiso   1.00
N1350  N     0.36534   0.89753   0.93914   0.00000  Uiso   1.00
C1351  C     0.59324   0.75755   0.54400   0.00000  Uiso   1.00
N1352  N     0.61826   0.73495   0.56040   0.00000  Uiso   1.00
C1353  C     0.37490   0.74721   0.77070   0.00000  Uiso   1.00
N1354  N     0.39098   0.71278   0.78066   0.00000  Uiso   1.00
C1355  C     0.62614   0.91878   0.77206   0.00000  Uiso   1.00
N1356  N     0.61115   0.95335   0.78349   0.00000  Uiso   1.00
C1357  C     0.62637   0.74516   0.74630   0.00000  Uiso   1.00
N1358  N     0.61091   0.70947   0.73958   0.00000  Uiso   1.00
C1359  C     0.37293   0.92056   0.74203   0.00000  Uiso   1.00
N1360  N     0.38763   0.95623   0.73369   0.00000  Uiso   1.00
C1361  C     0.75405   0.83335   0.75099   0.00000  Uiso   1.00
C1362  C     0.91260   0.83323   0.75165   0.00000  Uiso   1.00
C1363  C     0.76566   0.86856   0.52311   0.00000  Uiso   1.00
C1364  C     0.89466   0.78553   0.97709   0.00000  Uiso   1.00
C1365  C     0.68799   0.79065   0.75879   0.00000  Uiso   1.00
C1366  C     0.97887   0.87543   0.75858   0.00000  Uiso   1.00
C1367  C     0.97920   0.79008   0.75397   0.00000  Uiso   1.00
C1368  C     0.68735   0.87588   0.75190   0.00000  Uiso   1.00
C1369  C     0.95728   0.83285   0.75479   0.00000  Uiso   1.00
C1370  C     0.70938   0.83332   0.75360   0.00000  Uiso   1.00
C1371  C     0.81488   0.69136   0.71664   0.00000  Uiso   1.00
C1372  C     0.85135   0.97533   0.78360   0.00000  Uiso   1.00
C1373  C     0.85154   0.69155   0.78350   0.00000  Uiso   1.00
C1374  C     0.81506   0.97512   0.71653   0.00000  Uiso   1.00
C1375  C     0.83322   0.83326   0.66459   0.00000  Uiso   1.00
C1376  C     0.83331   0.83343   0.83550   0.00000  Uiso   1.00
C1377  C     0.86424   0.80911   0.90673   0.00000  Uiso   1.00
C1378  C     0.79899   0.85099   0.59355   0.00000  Uiso   1.00
C1379  C     0.83371   0.83343   0.88383   0.00000  Uiso   1.00
C1380  C     0.83265   0.83303   0.61643   0.00000  Uiso   1.00
C1381  C     0.80291   0.85740   0.90665   0.00000  Uiso   1.00
C1382  C     0.86597   0.81400   0.59376   0.00000  Uiso   1.00
C1383  C     0.79965   0.85276   0.95318   0.00000  Uiso   1.00
C1384  C     0.86463   0.80942   0.54714   0.00000  Uiso   1.00
C1385  C     0.83168   0.83035   0.97668   0.00000  Uiso   1.00
C1386  C     0.83166   0.82995   0.52361   0.00000  Uiso   1.00
C1387  C     0.86387   0.80850   0.95336   0.00000  Uiso   1.00
C1388  C     0.79872   0.85032   0.54691   0.00000  Uiso   1.00
C1389  C     0.76550   0.86943   0.97705   0.00000  Uiso   1.00
C1390  C     0.89525   0.78543   0.52314   0.00000  Uiso   1.00
Cu1391 Cu    0.83333   0.88022   0.75000   0.00000  Uiso   1.00
Cu1392 Cu    0.83333   0.78645   0.75000   0.00000  Uiso   1.00
H1393  H     0.73932   0.88229   0.54031   0.00000  Uiso   1.00
H1394  H     0.91870   0.76706   0.95984   0.00000  Uiso   1.00
H1395  H     0.79985   0.70987   0.69003   0.00000  Uiso   1.00
H1396  H     0.86578   0.95684   0.81059   0.00000  Uiso   1.00
H1397  H     0.86638   0.71018   0.81025   0.00000  Uiso   1.00
H1398  H     0.80025   0.95645   0.68977   0.00000  Uiso   1.00
N1399  N     0.83333   0.95069   0.75000   0.00000  Uiso   1.00
N1400  N     0.83333   0.71598   0.75000   0.00000  Uiso   1.00
O1401  O     0.77321   0.87291   0.74999   0.00000  Uiso   1.00
O1402  O     0.89345   0.79375   0.75000   0.00000  Uiso   1.00
O1403  O     0.89345   0.87291   0.75000   0.00000  Uiso   1.00
O1404  O     0.77321   0.79375   0.74999   0.00000  Uiso   1.00
O1405  O     0.83332   0.87293   0.68513   0.00000  Uiso   1.00
O1406  O     0.83334   0.79373   0.81487   0.00000  Uiso   1.00
O1407  O     0.83334   0.87293   0.81487   0.00000  Uiso   1.00
O1408  O     0.83332   0.79373   0.68513   0.00000  Uiso   1.00
C1409  C     0.89699   0.78702   0.88201   0.00000  Uiso   1.00
N1410  N     0.92306   0.76953   0.86229   0.00000  Uiso   1.00
C1411  C     0.76485   0.86978   0.61841   0.00000  Uiso   1.00
N1412  N     0.73770   0.88473   0.63823   0.00000  Uiso   1.00
O1413  O     0.77551   0.88402   0.88256   0.00000  Uiso   1.00
C1414  C     0.78795   0.93145   0.88421   0.00000  Uiso   1.00
H1415  H     0.82051   0.93565   0.87507   0.00000  Uiso   1.00
H1416  H     0.78349   0.94629   0.91800   0.00000  Uiso   1.00
C1417  C     0.76254   0.95969   0.85169   0.00000  Uiso   1.00
H1418  H     0.77215   0.99695   0.85255   0.00000  Uiso   1.00
H1419  H     0.76675   0.94588   0.81757   0.00000  Uiso   1.00
H1420  H     0.72989   0.95744   0.86060   0.00000  Uiso   1.00
O1421  O     0.90019   0.80079   0.61748   0.00000  Uiso   1.00
C1422  C     0.92506   0.84067   0.62413   0.00000  Uiso   1.00
H1423  H     0.91280   0.86235   0.65169   0.00000  Uiso   1.00
H1424  H     0.92746   0.86279   0.59378   0.00000  Uiso   1.00
C1425  C     0.96778   0.82513   0.63666   0.00000  Uiso   1.00
H1426  H     0.98544   0.85553   0.64923   0.00000  Uiso   1.00
H1427  H     0.96649   0.79795   0.66275   0.00000  Uiso   1.00
H1428  H     0.98353   0.81045   0.60725   0.00000  Uiso   1.00
C1429  C     0.72843   0.88508   0.95589   0.00000  Uiso   1.00
N1430  N     0.69867   0.89753   0.93914   0.00000  Uiso   1.00
C1431  C     0.92657   0.75755   0.54400   0.00000  Uiso   1.00
N1432  N     0.95159   0.73495   0.56040   0.00000  Uiso   1.00
C1433  C     0.70823   0.74721   0.77070   0.00000  Uiso   1.00
N1434  N     0.72431   0.71278   0.78066   0.00000  Uiso   1.00
C1435  C     0.95947   0.91878   0.77206   0.00000  Uiso   1.00
N1436  N     0.94448   0.95335   0.78349   0.00000  Uiso   1.00
C1437  C     0.95970   0.74516   0.74630   0.00000  Uiso   1.00
N1438  N     0.94424   0.70947   0.73958   0.00000  Uiso   1.00
C1439  C     0.70626   0.92056   0.74203   0.00000  Uiso   1.00
N1440  N     0.72097   0.95623   0.73369   0.00000  Uiso   1.00
loop_
_geom_bond_atom_site_label_1
_geom_bond_atom_site_label_2
_geom_bond_distance
_geom_bond_site_symmetry_2
_ccdc_geom_bond_type
C1     O44     1.295   .     A
C1     O41     1.295   .     A
C1     C10     1.473   .     S
C2     O43     1.298   .     A
C2     O42     1.293   .     A
C2     C9      1.474   .     S
C3     C28     1.403   .     A
C3     H33     1.084   .     S
C3     C749    1.390   1_554 S
C4     H34     1.084   .     S
C4     C27     1.403   .     A
C4     C750    1.389   .     S
C5     C73     1.454   .     S
C5     C10     1.417   .     A
C5     C167    1.394   1_455 S
C6     C9      1.413   .     A
C6     C75     1.451   .     S
C6     C88     1.392   .     S
C7     C77     1.452   .     S
C7     C9      1.419   .     A
C7     C85     1.394   .     S
C8     C79     1.452   .     S
C8     C10     1.416   .     A
C8     C166    1.392   1_455 S
C11    N40     1.367   .     A
C11    H35     1.081   .     S
C11    C494    1.416   1_545 S
C12    H36     1.081   .     S
C12    N39     1.366   .     A
C12    C253    1.415   .     S
C13    N40     1.367   .     A
C13    H37     1.081   .     S
C13    C492    1.415   1_545 S
C14    N39     1.367   .     A
C14    H38     1.081   .     S
C14    C251    1.416   .     S
C15    O48     1.289   .     A
C15    C20     1.453   .     S
C15    O45     1.290   .     A
C16    O47     1.290   .     A
C16    O46     1.292   .     A
C16    C19     1.457   .     S
C17    C27     1.406   .     A
C17    C49     1.455   .     S
C17    C19     1.403   .     A
C18    C51     1.454   .     S
C18    C28     1.407   .     A
C18    C20     1.402   .     A
C19    C21     1.404   .     A
C20    C22     1.402   .     A
C21    C23     1.414   .     A
C21    O53     1.385   .     S
C22    C24     1.412   .     A
C22    O61     1.386   .     S
C23    C29     1.418   .     A
C23    C25     1.422   .     A
C24    C26     1.423   .     A
C24    C30     1.417   .     A
C25    C27     1.417   .     A
C25    C746    1.415   .     S
C26    C28     1.417   .     A
C26    C745    1.415   1_554 S
C29    C69     1.447   .     S
C29    C723    1.390   .     S
C30    C71     1.447   .     S
C30    C724    1.389   1_554 S
Cu31   O43     1.990   .     S
Cu31   O47     1.968   .     S
Cu31   Cu32    2.678   .     S
Cu31   O41     1.990   .     S
Cu31   N39     2.012   .     S
Cu31   O45     1.967   .     S
Cu32   N40     2.012   .     S
Cu32   O48     1.968   .     S
Cu32   O44     1.990   .     S
Cu32   O46     1.967   .     S
Cu32   O42     1.990   .     S
C49    N50     1.158   .     T
C51    N52     1.157   .     T
O53    C54     1.416   .     S
C54    H55     1.114   .     S
C54    H56     1.112   .     S
C54    C57     1.521   .     S
C57    H59     1.110   .     S
C57    H60     1.111   .     S
C57    H58     1.111   .     S
O61    C62     1.416   .     S
C62    H64     1.117   .     S
C62    H63     1.112   .     S
C62    C65     1.522   .     S
C65    H67     1.108   .     S
C65    H68     1.110   .     S
C65    H66     1.110   .     S
C69    N70     1.158   .     T
C71    N72     1.158   .     T
C73    N74     1.157   .     T
C75    N76     1.156   .     T
C77    N78     1.156   .     T
C79    N80     1.156   .     T
C81    O124    1.295   .     A
C81    O121    1.295   .     A
C81    C90     1.473   .     S
C82    O123    1.298   .     A
C82    O122    1.293   .     A
C82    C89     1.474   .     S
C83    C108    1.403   .     A
C83    H113    1.084   .     S
C83    C829    1.390   1_554 S
C84    H114    1.084   .     S
C84    C107    1.403   .     A
C84    C830    1.389   .     S
C85    C153    1.454   .     S
C85    C90     1.417   .     A
C86    C89     1.413   .     A
C86    C155    1.451   .     S
C86    C168    1.392   .     S
C87    C157    1.452   .     S
C87    C89     1.419   .     A
C87    C165    1.394   .     S
C88    C159    1.452   .     S
C88    C90     1.416   .     A
C91    N120    1.367   .     A
C91    H115    1.081   .     S
C91    C574    1.416   1_545 S
C92    H116    1.081   .     S
C92    N119    1.366   .     A
C92    C333    1.415   .     S
C93    N120    1.367   .     A
C93    H117    1.081   .     S
C93    C572    1.415   1_545 S
C94    N119    1.367   .     A
C94    H118    1.081   .     S
C94    C331    1.416   .     S
C95    O128    1.289   .     A
C95    C100    1.453   .     S
C95    O125    1.290   .     A
C96    O127    1.290   .     A
C96    O126    1.292   .     A
C96    C99     1.457   .     S
C97    C107    1.406   .     A
C97    C129    1.455   .     S
C97    C99     1.403   .     A
C98    C131    1.454   .     S
C98    C108    1.407   .     A
C98    C100    1.402   .     A
C99    C101    1.404   .     A
C100   C102    1.402   .     A
C101   C103    1.414   .     A
C101   O133    1.385   .     S
C102   C104    1.412   .     A
C102   O141    1.386   .     S
C103   C109    1.418   .     A
C103   C105    1.422   .     A
C104   C106    1.423   .     A
C104   C110    1.417   .     A
C105   C107    1.417   .     A
C105   C826    1.415   .     S
C106   C108    1.417   .     A
C106   C825    1.415   1_554 S
C109   C149    1.447   .     S
C109   C803    1.390   .     S
C110   C151    1.447   .     S
C110   C804    1.389   1_554 S
Cu111  O123    1.990   .     S
Cu111  O127    1.968   .     S
Cu111  Cu112   2.678   .     S
Cu111  O121    1.990   .     S
Cu111  N119    2.012   .     S
Cu111  O125    1.967   .     S
Cu112  N120    2.012   .     S
Cu112  O128    1.968   .     S
Cu112  O124    1.990   .     S
Cu112  O126    1.967   .     S
Cu112  O122    1.990   .     S
C129   N130    1.158   .     T
C131   N132    1.157   .     T
O133   C134    1.416   .     S
C134   H135    1.114   .     S
C134   H136    1.112   .     S
C134   C137    1.521   .     S
C137   H139    1.110   .     S
C137   H140    1.111   .     S
C137   H138    1.111   .     S
O141   C142    1.416   .     S
C142   H144    1.117   .     S
C142   H143    1.112   .     S
C142   C145    1.522   .     S
C145   H147    1.108   .     S
C145   H148    1.110   .     S
C145   H146    1.110   .     S
C149   N150    1.158   .     T
C151   N152    1.158   .     T
C153   N154    1.157   .     T
C155   N156    1.156   .     T
C157   N158    1.156   .     T
C159   N160    1.156   .     T
C161   O204    1.295   .     A
C161   O201    1.295   .     A
C161   C170    1.473   .     S
C162   O203    1.298   .     A
C162   O202    1.293   .     A
C162   C169    1.474   .     S
C163   C188    1.403   .     A
C163   H193    1.084   .     S
C163   C909    1.390   1_554 S
C164   H194    1.084   .     S
C164   C187    1.403   .     A
C164   C910    1.389   .     S
C165   C233    1.454   .     S
C165   C170    1.417   .     A
C166   C169    1.413   .     A
C166   C235    1.451   .     S
C166   C8      1.392   1_655 S
C167   C237    1.452   .     S
C167   C169    1.419   .     A
C167   C5      1.394   1_655 S
C168   C239    1.452   .     S
C168   C170    1.416   .     A
C171   N200    1.367   .     A
C171   H195    1.081   .     S
C171   C654    1.416   1_545 S
C172   H196    1.081   .     S
C172   N199    1.366   .     A
C172   C413    1.415   .     S
C173   N200    1.367   .     A
C173   H197    1.081   .     S
C173   C652    1.415   1_545 S
C174   N199    1.367   .     A
C174   H198    1.081   .     S
C174   C411    1.416   .     S
C175   O208    1.289   .     A
C175   C180    1.453   .     S
C175   O205    1.290   .     A
C176   O207    1.290   .     A
C176   O206    1.292   .     A
C176   C179    1.457   .     S
C177   C187    1.406   .     A
C177   C209    1.455   .     S
C177   C179    1.403   .     A
C178   C211    1.454   .     S
C178   C188    1.407   .     A
C178   C180    1.402   .     A
C179   C181    1.404   .     A
C180   C182    1.402   .     A
C181   C183    1.414   .     A
C181   O213    1.385   .     S
C182   C184    1.412   .     A
C182   O221    1.386   .     S
C183   C189    1.418   .     A
C183   C185    1.422   .     A
C184   C186    1.423   .     A
C184   C190    1.417   .     A
C185   C187    1.417   .     A
C185   C906    1.415   .     S
C186   C188    1.417   .     A
C186   C905    1.415   1_554 S
C189   C229    1.447   .     S
C189   C883    1.390   .     S
C190   C231    1.447   .     S
C190   C884    1.389   1_554 S
Cu191  O203    1.990   .     S
Cu191  O207    1.968   .     S
Cu191  Cu192   2.678   .     S
Cu191  O201    1.990   .     S
Cu191  N199    2.012   .     S
Cu191  O205    1.967   .     S
Cu192  N200    2.012   .     S
Cu192  O208    1.968   .     S
Cu192  O204    1.990   .     S
Cu192  O206    1.967   .     S
Cu192  O202    1.990   .     S
C209   N210    1.158   .     T
C211   N212    1.157   .     T
O213   C214    1.416   .     S
C214   H215    1.114   .     S
C214   H216    1.112   .     S
C214   C217    1.521   .     S
C217   H219    1.110   .     S
C217   H220    1.111   .     S
C217   H218    1.111   .     S
O221   C222    1.416   .     S
C222   H224    1.117   .     S
C222   H223    1.112   .     S
C222   C225    1.522   .     S
C225   H227    1.108   .     S
C225   H228    1.110   .     S
C225   H226    1.110   .     S
C229   N230    1.158   .     T
C231   N232    1.158   .     T
C233   N234    1.157   .     T
C235   N236    1.156   .     T
C237   N238    1.156   .     T
C239   N240    1.156   .     T
C241   O284    1.295   .     A
C241   O281    1.295   .     A
C241   C250    1.473   .     S
C242   O283    1.298   .     A
C242   O282    1.293   .     A
C242   C249    1.474   .     S
C243   C268    1.403   .     A
C243   H273    1.084   .     S
C243   C989    1.390   1_554 S
C244   H274    1.084   .     S
C244   C267    1.403   .     A
C244   C990    1.389   .     S
C245   C313    1.454   .     S
C245   C250    1.417   .     A
C245   C407    1.394   1_455 S
C246   C249    1.413   .     A
C246   C315    1.451   .     S
C246   C328    1.392   .     S
C247   C317    1.452   .     S
C247   C249    1.419   .     A
C247   C325    1.394   .     S
C248   C319    1.452   .     S
C248   C250    1.416   .     A
C248   C406    1.392   1_455 S
C251   N280    1.367   .     A
C251   H275    1.081   .     S
C252   H276    1.081   .     S
C252   N279    1.366   .     A
C252   C493    1.415   .     S
C253   N280    1.367   .     A
C253   H277    1.081   .     S
C254   N279    1.367   .     A
C254   H278    1.081   .     S
C254   C491    1.416   .     S
C255   O288    1.289   .     A
C255   C260    1.453   .     S
C255   O285    1.290   .     A
C256   O287    1.290   .     A
C256   O286    1.292   .     A
C256   C259    1.457   .     S
C257   C267    1.406   .     A
C257   C289    1.455   .     S
C257   C259    1.403   .     A
C258   C291    1.454   .     S
C258   C268    1.407   .     A
C258   C260    1.402   .     A
C259   C261    1.404   .     A
C260   C262    1.402   .     A
C261   C263    1.414   .     A
C261   O293    1.385   .     S
C262   C264    1.412   .     A
C262   O301    1.386   .     S
C263   C269    1.418   .     A
C263   C265    1.422   .     A
C264   C266    1.423   .     A
C264   C270    1.417   .     A
C265   C267    1.417   .     A
C265   C986    1.415   .     S
C266   C268    1.417   .     A
C266   C985    1.415   1_554 S
C269   C309    1.447   .     S
C269   C963    1.390   .     S
C270   C311    1.447   .     S
C270   C964    1.389   1_554 S
Cu271  O283    1.990   .     S
Cu271  O287    1.968   .     S
Cu271  Cu272   2.678   .     S
Cu271  O281    1.990   .     S
Cu271  N279    2.012   .     S
Cu271  O285    1.967   .     S
Cu272  N280    2.012   .     S
Cu272  O288    1.968   .     S
Cu272  O284    1.990   .     S
Cu272  O286    1.967   .     S
Cu272  O282    1.990   .     S
C289   N290    1.158   .     T
C291   N292    1.157   .     T
O293   C294    1.416   .     S
C294   H295    1.114   .     S
C294   H296    1.112   .     S
C294   C297    1.521   .     S
C297   H299    1.110   .     S
C297   H300    1.111   .     S
C297   H298    1.111   .     S
O301   C302    1.416   .     S
C302   H304    1.117   .     S
C302   H303    1.112   .     S
C302   C305    1.522   .     S
C305   H307    1.108   .     S
C305   H308    1.110   .     S
C305   H306    1.110   .     S
C309   N310    1.158   .     T
C311   N312    1.158   .     T
C313   N314    1.157   .     T
C315   N316    1.156   .     T
C317   N318    1.156   .     T
C319   N320    1.156   .     T
C321   O364    1.295   .     A
C321   O361    1.295   .     A
C321   C330    1.473   .     S
C322   O363    1.298   .     A
C322   O362    1.293   .     A
C322   C329    1.474   .     S
C323   C348    1.403   .     A
C323   H353    1.084   .     S
C323   C1069   1.390   1_554 S
C324   H354    1.084   .     S
C324   C347    1.403   .     A
C324   C1070   1.389   .     S
C325   C393    1.454   .     S
C325   C330    1.417   .     A
C326   C329    1.413   .     A
C326   C395    1.451   .     S
C326   C408    1.392   .     S
C327   C397    1.452   .     S
C327   C329    1.419   .     A
C327   C405    1.394   .     S
C328   C399    1.452   .     S
C328   C330    1.416   .     A
C331   N360    1.367   .     A
C331   H355    1.081   .     S
C332   H356    1.081   .     S
C332   N359    1.366   .     A
C332   C573    1.415   .     S
C333   N360    1.367   .     A
C333   H357    1.081   .     S
C334   N359    1.367   .     A
C334   H358    1.081   .     S
C334   C571    1.416   .     S
C335   O368    1.289   .     A
C335   C340    1.453   .     S
C335   O365    1.290   .     A
C336   O367    1.290   .     A
C336   O366    1.292   .     A
C336   C339    1.457   .     S
C337   C347    1.406   .     A
C337   C369    1.455   .     S
C337   C339    1.403   .     A
C338   C371    1.454   .     S
C338   C348    1.407   .     A
C338   C340    1.402   .     A
C339   C341    1.404   .     A
C340   C342    1.402   .     A
C341   C343    1.414   .     A
C341   O373    1.385   .     S
C342   C344    1.412   .     A
C342   O381    1.386   .     S
C343   C349    1.418   .     A
C343   C345    1.422   .     A
C344   C346    1.423   .     A
C344   C350    1.417   .     A
C345   C347    1.417   .     A
C345   C1066   1.415   .     S
C346   C348    1.417   .     A
C346   C1065   1.415   1_554 S
C349   C389    1.447   .     S
C349   C1043   1.390   .     S
C350   C391    1.447   .     S
C350   C1044   1.389   1_554 S
Cu351  O363    1.990   .     S
Cu351  O367    1.968   .     S
Cu351  Cu352   2.678   .     S
Cu351  O361    1.990   .     S
Cu351  N359    2.012   .     S
Cu351  O365    1.967   .     S
Cu352  N360    2.012   .     S
Cu352  O368    1.968   .     S
Cu352  O364    1.990   .     S
Cu352  O366    1.967   .     S
Cu352  O362    1.990   .     S
C369   N370    1.158   .     T
C371   N372    1.157   .     T
O373   C374    1.416   .     S
C374   H375    1.114   .     S
C374   H376    1.112   .     S
C374   C377    1.521   .     S
C377   H379    1.110   .     S
C377   H380    1.111   .     S
C377   H378    1.111   .     S
O381   C382    1.416   .     S
C382   H384    1.117   .     S
C382   H383    1.112   .     S
C382   C385    1.522   .     S
C385   H387    1.108   .     S
C385   H388    1.110   .     S
C385   H386    1.110   .     S
C389   N390    1.158   .     T
C391   N392    1.158   .     T
C393   N394    1.157   .     T
C395   N396    1.156   .     T
C397   N398    1.156   .     T
C399   N400    1.156   .     T
C401   O444    1.295   .     A
C401   O441    1.295   .     A
C401   C410    1.473   .     S
C402   O443    1.298   .     A
C402   O442    1.293   .     A
C402   C409    1.474   .     S
C403   C428    1.403   .     A
C403   H433    1.084   .     S
C403   C1149   1.390   1_554 S
C404   H434    1.084   .     S
C404   C427    1.403   .     A
C404   C1150   1.389   .     S
C405   C473    1.454   .     S
C405   C410    1.417   .     A
C406   C409    1.413   .     A
C406   C475    1.451   .     S
C406   C248    1.392   1_655 S
C407   C477    1.452   .     S
C407   C409    1.419   .     A
C407   C245    1.394   1_655 S
C408   C479    1.452   .     S
C408   C410    1.416   .     A
C411   N440    1.367   .     A
C411   H435    1.081   .     S
C412   H436    1.081   .     S
C412   N439    1.366   .     A
C412   C653    1.415   .     S
C413   N440    1.367   .     A
C413   H437    1.081   .     S
C414   N439    1.367   .     A
C414   H438    1.081   .     S
C414   C651    1.416   .     S
C415   O448    1.289   .     A
C415   C420    1.453   .     S
C415   O445    1.290   .     A
C416   O447    1.290   .     A
C416   O446    1.292   .     A
C416   C419    1.457   .     S
C417   C427    1.406   .     A
C417   C449    1.455   .     S
C417   C419    1.403   .     A
C418   C451    1.454   .     S
C418   C428    1.407   .     A
C418   C420    1.402   .     A
C419   C421    1.404   .     A
C420   C422    1.402   .     A
C421   C423    1.414   .     A
C421   O453    1.385   .     S
C422   C424    1.412   .     A
C422   O461    1.386   .     S
C423   C429    1.418   .     A
C423   C425    1.422   .     A
C424   C426    1.423   .     A
C424   C430    1.417   .     A
C425   C427    1.417   .     A
C425   C1146   1.415   .     S
C426   C428    1.417   .     A
C426   C1145   1.415   1_554 S
C429   C469    1.447   .     S
C429   C1123   1.390   .     S
C430   C471    1.447   .     S
C430   C1124   1.389   1_554 S
Cu431  O443    1.990   .     S
Cu431  O447    1.968   .     S
Cu431  Cu432   2.678   .     S
Cu431  O441    1.990   .     S
Cu431  N439    2.012   .     S
Cu431  O445    1.967   .     S
Cu432  N440    2.012   .     S
Cu432  O448    1.968   .     S
Cu432  O444    1.990   .     S
Cu432  O446    1.967   .     S
Cu432  O442    1.990   .     S
C449   N450    1.158   .     T
C451   N452    1.157   .     T
O453   C454    1.416   .     S
C454   H455    1.114   .     S
C454   H456    1.112   .     S
C454   C457    1.521   .     S
C457   H459    1.110   .     S
C457   H460    1.111   .     S
C457   H458    1.111   .     S
O461   C462    1.416   .     S
C462   H464    1.117   .     S
C462   H463    1.112   .     S
C462   C465    1.522   .     S
C465   H467    1.108   .     S
C465   H468    1.110   .     S
C465   H466    1.110   .     S
C469   N470    1.158   .     T
C471   N472    1.158   .     T
C473   N474    1.157   .     T
C475   N476    1.156   .     T
C477   N478    1.156   .     T
C479   N480    1.156   .     T
C481   O524    1.295   .     A
C481   O521    1.295   .     A
C481   C490    1.473   .     S
C482   O523    1.298   .     A
C482   O522    1.293   .     A
C482   C489    1.474   .     S
C483   C508    1.403   .     A
C483   H513    1.084   .     S
C483   C1229   1.390   1_554 S
C484   H514    1.084   .     S
C484   C507    1.403   .     A
C484   C1230   1.389   .     S
C485   C553    1.454   .     S
C485   C490    1.417   .     A
C485   C647    1.394   1_455 S
C486   C489    1.413   .     A
C486   C555    1.451   .     S
C486   C568    1.392   .     S
C487   C557    1.452   .     S
C487   C489    1.419   .     A
C487   C565    1.394   .     S
C488   C559    1.452   .     S
C488   C490    1.416   .     A
C488   C646    1.392   1_455 S
C491   N520    1.367   .     A
C491   H515    1.081   .     S
C492   H516    1.081   .     S
C492   N519    1.366   .     A
C492   C13     1.415   1_565 S
C493   N520    1.367   .     A
C493   H517    1.081   .     S
C494   N519    1.367   .     A
C494   H518    1.081   .     S
C494   C11     1.416   1_565 S
C495   O528    1.289   .     A
C495   C500    1.453   .     S
C495   O525    1.290   .     A
C496   O527    1.290   .     A
C496   O526    1.292   .     A
C496   C499    1.457   .     S
C497   C507    1.406   .     A
C497   C529    1.455   .     S
C497   C499    1.403   .     A
C498   C531    1.454   .     S
C498   C508    1.407   .     A
C498   C500    1.402   .     A
C499   C501    1.404   .     A
C500   C502    1.402   .     A
C501   C503    1.414   .     A
C501   O533    1.385   .     S
C502   C504    1.412   .     A
C502   O541    1.386   .     S
C503   C509    1.418   .     A
C503   C505    1.422   .     A
C504   C506    1.423   .     A
C504   C510    1.417   .     A
C505   C507    1.417   .     A
C505   C1226   1.415   .     S
C506   C508    1.417   .     A
C506   C1225   1.415   1_554 S
C509   C549    1.447   .     S
C509   C1203   1.390   .     S
C510   C551    1.447   .     S
C510   C1204   1.389   1_554 S
Cu511  O523    1.990   .     S
Cu511  O527    1.968   .     S
Cu511  Cu512   2.678   .     S
Cu511  O521    1.990   .     S
Cu511  N519    2.012   .     S
Cu511  O525    1.967   .     S
Cu512  N520    2.012   .     S
Cu512  O528    1.968   .     S
Cu512  O524    1.990   .     S
Cu512  O526    1.967   .     S
Cu512  O522    1.990   .     S
C529   N530    1.158   .     T
C531   N532    1.157   .     T
O533   C534    1.416   .     S
C534   H535    1.114   .     S
C534   H536    1.112   .     S
C534   C537    1.521   .     S
C537   H539    1.110   .     S
C537   H540    1.111   .     S
C537   H538    1.111   .     S
O541   C542    1.416   .     S
C542   H544    1.117   .     S
C542   H543    1.112   .     S
C542   C545    1.522   .     S
C545   H547    1.108   .     S
C545   H548    1.110   .     S
C545   H546    1.110   .     S
C549   N550    1.158   .     T
C551   N552    1.158   .     T
C553   N554    1.157   .     T
C555   N556    1.156   .     T
C557   N558    1.156   .     T
C559   N560    1.156   .     T
C561   O604    1.295   .     A
C561   O601    1.295   .     A
C561   C570    1.473   .     S
C562   O603    1.298   .     A
C562   O602    1.293   .     A
C562   C569    1.474   .     S
C563   C588    1.403   .     A
C563   H593    1.084   .     S
C563   C1309   1.390   1_554 S
C564   H594    1.084   .     S
C564   C587    1.403   .     A
C564   C1310   1.389   .     S
C565   C633    1.454   .     S
C565   C570    1.417   .     A
C566   C569    1.413   .     A
C566   C635    1.451   .     S
C566   C648    1.392   .     S
C567   C637    1.452   .     S
C567   C569    1.419   .     A
C567   C645    1.394   .     S
C568   C639    1.452   .     S
C568   C570    1.416   .     A
C571   N600    1.367   .     A
C571   H595    1.081   .     S
C572   H596    1.081   .     S
C572   N599    1.366   .     A
C572   C93     1.415   1_565 S
C573   N600    1.367   .     A
C573   H597    1.081   .     S
C574   N599    1.367   .     A
C574   H598    1.081   .     S
C574   C91     1.416   1_565 S
C575   O608    1.289   .     A
C575   C580    1.453   .     S
C575   O605    1.290   .     A
C576   O607    1.290   .     A
C576   O606    1.292   .     A
C576   C579    1.457   .     S
C577   C587    1.406   .     A
C577   C609    1.455   .     S
C577   C579    1.403   .     A
C578   C611    1.454   .     S
C578   C588    1.407   .     A
C578   C580    1.402   .     A
C579   C581    1.404   .     A
C580   C582    1.402   .     A
C581   C583    1.414   .     A
C581   O613    1.385   .     S
C582   C584    1.412   .     A
C582   O621    1.386   .     S
C583   C589    1.418   .     A
C583   C585    1.422   .     A
C584   C586    1.423   .     A
C584   C590    1.417   .     A
C585   C587    1.417   .     A
C585   C1306   1.415   .     S
C586   C588    1.417   .     A
C586   C1305   1.415   1_554 S
C589   C629    1.447   .     S
C589   C1283   1.390   .     S
C590   C631    1.447   .     S
C590   C1284   1.389   1_554 S
Cu591  O603    1.990   .     S
Cu591  O607    1.968   .     S
Cu591  Cu592   2.678   .     S
Cu591  O601    1.990   .     S
Cu591  N599    2.012   .     S
Cu591  O605    1.967   .     S
Cu592  N600    2.012   .     S
Cu592  O608    1.968   .     S
Cu592  O604    1.990   .     S
Cu592  O606    1.967   .     S
Cu592  O602    1.990   .     S
C609   N610    1.158   .     T
C611   N612    1.157   .     T
O613   C614    1.416   .     S
C614   H615    1.114   .     S
C614   H616    1.112   .     S
C614   C617    1.521   .     S
C617   H619    1.110   .     S
C617   H620    1.111   .     S
C617   H618    1.111   .     S
O621   C622    1.416   .     S
C622   H624    1.117   .     S
C622   H623    1.112   .     S
C622   C625    1.522   .     S
C625   H627    1.108   .     S
C625   H628    1.110   .     S
C625   H626    1.110   .     S
C629   N630    1.158   .     T
C631   N632    1.158   .     T
C633   N634    1.157   .     T
C635   N636    1.156   .     T
C637   N638    1.156   .     T
C639   N640    1.156   .     T
C641   O684    1.295   .     A
C641   O681    1.295   .     A
C641   C650    1.473   .     S
C642   O683    1.298   .     A
C642   O682    1.293   .     A
C642   C649    1.474   .     S
C643   C668    1.403   .     A
C643   H673    1.084   .     S
C643   C1389   1.390   1_554 S
C644   H674    1.084   .     S
C644   C667    1.403   .     A
C644   C1390   1.389   .     S
C645   C713    1.454   .     S
C645   C650    1.417   .     A
C646   C649    1.413   .     A
C646   C715    1.451   .     S
C646   C488    1.392   1_655 S
C647   C717    1.452   .     S
C647   C649    1.419   .     A
C647   C485    1.394   1_655 S
C648   C719    1.452   .     S
C648   C650    1.416   .     A
C651   N680    1.367   .     A
C651   H675    1.081   .     S
C652   H676    1.081   .     S
C652   N679    1.366   .     A
C652   C173    1.415   1_565 S
C653   N680    1.367   .     A
C653   H677    1.081   .     S
C654   N679    1.367   .     A
C654   H678    1.081   .     S
C654   C171    1.416   1_565 S
C655   O688    1.289   .     A
C655   C660    1.453   .     S
C655   O685    1.290   .     A
C656   O687    1.290   .     A
C656   O686    1.292   .     A
C656   C659    1.457   .     S
C657   C667    1.406   .     A
C657   C689    1.455   .     S
C657   C659    1.403   .     A
C658   C691    1.454   .     S
C658   C668    1.407   .     A
C658   C660    1.402   .     A
C659   C661    1.404   .     A
C660   C662    1.402   .     A
C661   C663    1.414   .     A
C661   O693    1.385   .     S
C662   C664    1.412   .     A
C662   O701    1.386   .     S
C663   C669    1.418   .     A
C663   C665    1.422   .     A
C664   C666    1.423   .     A
C664   C670    1.417   .     A
C665   C667    1.417   .     A
C665   C1386   1.415   .     S
C666   C668    1.417   .     A
C666   C1385   1.415   1_554 S
C669   C709    1.447   .     S
C669   C1363   1.390   .     S
C670   C711    1.447   .     S
C670   C1364   1.389   1_554 S
Cu671  O683    1.990   .     S
Cu671  O687    1.968   .     S
Cu671  Cu672   2.678   .     S
Cu671  O681    1.990   .     S
Cu671  N679    2.012   .     S
Cu671  O685    1.967   .     S
Cu672  N680    2.012   .     S
Cu672  O688    1.968   .     S
Cu672  O684    1.990   .     S
Cu672  O686    1.967   .     S
Cu672  O682    1.990   .     S
C689   N690    1.158   .     T
C691   N692    1.157   .     T
O693   C694    1.416   .     S
C694   H695    1.114   .     S
C694   H696    1.112   .     S
C694   C697    1.521   .     S
C697   H699    1.110   .     S
C697   H700    1.111   .     S
C697   H698    1.111   .     S
O701   C702    1.416   .     S
C702   H704    1.117   .     S
C702   H703    1.112   .     S
C702   C705    1.522   .     S
C705   H707    1.108   .     S
C705   H708    1.110   .     S
C705   H706    1.110   .     S
C709   N710    1.158   .     T
C711   N712    1.158   .     T
C713   N714    1.157   .     T
C715   N716    1.156   .     T
C717   N718    1.156   .     T
C719   N720    1.156   .     T
C721   O764    1.295   .     A
C721   O761    1.295   .     A
C721   C730    1.473   .     S
C722   O763    1.298   .     A
C722   O762    1.293   .     A
C722   C729    1.474   .     S
C723   C748    1.403   .     A
C723   H753    1.084   .     S
C724   H754    1.084   .     S
C724   C747    1.403   .     A
C724   C30     1.389   1_556 S
C725   C793    1.454   .     S
C725   C730    1.417   .     A
C725   C887    1.394   1_455 S
C726   C729    1.413   .     A
C726   C795    1.451   .     S
C726   C808    1.392   .     S
C727   C797    1.452   .     S
C727   C729    1.419   .     A
C727   C805    1.394   .     S
C728   C799    1.452   .     S
C728   C730    1.416   .     A
C728   C886    1.392   1_455 S
C731   N760    1.367   .     A
C731   H755    1.081   .     S
C731   C1214   1.416   1_545 S
C732   H756    1.081   .     S
C732   N759    1.366   .     A
C732   C973    1.415   .     S
C733   N760    1.367   .     A
C733   H757    1.081   .     S
C733   C1212   1.415   1_545 S
C734   N759    1.367   .     A
C734   H758    1.081   .     S
C734   C971    1.416   .     S
C735   O768    1.289   .     A
C735   C740    1.453   .     S
C735   O765    1.290   .     A
C736   O767    1.290   .     A
C736   O766    1.292   .     A
C736   C739    1.457   .     S
C737   C747    1.406   .     A
C737   C769    1.455   .     S
C737   C739    1.403   .     A
C738   C771    1.454   .     S
C738   C748    1.407   .     A
C738   C740    1.402   .     A
C739   C741    1.404   .     A
C740   C742    1.402   .     A
C741   C743    1.414   .     A
C741   O773    1.385   .     S
C742   C744    1.412   .     A
C742   O781    1.386   .     S
C743   C749    1.418   .     A
C743   C745    1.422   .     A
C744   C746    1.423   .     A
C744   C750    1.417   .     A
C745   C747    1.417   .     A
C745   C26     1.415   1_556 S
C746   C748    1.417   .     A
C749   C789    1.447   .     S
C749   C3      1.390   1_556 S
C750   C791    1.447   .     S
Cu751  O763    1.990   .     S
Cu751  O767    1.968   .     S
Cu751  Cu752   2.678   .     S
Cu751  O761    1.990   .     S
Cu751  N759    2.012   .     S
Cu751  O765    1.967   .     S
Cu752  N760    2.012   .     S
Cu752  O768    1.968   .     S
Cu752  O764    1.990   .     S
Cu752  O766    1.967   .     S
Cu752  O762    1.990   .     S
C769   N770    1.158   .     T
C771   N772    1.157   .     T
O773   C774    1.416   .     S
C774   H775    1.114   .     S
C774   H776    1.112   .     S
C774   C777    1.521   .     S
C777   H779    1.110   .     S
C777   H780    1.111   .     S
C777   H778    1.111   .     S
O781   C782    1.416   .     S
C782   H784    1.117   .     S
C782   H783    1.112   .     S
C782   C785    1.522   .     S
C785   H787    1.108   .     S
C785   H788    1.110   .     S
C785   H786    1.110   .     S
C789   N790    1.158   .     T
C791   N792    1.158   .     T
C793   N794    1.157   .     T
C795   N796    1.156   .     T
C797   N798    1.156   .     T
C799   N800    1.156   .     T
C801   O844    1.295   .     A
C801   O841    1.295   .     A
C801   C810    1.473   .     S
C802   O843    1.298   .     A
C802   O842    1.293   .     A
C802   C809    1.474   .     S
C803   C828    1.403   .     A
C803   H833    1.084   .     S
C804   H834    1.084   .     S
C804   C827    1.403   .     A
C804   C110    1.389   1_556 S
C805   C873    1.454   .     S
C805   C810    1.417   .     A
C806   C809    1.413   .     A
C806   C875    1.451   .     S
C806   C888    1.392   .     S
C807   C877    1.452   .     S
C807   C809    1.419   .     A
C807   C885    1.394   .     S
C808   C879    1.452   .     S
C808   C810    1.416   .     A
C811   N840    1.367   .     A
C811   H835    1.081   .     S
C811   C1294   1.416   1_545 S
C812   H836    1.081   .     S
C812   N839    1.366   .     A
C812   C1053   1.415   .     S
C813   N840    1.367   .     A
C813   H837    1.081   .     S
C813   C1292   1.415   1_545 S
C814   N839    1.367   .     A
C814   H838    1.081   .     S
C814   C1051   1.416   .     S
C815   O848    1.289   .     A
C815   C820    1.453   .     S
C815   O845    1.290   .     A
C816   O847    1.290   .     A
C816   O846    1.292   .     A
C816   C819    1.457   .     S
C817   C827    1.406   .     A
C817   C849    1.455   .     S
C817   C819    1.403   .     A
C818   C851    1.454   .     S
C818   C828    1.407   .     A
C818   C820    1.402   .     A
C819   C821    1.404   .     A
C820   C822    1.402   .     A
C821   C823    1.414   .     A
C821   O853    1.385   .     S
C822   C824    1.412   .     A
C822   O861    1.386   .     S
C823   C829    1.418   .     A
C823   C825    1.422   .     A
C824   C826    1.423   .     A
C824   C830    1.417   .     A
C825   C827    1.417   .     A
C825   C106    1.415   1_556 S
C826   C828    1.417   .     A
C829   C869    1.447   .     S
C829   C83     1.390   1_556 S
C830   C871    1.447   .     S
Cu831  O843    1.990   .     S
Cu831  O847    1.968   .     S
Cu831  Cu832   2.678   .     S
Cu831  O841    1.990   .     S
Cu831  N839    2.012   .     S
Cu831  O845    1.967   .     S
Cu832  N840    2.012   .     S
Cu832  O848    1.968   .     S
Cu832  O844    1.990   .     S
Cu832  O846    1.967   .     S
Cu832  O842    1.990   .     S
C849   N850    1.158   .     T
C851   N852    1.157   .     T
O853   C854    1.416   .     S
C854   H855    1.114   .     S
C854   H856    1.112   .     S
C854   C857    1.521   .     S
C857   H859    1.110   .     S
C857   H860    1.111   .     S
C857   H858    1.111   .     S
O861   C862    1.416   .     S
C862   H864    1.117   .     S
C862   H863    1.112   .     S
C862   C865    1.522   .     S
C865   H867    1.108   .     S
C865   H868    1.110   .     S
C865   H866    1.110   .     S
C869   N870    1.158   .     T
C871   N872    1.158   .     T
C873   N874    1.157   .     T
C875   N876    1.156   .     T
C877   N878    1.156   .     T
C879   N880    1.156   .     T
C881   O924    1.295   .     A
C881   O921    1.295   .     A
C881   C890    1.473   .     S
C882   O923    1.298   .     A
C882   O922    1.293   .     A
C882   C889    1.474   .     S
C883   C908    1.403   .     A
C883   H913    1.084   .     S
C884   H914    1.084   .     S
C884   C907    1.403   .     A
C884   C190    1.389   1_556 S
C885   C953    1.454   .     S
C885   C890    1.417   .     A
C886   C889    1.413   .     A
C886   C955    1.451   .     S
C886   C728    1.392   1_655 S
C887   C957    1.452   .     S
C887   C889    1.419   .     A
C887   C725    1.394   1_655 S
C888   C959    1.452   .     S
C888   C890    1.416   .     A
C891   N920    1.367   .     A
C891   H915    1.081   .     S
C891   C1374   1.416   1_545 S
C892   H916    1.081   .     S
C892   N919    1.366   .     A
C892   C1133   1.415   .     S
C893   N920    1.367   .     A
C893   H917    1.081   .     S
C893   C1372   1.415   1_545 S
C894   N919    1.367   .     A
C894   H918    1.081   .     S
C894   C1131   1.416   .     S
C895   O928    1.289   .     A
C895   C900    1.453   .     S
C895   O925    1.290   .     A
C896   O927    1.290   .     A
C896   O926    1.292   .     A
C896   C899    1.457   .     S
C897   C907    1.406   .     A
C897   C929    1.455   .     S
C897   C899    1.403   .     A
C898   C931    1.454   .     S
C898   C908    1.407   .     A
C898   C900    1.402   .     A
C899   C901    1.404   .     A
C900   C902    1.402   .     A
C901   C903    1.414   .     A
C901   O933    1.385   .     S
C902   C904    1.412   .     A
C902   O941    1.386   .     S
C903   C909    1.418   .     A
C903   C905    1.422   .     A
C904   C906    1.423   .     A
C904   C910    1.417   .     A
C905   C907    1.417   .     A
C905   C186    1.415   1_556 S
C906   C908    1.417   .     A
C909   C949    1.447   .     S
C909   C163    1.390   1_556 S
C910   C951    1.447   .     S
Cu911  O923    1.990   .     S
Cu911  O927    1.968   .     S
Cu911  Cu912   2.678   .     S
Cu911  O921    1.990   .     S
Cu911  N919    2.012   .     S
Cu911  O925    1.967   .     S
Cu912  N920    2.012   .     S
Cu912  O928    1.968   .     S
Cu912  O924    1.990   .     S
Cu912  O926    1.967   .     S
Cu912  O922    1.990   .     S
C929   N930    1.158   .     T
C931   N932    1.157   .     T
O933   C934    1.416   .     S
C934   H935    1.114   .     S
C934   H936    1.112   .     S
C934   C937    1.521   .     S
C937   H939    1.110   .     S
C937   H940    1.111   .     S
C937   H938    1.111   .     S
O941   C942    1.416   .     S
C942   H944    1.117   .     S
C942   H943    1.112   .     S
C942   C945    1.522   .     S
C945   H947    1.108   .     S
C945   H948    1.110   .     S
C945   H946    1.110   .     S
C949   N950    1.158   .     T
C951   N952    1.158   .     T
C953   N954    1.157   .     T
C955   N956    1.156   .     T
C957   N958    1.156   .     T
C959   N960    1.156   .     T
C961   O1004   1.295   .     A
C961   O1001   1.295   .     A
C961   C970    1.473   .     S
C962   O1003   1.298   .     A
C962   O1002   1.293   .     A
C962   C969    1.474   .     S
C963   C988    1.403   .     A
C963   H993    1.084   .     S
C964   H994    1.084   .     S
C964   C987    1.403   .     A
C964   C270    1.389   1_556 S
C965   C1033   1.454   .     S
C965   C970    1.417   .     A
C965   C1127   1.394   1_455 S
C966   C969    1.413   .     A
C966   C1035   1.451   .     S
C966   C1048   1.392   .     S
C967   C1037   1.452   .     S
C967   C969    1.419   .     A
C967   C1045   1.394   .     S
C968   C1039   1.452   .     S
C968   C970    1.416   .     A
C968   C1126   1.392   1_455 S
C971   N1000   1.367   .     A
C971   H995    1.081   .     S
C972   H996    1.081   .     S
C972   N999    1.366   .     A
C972   C1213   1.415   .     S
C973   N1000   1.367   .     A
C973   H997    1.081   .     S
C974   N999    1.367   .     A
C974   H998    1.081   .     S
C974   C1211   1.416   .     S
C975   O1008   1.289   .     A
C975   C980    1.453   .     S
C975   O1005   1.290   .     A
C976   O1007   1.290   .     A
C976   O1006   1.292   .     A
C976   C979    1.457   .     S
C977   C987    1.406   .     A
C977   C1009   1.455   .     S
C977   C979    1.403   .     A
C978   C1011   1.454   .     S
C978   C988    1.407   .     A
C978   C980    1.402   .     A
C979   C981    1.404   .     A
C980   C982    1.402   .     A
C981   C983    1.414   .     A
C981   O1013   1.385   .     S
C982   C984    1.412   .     A
C982   O1021   1.386   .     S
C983   C989    1.418   .     A
C983   C985    1.422   .     A
C984   C986    1.423   .     A
C984   C990    1.417   .     A
C985   C987    1.417   .     A
C985   C266    1.415   1_556 S
C986   C988    1.417   .     A
C989   C1029   1.447   .     S
C989   C243    1.390   1_556 S
C990   C1031   1.447   .     S
Cu991  O1003   1.990   .     S
Cu991  O1007   1.968   .     S
Cu991  Cu992   2.678   .     S
Cu991  O1001   1.990   .     S
Cu991  N999    2.012   .     S
Cu991  O1005   1.967   .     S
Cu992  N1000   2.012   .     S
Cu992  O1008   1.968   .     S
Cu992  O1004   1.990   .     S
Cu992  O1006   1.967   .     S
Cu992  O1002   1.990   .     S
C1009  N1010   1.158   .     T
C1011  N1012   1.157   .     T
O1013  C1014   1.416   .     S
C1014  H1015   1.114   .     S
C1014  H1016   1.112   .     S
C1014  C1017   1.521   .     S
C1017  H1019   1.110   .     S
C1017  H1020   1.111   .     S
C1017  H1018   1.111   .     S
O1021  C1022   1.416   .     S
C1022  H1024   1.117   .     S
C1022  H1023   1.112   .     S
C1022  C1025   1.522   .     S
C1025  H1027   1.108   .     S
C1025  H1028   1.110   .     S
C1025  H1026   1.110   .     S
C1029  N1030   1.158   .     T
C1031  N1032   1.158   .     T
C1033  N1034   1.157   .     T
C1035  N1036   1.156   .     T
C1037  N1038   1.156   .     T
C1039  N1040   1.156   .     T
C1041  O1084   1.295   .     A
C1041  O1081   1.295   .     A
C1041  C1050   1.473   .     S
C1042  O1083   1.298   .     A
C1042  O1082   1.293   .     A
C1042  C1049   1.474   .     S
C1043  C1068   1.403   .     A
C1043  H1073   1.084   .     S
C1044  H1074   1.084   .     S
C1044  C1067   1.403   .     A
C1044  C350    1.389   1_556 S
C1045  C1113   1.454   .     S
C1045  C1050   1.417   .     A
C1046  C1049   1.413   .     A
C1046  C1115   1.451   .     S
C1046  C1128   1.392   .     S
C1047  C1117   1.452   .     S
C1047  C1049   1.419   .     A
C1047  C1125   1.394   .     S
C1048  C1119   1.452   .     S
C1048  C1050   1.416   .     A
C1051  N1080   1.367   .     A
C1051  H1075   1.081   .     S
C1052  H1076   1.081   .     S
C1052  N1079   1.366   .     A
C1052  C1293   1.415   .     S
C1053  N1080   1.367   .     A
C1053  H1077   1.081   .     S
C1054  N1079   1.367   .     A
C1054  H1078   1.081   .     S
C1054  C1291   1.416   .     S
C1055  O1088   1.289   .     A
C1055  C1060   1.453   .     S
C1055  O1085   1.290   .     A
C1056  O1087   1.290   .     A
C1056  O1086   1.292   .     A
C1056  C1059   1.457   .     S
C1057  C1067   1.406   .     A
C1057  C1089   1.455   .     S
C1057  C1059   1.403   .     A
C1058  C1091   1.454   .     S
C1058  C1068   1.407   .     A
C1058  C1060   1.402   .     A
C1059  C1061   1.404   .     A
C1060  C1062   1.402   .     A
C1061  C1063   1.414   .     A
C1061  O1093   1.385   .     S
C1062  C1064   1.412   .     A
C1062  O1101   1.386   .     S
C1063  C1069   1.418   .     A
C1063  C1065   1.422   .     A
C1064  C1066   1.423   .     A
C1064  C1070   1.417   .     A
C1065  C1067   1.417   .     A
C1065  C346    1.415   1_556 S
C1066  C1068   1.417   .     A
C1069  C1109   1.447   .     S
C1069  C323    1.390   1_556 S
C1070  C1111   1.447   .     S
Cu1071 O1083   1.990   .     S
Cu1071 O1087   1.968   .     S
Cu1071 Cu1072  2.678   .     S
Cu1071 O1081   1.990   .     S
Cu1071 N1079   2.012   .     S
Cu1071 O1085   1.967   .     S
Cu1072 N1080   2.012   .     S
Cu1072 O1088   1.968   .     S
Cu1072 O1084   1.990   .     S
Cu1072 O1086   1.967   .     S
Cu1072 O1082   1.990   .     S
C1089  N1090   1.158   .     T
C1091  N1092   1.157   .     T
O1093  C1094   1.416   .     S
C1094  H1095   1.114   .     S
C1094  H1096   1.112   .     S
C1094  C1097   1.521   .     S
C1097  H1099   1.110   .     S
C1097  H1100   1.111   .     S
C1097  H1098   1.111   .     S
O1101  C1102   1.416   .     S
C1102  H1104   1.117   .     S
C1102  H1103   1.112   .     S
C1102  C1105   1.522   .     S
C1105  H1107   1.108   .     S
C1105  H1108   1.110   .     S
C1105  H1106   1.110   .     S
C1109  N1110   1.158   .     T
C1111  N1112   1.158   .     T
C1113  N1114   1.157   .     T
C1115  N1116   1.156   .     T
C1117  N1118   1.156   .     T
C1119  N1120   1.156   .     T
C1121  O1164   1.295   .     A
C1121  O1161   1.295   .     A
C1121  C1130   1.473   .     S
C1122  O1163   1.298   .     A
C1122  O1162   1.293   .     A
C1122  C1129   1.474   .     S
C1123  C1148   1.403   .     A
C1123  H1153   1.084   .     S
C1124  H1154   1.084   .     S
C1124  C1147   1.403   .     A
C1124  C430    1.389   1_556 S
C1125  C1193   1.454   .     S
C1125  C1130   1.417   .     A
C1126  C1129   1.413   .     A
C1126  C1195   1.451   .     S
C1126  C968    1.392   1_655 S
C1127  C1197   1.452   .     S
C1127  C1129   1.419   .     A
C1127  C965    1.394   1_655 S
C1128  C1199   1.452   .     S
C1128  C1130   1.416   .     A
C1131  N1160   1.367   .     A
C1131  H1155   1.081   .     S
C1132  H1156   1.081   .     S
C1132  N1159   1.366   .     A
C1132  C1373   1.415   .     S
C1133  N1160   1.367   .     A
C1133  H1157   1.081   .     S
C1134  N1159   1.367   .     A
C1134  H1158   1.081   .     S
C1134  C1371   1.416   .     S
C1135  O1168   1.289   .     A
C1135  C1140   1.453   .     S
C1135  O1165   1.290   .     A
C1136  O1167   1.290   .     A
C1136  O1166   1.292   .     A
C1136  C1139   1.457   .     S
C1137  C1147   1.406   .     A
C1137  C1169   1.455   .     S
C1137  C1139   1.403   .     A
C1138  C1171   1.454   .     S
C1138  C1148   1.407   .     A
C1138  C1140   1.402   .     A
C1139  C1141   1.404   .     A
C1140  C1142   1.402   .     A
C1141  C1143   1.414   .     A
C1141  O1173   1.385   .     S
C1142  C1144   1.412   .     A
C1142  O1181   1.386   .     S
C1143  C1149   1.418   .     A
C1143  C1145   1.422   .     A
C1144  C1146   1.423   .     A
C1144  C1150   1.417   .     A
C1145  C1147   1.417   .     A
C1145  C426    1.415   1_556 S
C1146  C1148   1.417   .     A
C1149  C1189   1.447   .     S
C1149  C403    1.390   1_556 S
C1150  C1191   1.447   .     S
Cu1151 O1163   1.990   .     S
Cu1151 O1167   1.968   .     S
Cu1151 Cu1152  2.678   .     S
Cu1151 O1161   1.990   .     S
Cu1151 N1159   2.012   .     S
Cu1151 O1165   1.967   .     S
Cu1152 N1160   2.012   .     S
Cu1152 O1168   1.968   .     S
Cu1152 O1164   1.990   .     S
Cu1152 O1166   1.967   .     S
Cu1152 O1162   1.990   .     S
C1169  N1170   1.158   .     T
C1171  N1172   1.157   .     T
O1173  C1174   1.416   .     S
C1174  H1175   1.114   .     S
C1174  H1176   1.112   .     S
C1174  C1177   1.521   .     S
C1177  H1179   1.110   .     S
C1177  H1180   1.111   .     S
C1177  H1178   1.111   .     S
O1181  C1182   1.416   .     S
C1182  H1184   1.117   .     S
C1182  H1183   1.112   .     S
C1182  C1185   1.522   .     S
C1185  H1187   1.108   .     S
C1185  H1188   1.110   .     S
C1185  H1186   1.110   .     S
C1189  N1190   1.158   .     T
C1191  N1192   1.158   .     T
C1193  N1194   1.157   .     T
C1195  N1196   1.156   .     T
C1197  N1198   1.156   .     T
C1199  N1200   1.156   .     T
C1201  O1244   1.295   .     A
C1201  O1241   1.295   .     A
C1201  C1210   1.473   .     S
C1202  O1243   1.298   .     A
C1202  O1242   1.293   .     A
C1202  C1209   1.474   .     S
C1203  C1228   1.403   .     A
C1203  H1233   1.084   .     S
C1204  H1234   1.084   .     S
C1204  C1227   1.403   .     A
C1204  C510    1.389   1_556 S
C1205  C1273   1.454   .     S
C1205  C1210   1.417   .     A
C1205  C1367   1.394   1_455 S
C1206  C1209   1.413   .     A
C1206  C1275   1.451   .     S
C1206  C1288   1.392   .     S
C1207  C1277   1.452   .     S
C1207  C1209   1.419   .     A
C1207  C1285   1.394   .     S
C1208  C1279   1.452   .     S
C1208  C1210   1.416   .     A
C1208  C1366   1.392   1_455 S
C1211  N1240   1.367   .     A
C1211  H1235   1.081   .     S
C1212  H1236   1.081   .     S
C1212  N1239   1.366   .     A
C1212  C733    1.415   1_565 S
C1213  N1240   1.367   .     A
C1213  H1237   1.081   .     S
C1214  N1239   1.367   .     A
C1214  H1238   1.081   .     S
C1214  C731    1.416   1_565 S
C1215  O1248   1.289   .     A
C1215  C1220   1.453   .     S
C1215  O1245   1.290   .     A
C1216  O1247   1.290   .     A
C1216  O1246   1.292   .     A
C1216  C1219   1.457   .     S
C1217  C1227   1.406   .     A
C1217  C1249   1.455   .     S
C1217  C1219   1.403   .     A
C1218  C1251   1.454   .     S
C1218  C1228   1.407   .     A
C1218  C1220   1.402   .     A
C1219  C1221   1.404   .     A
C1220  C1222   1.402   .     A
C1221  C1223   1.414   .     A
C1221  O1253   1.385   .     S
C1222  C1224   1.412   .     A
C1222  O1261   1.386   .     S
C1223  C1229   1.418   .     A
C1223  C1225   1.422   .     A
C1224  C1226   1.423   .     A
C1224  C1230   1.417   .     A
C1225  C1227   1.417   .     A
C1225  C506    1.415   1_556 S
C1226  C1228   1.417   .     A
C1229  C1269   1.447   .     S
C1229  C483    1.390   1_556 S
C1230  C1271   1.447   .     S
Cu1231 O1243   1.990   .     S
Cu1231 O1247   1.968   .     S
Cu1231 Cu1232  2.678   .     S
Cu1231 O1241   1.990   .     S
Cu1231 N1239   2.012   .     S
Cu1231 O1245   1.967   .     S
Cu1232 N1240   2.012   .     S
Cu1232 O1248   1.968   .     S
Cu1232 O1244   1.990   .     S
Cu1232 O1246   1.967   .     S
Cu1232 O1242   1.990   .     S
C1249  N1250   1.158   .     T
C1251  N1252   1.157   .     T
O1253  C1254   1.416   .     S
C1254  H1255   1.114   .     S
C1254  H1256   1.112   .     S
C1254  C1257   1.521   .     S
C1257  H1259   1.110   .     S
C1257  H1260   1.111   .     S
C1257  H1258   1.111   .     S
O1261  C1262   1.416   .     S
C1262  H1264   1.117   .     S
C1262  H1263   1.112   .     S
C1262  C1265   1.522   .     S
C1265  H1267   1.108   .     S
C1265  H1268   1.110   .     S
C1265  H1266   1.110   .     S
C1269  N1270   1.158   .     T
C1271  N1272   1.158   .     T
C1273  N1274   1.157   .     T
C1275  N1276   1.156   .     T
C1277  N1278   1.156   .     T
C1279  N1280   1.156   .     T
C1281  O1324   1.295   .     A
C1281  O1321   1.295   .     A
C1281  C1290   1.473   .     S
C1282  O1323   1.298   .     A
C1282  O1322   1.293   .     A
C1282  C1289   1.474   .     S
C1283  C1308   1.403   .     A
C1283  H1313   1.084   .     S
C1284  H1314   1.084   .     S
C1284  C1307   1.403   .     A
C1284  C590    1.389   1_556 S
C1285  C1353   1.454   .     S
C1285  C1290   1.417   .     A
C1286  C1289   1.413   .     A
C1286  C1355   1.451   .     S
C1286  C1368   1.392   .     S
C1287  C1357   1.452   .     S
C1287  C1289   1.419   .     A
C1287  C1365   1.394   .     S
C1288  C1359   1.452   .     S
C1288  C1290   1.416   .     A
C1291  N1320   1.367   .     A
C1291  H1315   1.081   .     S
C1292  H1316   1.081   .     S
C1292  N1319   1.366   .     A
C1292  C813    1.415   1_565 S
C1293  N1320   1.367   .     A
C1293  H1317   1.081   .     S
C1294  N1319   1.367   .     A
C1294  H1318   1.081   .     S
C1294  C811    1.416   1_565 S
C1295  O1328   1.289   .     A
C1295  C1300   1.453   .     S
C1295  O1325   1.290   .     A
C1296  O1327   1.290   .     A
C1296  O1326   1.292   .     A
C1296  C1299   1.457   .     S
C1297  C1307   1.406   .     A
C1297  C1329   1.455   .     S
C1297  C1299   1.403   .     A
C1298  C1331   1.454   .     S
C1298  C1308   1.407   .     A
C1298  C1300   1.402   .     A
C1299  C1301   1.404   .     A
C1300  C1302   1.402   .     A
C1301  C1303   1.414   .     A
C1301  O1333   1.385   .     S
C1302  C1304   1.412   .     A
C1302  O1341   1.386   .     S
C1303  C1309   1.418   .     A
C1303  C1305   1.422   .     A
C1304  C1306   1.423   .     A
C1304  C1310   1.417   .     A
C1305  C1307   1.417   .     A
C1305  C586    1.415   1_556 S
C1306  C1308   1.417   .     A
C1309  C1349   1.447   .     S
C1309  C563    1.390   1_556 S
C1310  C1351   1.447   .     S
Cu1311 O1323   1.990   .     S
Cu1311 O1327   1.968   .     S
Cu1311 Cu1312  2.678   .     S
Cu1311 O1321   1.990   .     S
Cu1311 N1319   2.012   .     S
Cu1311 O1325   1.967   .     S
Cu1312 N1320   2.012   .     S
Cu1312 O1328   1.968   .     S
Cu1312 O1324   1.990   .     S
Cu1312 O1326   1.967   .     S
Cu1312 O1322   1.990   .     S
C1329  N1330   1.158   .     T
C1331  N1332   1.157   .     T
O1333  C1334   1.416   .     S
C1334  H1335   1.114   .     S
C1334  H1336   1.112   .     S
C1334  C1337   1.521   .     S
C1337  H1339   1.110   .     S
C1337  H1340   1.111   .     S
C1337  H1338   1.111   .     S
O1341  C1342   1.416   .     S
C1342  H1344   1.117   .     S
C1342  H1343   1.112   .     S
C1342  C1345   1.522   .     S
C1345  H1347   1.108   .     S
C1345  H1348   1.110   .     S
C1345  H1346   1.110   .     S
C1349  N1350   1.158   .     T
C1351  N1352   1.158   .     T
C1353  N1354   1.157   .     T
C1355  N1356   1.156   .     T
C1357  N1358   1.156   .     T
C1359  N1360   1.156   .     T
C1361  O1404   1.295   .     A
C1361  O1401   1.295   .     A
C1361  C1370   1.473   .     S
C1362  O1403   1.298   .     A
C1362  O1402   1.293   .     A
C1362  C1369   1.474   .     S
C1363  C1388   1.403   .     A
C1363  H1393   1.084   .     S
C1364  H1394   1.084   .     S
C1364  C1387   1.403   .     A
C1364  C670    1.389   1_556 S
C1365  C1433   1.454   .     S
C1365  C1370   1.417   .     A
C1366  C1369   1.413   .     A
C1366  C1435   1.451   .     S
C1366  C1208   1.392   1_655 S
C1367  C1437   1.452   .     S
C1367  C1369   1.419   .     A
C1367  C1205   1.394   1_655 S
C1368  C1439   1.452   .     S
C1368  C1370   1.416   .     A
C1371  N1400   1.367   .     A
C1371  H1395   1.081   .     S
C1372  H1396   1.081   .     S
C1372  N1399   1.366   .     A
C1372  C893    1.415   1_565 S
C1373  N1400   1.367   .     A
C1373  H1397   1.081   .     S
C1374  N1399   1.367   .     A
C1374  H1398   1.081   .     S
C1374  C891    1.416   1_565 S
C1375  O1408   1.289   .     A
C1375  C1380   1.453   .     S
C1375  O1405   1.290   .     A
C1376  O1407   1.290   .     A
C1376  O1406   1.292   .     A
C1376  C1379   1.457   .     S
C1377  C1387   1.406   .     A
C1377  C1409   1.455   .     S
C1377  C1379   1.403   .     A
C1378  C1411   1.454   .     S
C1378  C1388   1.407   .     A
C1378  C1380   1.402   .     A
C1379  C1381   1.404   .     A
C1380  C1382   1.402   .     A
C1381  C1383   1.414   .     A
C1381  O1413   1.385   .     S
C1382  C1384   1.412   .     A
C1382  O1421   1.386   .     S
C1383  C1389   1.418   .     A
C1383  C1385   1.422   .     A
C1384  C1386   1.423   .     A
C1384  C1390   1.417   .     A
C1385  C1387   1.417   .     A
C1385  C666    1.415   1_556 S
C1386  C1388   1.417   .     A
C1389  C1429   1.447   .     S
C1389  C643    1.390   1_556 S
C1390  C1431   1.447   .     S
Cu1391 O1403   1.990   .     S
Cu1391 O1407   1.968   .     S
Cu1391 Cu1392  2.678   .     S
Cu1391 O1401   1.990   .     S
Cu1391 N1399   2.012   .     S
Cu1391 O1405   1.967   .     S
Cu1392 N1400   2.012   .     S
Cu1392 O1408   1.968   .     S
Cu1392 O1404   1.990   .     S
Cu1392 O1406   1.967   .     S
Cu1392 O1402   1.990   .     S
C1409  N1410   1.158   .     T
C1411  N1412   1.157   .     T
O1413  C1414   1.416   .     S
C1414  H1415   1.114   .     S
C1414  H1416   1.112   .     S
C1414  C1417   1.521   .     S
C1417  H1419   1.110   .     S
C1417  H1420   1.111   .     S
C1417  H1418   1.111   .     S
O1421  C1422   1.416   .     S
C1422  H1424   1.117   .     S
C1422  H1423   1.112   .     S
C1422  C1425   1.522   .     S
C1425  H1427   1.108   .     S
C1425  H1428   1.110   .     S
C1425  H1426   1.110   .     S
C1429  N1430   1.158   .     T
C1431  N1432   1.158   .     T
C1433  N1434   1.157   .     T
C1435  N1436   1.156   .     T
C1437  N1438   1.156   .     T
C1439  N1440   1.156   .     T
