data_str_m2_o10_o17_pcu_sym.222
_audit_creation_date              2020-01-03
_audit_creation_method            'Materials Studio'
_symmetry_space_group_name_H-M    'P1'
_symmetry_Int_Tables_number       1
_symmetry_cell_setting            triclinic
loop_
_symmetry_equiv_pos_as_xyz
  x,y,z
_cell_length_a                    30.0350
_cell_length_b                    26.3515
_cell_length_c                    22.4275
_cell_angle_alpha                 103.0384
_cell_angle_beta                  95.1744
_cell_angle_gamma                 94.6617
loop_
_atom_site_label
_atom_site_type_symbol
_atom_site_fract_x
_atom_site_fract_y
_atom_site_fract_z
_atom_site_U_iso_or_equiv
_atom_site_adp_type
_atom_site_occupancy
C1     C     0.24844   0.06667   0.15124   0.00000  Uiso   1.00
C2     C     0.25156   0.26666   0.18209   0.00000  Uiso   1.00
C3     C     0.01186   0.07310   0.11745   0.00000  Uiso   1.00
C4     C     0.48814   0.26024   0.21588   0.00000  Uiso   1.00
C5     C     0.24376   0.01088   0.14294   0.00000  Uiso   1.00
C6     C     0.25624   0.32245   0.19039   0.00000  Uiso   1.00
C7     C     0.16449   0.16590   0.16684   0.00000  Uiso   1.00
C8     C     0.33551   0.16743   0.16650   0.00000  Uiso   1.00
C9     C     0.41193   0.21514   0.19075   0.00000  Uiso   1.00
C10    C     0.08807   0.11819   0.14258   0.00000  Uiso   1.00
C11    C     0.38375   0.16859   0.16605   0.00000  Uiso   1.00
C12    C     0.11625   0.16475   0.16728   0.00000  Uiso   1.00
C13    C     0.40121   0.12213   0.14098   0.00000  Uiso   1.00
C14    C     0.09878   0.21120   0.19236   0.00000  Uiso   1.00
C15    C     0.44753   0.12057   0.14101   0.00000  Uiso   1.00
C16    C     0.05247   0.21277   0.19233   0.00000  Uiso   1.00
C17    C     0.47655   0.16711   0.16641   0.00000  Uiso   1.00
C18    C     0.02345   0.16623   0.16692   0.00000  Uiso   1.00
C19    C     0.45873   0.21458   0.19119   0.00000  Uiso   1.00
C20    C     0.04127   0.11876   0.14214   0.00000  Uiso   1.00
C21    C     0.46558   0.07362   0.11659   0.00000  Uiso   1.00
C22    C     0.03442   0.25971   0.21674   0.00000  Uiso   1.00
Cu23   Cu    0.25500   0.17246   0.22813   0.00000  Uiso   1.00
Cu24   Cu    0.24499   0.16087   0.10521   0.00000  Uiso   1.00
H25    H     0.37808   0.08730   0.12233   0.00000  Uiso   1.00
H26    H     0.12192   0.24604   0.21100   0.00000  Uiso   1.00
H27    H     0.02417   0.03624   0.09817   0.00000  Uiso   1.00
H28    H     0.47583   0.29710   0.23516   0.00000  Uiso   1.00
N29    N     0.23744   0.15214   0.01284   0.00000  Uiso   1.00
N30    N     0.26255   0.18119   0.32049   0.00000  Uiso   1.00
O31    O     0.25325   0.09538   0.20659   0.00000  Uiso   1.00
O32    O     0.24674   0.23796   0.12674   0.00000  Uiso   1.00
O33    O     0.24480   0.08559   0.10279   0.00000  Uiso   1.00
O34    O     0.25520   0.24774   0.23055   0.00000  Uiso   1.00
O35    O     0.18935   0.17155   0.21857   0.00000  Uiso   1.00
O36    O     0.31064   0.16179   0.11476   0.00000  Uiso   1.00
O37    O     0.18090   0.16176   0.11477   0.00000  Uiso   1.00
O38    O     0.31910   0.17157   0.21857   0.00000  Uiso   1.00
I39    I     0.38255   0.28572   0.22428   0.00000  Uiso   1.00
I40    I     0.11745   0.04761   0.10905   0.00000  Uiso   1.00
I41    I     0.42602   0.00104   0.07702   0.00000  Uiso   1.00
I42    I     0.07398   0.33229   0.25632   0.00000  Uiso   1.00
I43    I     0.21130   0.30347   0.05258   0.00000  Uiso   1.00
I44    I     0.28870   0.02986   0.28075   0.00000  Uiso   1.00
O45    O     0.20543   0.11908   0.30815   0.00000  Uiso   1.00
H46    H     0.18935   0.10075   0.00182   0.00000  Uiso   1.00
O47    O     0.29457   0.21425   0.02518   0.00000  Uiso   1.00
H48    H     0.31065   0.23258   0.33152   0.00000  Uiso   1.00
C49    C     0.74844   0.06667   0.15124   0.00000  Uiso   1.00
C50    C     0.75156   0.26666   0.18209   0.00000  Uiso   1.00
C51    C     0.51186   0.07310   0.11745   0.00000  Uiso   1.00
C52    C     0.98814   0.26024   0.21588   0.00000  Uiso   1.00
C53    C     0.74376   0.01088   0.14294   0.00000  Uiso   1.00
C54    C     0.75624   0.32245   0.19039   0.00000  Uiso   1.00
C55    C     0.66449   0.16590   0.16684   0.00000  Uiso   1.00
C56    C     0.83551   0.16743   0.16650   0.00000  Uiso   1.00
C57    C     0.91193   0.21514   0.19075   0.00000  Uiso   1.00
C58    C     0.58807   0.11819   0.14258   0.00000  Uiso   1.00
C59    C     0.88375   0.16859   0.16605   0.00000  Uiso   1.00
C60    C     0.61625   0.16475   0.16728   0.00000  Uiso   1.00
C61    C     0.90121   0.12213   0.14098   0.00000  Uiso   1.00
C62    C     0.59878   0.21120   0.19236   0.00000  Uiso   1.00
C63    C     0.94753   0.12057   0.14101   0.00000  Uiso   1.00
C64    C     0.55247   0.21277   0.19233   0.00000  Uiso   1.00
C65    C     0.97655   0.16711   0.16641   0.00000  Uiso   1.00
C66    C     0.52345   0.16623   0.16692   0.00000  Uiso   1.00
C67    C     0.95873   0.21458   0.19119   0.00000  Uiso   1.00
C68    C     0.54127   0.11876   0.14214   0.00000  Uiso   1.00
C69    C     0.96558   0.07362   0.11659   0.00000  Uiso   1.00
C70    C     0.53442   0.25971   0.21674   0.00000  Uiso   1.00
Cu71   Cu    0.75500   0.17246   0.22813   0.00000  Uiso   1.00
Cu72   Cu    0.74499   0.16087   0.10521   0.00000  Uiso   1.00
H73    H     0.87808   0.08730   0.12233   0.00000  Uiso   1.00
H74    H     0.62192   0.24604   0.21100   0.00000  Uiso   1.00
H75    H     0.52417   0.03624   0.09817   0.00000  Uiso   1.00
H76    H     0.97583   0.29710   0.23516   0.00000  Uiso   1.00
N77    N     0.73744   0.15214   0.01284   0.00000  Uiso   1.00
N78    N     0.76255   0.18119   0.32049   0.00000  Uiso   1.00
O79    O     0.75325   0.09538   0.20659   0.00000  Uiso   1.00
O80    O     0.74674   0.23796   0.12674   0.00000  Uiso   1.00
O81    O     0.74480   0.08559   0.10279   0.00000  Uiso   1.00
O82    O     0.75520   0.24774   0.23055   0.00000  Uiso   1.00
O83    O     0.68935   0.17155   0.21857   0.00000  Uiso   1.00
O84    O     0.81064   0.16179   0.11476   0.00000  Uiso   1.00
O85    O     0.68090   0.16176   0.11477   0.00000  Uiso   1.00
O86    O     0.81910   0.17157   0.21857   0.00000  Uiso   1.00
I87    I     0.88255   0.28572   0.22428   0.00000  Uiso   1.00
I88    I     0.61745   0.04761   0.10905   0.00000  Uiso   1.00
I89    I     0.92602   0.00104   0.07702   0.00000  Uiso   1.00
I90    I     0.57398   0.33229   0.25632   0.00000  Uiso   1.00
I91    I     0.71130   0.30347   0.05258   0.00000  Uiso   1.00
I92    I     0.78870   0.02986   0.28075   0.00000  Uiso   1.00
O93    O     0.70543   0.11908   0.30815   0.00000  Uiso   1.00
H94    H     0.68935   0.10075   0.00182   0.00000  Uiso   1.00
O95    O     0.79457   0.21425   0.02518   0.00000  Uiso   1.00
H96    H     0.81065   0.23258   0.33152   0.00000  Uiso   1.00
C97    C     0.24844   0.40001   0.15124   0.00000  Uiso   1.00
C98    C     0.25156   0.59999   0.18209   0.00000  Uiso   1.00
C99    C     0.01186   0.40643   0.11745   0.00000  Uiso   1.00
C100   C     0.48814   0.59357   0.21588   0.00000  Uiso   1.00
C101   C     0.24376   0.34422   0.14294   0.00000  Uiso   1.00
C102   C     0.25624   0.65578   0.19039   0.00000  Uiso   1.00
C103   C     0.16449   0.49923   0.16684   0.00000  Uiso   1.00
C104   C     0.33551   0.50077   0.16650   0.00000  Uiso   1.00
C105   C     0.41193   0.54847   0.19075   0.00000  Uiso   1.00
C106   C     0.08807   0.45153   0.14258   0.00000  Uiso   1.00
C107   C     0.38375   0.50192   0.16605   0.00000  Uiso   1.00
C108   C     0.11625   0.49808   0.16728   0.00000  Uiso   1.00
C109   C     0.40121   0.45547   0.14098   0.00000  Uiso   1.00
C110   C     0.09878   0.54453   0.19236   0.00000  Uiso   1.00
C111   C     0.44753   0.45390   0.14101   0.00000  Uiso   1.00
C112   C     0.05247   0.54610   0.19233   0.00000  Uiso   1.00
C113   C     0.47655   0.50044   0.16641   0.00000  Uiso   1.00
C114   C     0.02345   0.49956   0.16692   0.00000  Uiso   1.00
C115   C     0.45873   0.54791   0.19119   0.00000  Uiso   1.00
C116   C     0.04127   0.45209   0.14214   0.00000  Uiso   1.00
C117   C     0.46558   0.40696   0.11659   0.00000  Uiso   1.00
C118   C     0.03442   0.59304   0.21674   0.00000  Uiso   1.00
Cu119  Cu    0.25500   0.50579   0.22813   0.00000  Uiso   1.00
Cu120  Cu    0.24499   0.49421   0.10521   0.00000  Uiso   1.00
H121   H     0.37808   0.42063   0.12233   0.00000  Uiso   1.00
H122   H     0.12192   0.57937   0.21100   0.00000  Uiso   1.00
H123   H     0.02417   0.36957   0.09817   0.00000  Uiso   1.00
H124   H     0.47583   0.63043   0.23516   0.00000  Uiso   1.00
N125   N     0.23744   0.48547   0.01284   0.00000  Uiso   1.00
N126   N     0.26255   0.51453   0.32049   0.00000  Uiso   1.00
O127   O     0.25325   0.42871   0.20659   0.00000  Uiso   1.00
O128   O     0.24674   0.57129   0.12674   0.00000  Uiso   1.00
O129   O     0.24480   0.41892   0.10279   0.00000  Uiso   1.00
O130   O     0.25520   0.58108   0.23055   0.00000  Uiso   1.00
O131   O     0.18935   0.50488   0.21857   0.00000  Uiso   1.00
O132   O     0.31064   0.49512   0.11476   0.00000  Uiso   1.00
O133   O     0.18090   0.49510   0.11477   0.00000  Uiso   1.00
O134   O     0.31910   0.50490   0.21857   0.00000  Uiso   1.00
I135   I     0.38255   0.61906   0.22428   0.00000  Uiso   1.00
I136   I     0.11745   0.38094   0.10905   0.00000  Uiso   1.00
I137   I     0.42602   0.33438   0.07702   0.00000  Uiso   1.00
I138   I     0.07398   0.66562   0.25632   0.00000  Uiso   1.00
I139   I     0.21130   0.63681   0.05258   0.00000  Uiso   1.00
I140   I     0.28870   0.36319   0.28075   0.00000  Uiso   1.00
O141   O     0.20543   0.45241   0.30815   0.00000  Uiso   1.00
H142   H     0.18935   0.43408   0.00182   0.00000  Uiso   1.00
O143   O     0.29457   0.54759   0.02518   0.00000  Uiso   1.00
H144   H     0.31065   0.56592   0.33152   0.00000  Uiso   1.00
C145   C     0.74844   0.40001   0.15124   0.00000  Uiso   1.00
C146   C     0.75156   0.59999   0.18209   0.00000  Uiso   1.00
C147   C     0.51186   0.40643   0.11745   0.00000  Uiso   1.00
C148   C     0.98814   0.59357   0.21588   0.00000  Uiso   1.00
C149   C     0.74376   0.34422   0.14294   0.00000  Uiso   1.00
C150   C     0.75624   0.65578   0.19039   0.00000  Uiso   1.00
C151   C     0.66449   0.49923   0.16684   0.00000  Uiso   1.00
C152   C     0.83551   0.50077   0.16650   0.00000  Uiso   1.00
C153   C     0.91193   0.54847   0.19075   0.00000  Uiso   1.00
C154   C     0.58807   0.45153   0.14258   0.00000  Uiso   1.00
C155   C     0.88375   0.50192   0.16605   0.00000  Uiso   1.00
C156   C     0.61625   0.49808   0.16728   0.00000  Uiso   1.00
C157   C     0.90121   0.45547   0.14098   0.00000  Uiso   1.00
C158   C     0.59878   0.54453   0.19236   0.00000  Uiso   1.00
C159   C     0.94753   0.45390   0.14101   0.00000  Uiso   1.00
C160   C     0.55247   0.54610   0.19233   0.00000  Uiso   1.00
C161   C     0.97655   0.50044   0.16641   0.00000  Uiso   1.00
C162   C     0.52345   0.49956   0.16692   0.00000  Uiso   1.00
C163   C     0.95873   0.54791   0.19119   0.00000  Uiso   1.00
C164   C     0.54127   0.45209   0.14214   0.00000  Uiso   1.00
C165   C     0.96558   0.40696   0.11659   0.00000  Uiso   1.00
C166   C     0.53442   0.59304   0.21674   0.00000  Uiso   1.00
Cu167  Cu    0.75500   0.50579   0.22813   0.00000  Uiso   1.00
Cu168  Cu    0.74499   0.49421   0.10521   0.00000  Uiso   1.00
H169   H     0.87808   0.42063   0.12233   0.00000  Uiso   1.00
H170   H     0.62192   0.57937   0.21100   0.00000  Uiso   1.00
H171   H     0.52417   0.36957   0.09817   0.00000  Uiso   1.00
H172   H     0.97583   0.63043   0.23516   0.00000  Uiso   1.00
N173   N     0.73744   0.48547   0.01284   0.00000  Uiso   1.00
N174   N     0.76255   0.51453   0.32049   0.00000  Uiso   1.00
O175   O     0.75325   0.42871   0.20659   0.00000  Uiso   1.00
O176   O     0.74674   0.57129   0.12674   0.00000  Uiso   1.00
O177   O     0.74480   0.41892   0.10279   0.00000  Uiso   1.00
O178   O     0.75520   0.58108   0.23055   0.00000  Uiso   1.00
O179   O     0.68935   0.50488   0.21857   0.00000  Uiso   1.00
O180   O     0.81064   0.49512   0.11476   0.00000  Uiso   1.00
O181   O     0.68090   0.49510   0.11477   0.00000  Uiso   1.00
O182   O     0.81910   0.50490   0.21857   0.00000  Uiso   1.00
I183   I     0.88255   0.61906   0.22428   0.00000  Uiso   1.00
I184   I     0.61745   0.38094   0.10905   0.00000  Uiso   1.00
I185   I     0.92602   0.33438   0.07702   0.00000  Uiso   1.00
I186   I     0.57398   0.66562   0.25632   0.00000  Uiso   1.00
I187   I     0.71130   0.63681   0.05258   0.00000  Uiso   1.00
I188   I     0.78870   0.36319   0.28075   0.00000  Uiso   1.00
O189   O     0.70543   0.45241   0.30815   0.00000  Uiso   1.00
H190   H     0.68935   0.43408   0.00182   0.00000  Uiso   1.00
O191   O     0.79457   0.54759   0.02518   0.00000  Uiso   1.00
H192   H     0.81065   0.56592   0.33152   0.00000  Uiso   1.00
C193   C     0.24844   0.73334   0.15124   0.00000  Uiso   1.00
C194   C     0.25156   0.93333   0.18209   0.00000  Uiso   1.00
C195   C     0.01186   0.73976   0.11745   0.00000  Uiso   1.00
C196   C     0.48814   0.92691   0.21588   0.00000  Uiso   1.00
C197   C     0.24376   0.67755   0.14294   0.00000  Uiso   1.00
C198   C     0.25624   0.98912   0.19039   0.00000  Uiso   1.00
C199   C     0.16449   0.83257   0.16684   0.00000  Uiso   1.00
C200   C     0.33551   0.83410   0.16650   0.00000  Uiso   1.00
C201   C     0.41193   0.88181   0.19075   0.00000  Uiso   1.00
C202   C     0.08807   0.78486   0.14258   0.00000  Uiso   1.00
C203   C     0.38375   0.83525   0.16605   0.00000  Uiso   1.00
C204   C     0.11625   0.83141   0.16728   0.00000  Uiso   1.00
C205   C     0.40121   0.78880   0.14098   0.00000  Uiso   1.00
C206   C     0.09878   0.87787   0.19236   0.00000  Uiso   1.00
C207   C     0.44753   0.78723   0.14101   0.00000  Uiso   1.00
C208   C     0.05247   0.87943   0.19233   0.00000  Uiso   1.00
C209   C     0.47655   0.83377   0.16641   0.00000  Uiso   1.00
C210   C     0.02345   0.83289   0.16692   0.00000  Uiso   1.00
C211   C     0.45873   0.88124   0.19119   0.00000  Uiso   1.00
C212   C     0.04127   0.78542   0.14214   0.00000  Uiso   1.00
C213   C     0.46558   0.74029   0.11659   0.00000  Uiso   1.00
C214   C     0.03442   0.92638   0.21674   0.00000  Uiso   1.00
Cu215  Cu    0.25500   0.83913   0.22813   0.00000  Uiso   1.00
Cu216  Cu    0.24499   0.82754   0.10521   0.00000  Uiso   1.00
H217   H     0.37808   0.75396   0.12233   0.00000  Uiso   1.00
H218   H     0.12192   0.91270   0.21100   0.00000  Uiso   1.00
H219   H     0.02417   0.70290   0.09817   0.00000  Uiso   1.00
H220   H     0.47583   0.96376   0.23516   0.00000  Uiso   1.00
N221   N     0.23744   0.81881   0.01284   0.00000  Uiso   1.00
N222   N     0.26255   0.84786   0.32049   0.00000  Uiso   1.00
O223   O     0.25325   0.76204   0.20659   0.00000  Uiso   1.00
O224   O     0.24674   0.90462   0.12674   0.00000  Uiso   1.00
O225   O     0.24480   0.75226   0.10279   0.00000  Uiso   1.00
O226   O     0.25520   0.91441   0.23055   0.00000  Uiso   1.00
O227   O     0.18935   0.83821   0.21857   0.00000  Uiso   1.00
O228   O     0.31064   0.82845   0.11476   0.00000  Uiso   1.00
O229   O     0.18090   0.82843   0.11477   0.00000  Uiso   1.00
O230   O     0.31910   0.83824   0.21857   0.00000  Uiso   1.00
I231   I     0.38255   0.95239   0.22428   0.00000  Uiso   1.00
I232   I     0.11745   0.71428   0.10905   0.00000  Uiso   1.00
I233   I     0.42602   0.66771   0.07702   0.00000  Uiso   1.00
I234   I     0.07398   0.99896   0.25632   0.00000  Uiso   1.00
I235   I     0.21130   0.97014   0.05258   0.00000  Uiso   1.00
I236   I     0.28870   0.69653   0.28075   0.00000  Uiso   1.00
O237   O     0.20543   0.78575   0.30815   0.00000  Uiso   1.00
H238   H     0.18935   0.76742   0.00182   0.00000  Uiso   1.00
O239   O     0.29457   0.88092   0.02518   0.00000  Uiso   1.00
H240   H     0.31065   0.89925   0.33152   0.00000  Uiso   1.00
C241   C     0.74844   0.73334   0.15124   0.00000  Uiso   1.00
C242   C     0.75156   0.93333   0.18209   0.00000  Uiso   1.00
C243   C     0.51186   0.73976   0.11745   0.00000  Uiso   1.00
C244   C     0.98814   0.92691   0.21588   0.00000  Uiso   1.00
C245   C     0.74376   0.67755   0.14294   0.00000  Uiso   1.00
C246   C     0.75624   0.98912   0.19039   0.00000  Uiso   1.00
C247   C     0.66449   0.83257   0.16684   0.00000  Uiso   1.00
C248   C     0.83551   0.83410   0.16650   0.00000  Uiso   1.00
C249   C     0.91193   0.88181   0.19075   0.00000  Uiso   1.00
C250   C     0.58807   0.78486   0.14258   0.00000  Uiso   1.00
C251   C     0.88375   0.83525   0.16605   0.00000  Uiso   1.00
C252   C     0.61625   0.83141   0.16728   0.00000  Uiso   1.00
C253   C     0.90121   0.78880   0.14098   0.00000  Uiso   1.00
C254   C     0.59878   0.87787   0.19236   0.00000  Uiso   1.00
C255   C     0.94753   0.78723   0.14101   0.00000  Uiso   1.00
C256   C     0.55247   0.87943   0.19233   0.00000  Uiso   1.00
C257   C     0.97655   0.83377   0.16641   0.00000  Uiso   1.00
C258   C     0.52345   0.83289   0.16692   0.00000  Uiso   1.00
C259   C     0.95873   0.88124   0.19119   0.00000  Uiso   1.00
C260   C     0.54127   0.78542   0.14214   0.00000  Uiso   1.00
C261   C     0.96558   0.74029   0.11659   0.00000  Uiso   1.00
C262   C     0.53442   0.92638   0.21674   0.00000  Uiso   1.00
Cu263  Cu    0.75500   0.83913   0.22813   0.00000  Uiso   1.00
Cu264  Cu    0.74499   0.82754   0.10521   0.00000  Uiso   1.00
H265   H     0.87808   0.75396   0.12233   0.00000  Uiso   1.00
H266   H     0.62192   0.91270   0.21100   0.00000  Uiso   1.00
H267   H     0.52417   0.70290   0.09817   0.00000  Uiso   1.00
H268   H     0.97583   0.96376   0.23516   0.00000  Uiso   1.00
N269   N     0.73744   0.81881   0.01284   0.00000  Uiso   1.00
N270   N     0.76255   0.84786   0.32049   0.00000  Uiso   1.00
O271   O     0.75325   0.76204   0.20659   0.00000  Uiso   1.00
O272   O     0.74674   0.90462   0.12674   0.00000  Uiso   1.00
O273   O     0.74480   0.75226   0.10279   0.00000  Uiso   1.00
O274   O     0.75520   0.91441   0.23055   0.00000  Uiso   1.00
O275   O     0.68935   0.83821   0.21857   0.00000  Uiso   1.00
O276   O     0.81064   0.82845   0.11476   0.00000  Uiso   1.00
O277   O     0.68090   0.82843   0.11477   0.00000  Uiso   1.00
O278   O     0.81910   0.83824   0.21857   0.00000  Uiso   1.00
I279   I     0.88255   0.95239   0.22428   0.00000  Uiso   1.00
I280   I     0.61745   0.71428   0.10905   0.00000  Uiso   1.00
I281   I     0.92602   0.66771   0.07702   0.00000  Uiso   1.00
I282   I     0.57398   0.99896   0.25632   0.00000  Uiso   1.00
I283   I     0.71130   0.97014   0.05258   0.00000  Uiso   1.00
I284   I     0.78870   0.69653   0.28075   0.00000  Uiso   1.00
O285   O     0.70543   0.78575   0.30815   0.00000  Uiso   1.00
H286   H     0.68935   0.76742   0.00182   0.00000  Uiso   1.00
O287   O     0.79457   0.88092   0.02518   0.00000  Uiso   1.00
H288   H     0.81065   0.89925   0.33152   0.00000  Uiso   1.00
C289   C     0.24844   0.06667   0.48457   0.00000  Uiso   1.00
C290   C     0.25156   0.26666   0.51543   0.00000  Uiso   1.00
C291   C     0.01186   0.07310   0.45078   0.00000  Uiso   1.00
C292   C     0.48814   0.26024   0.54922   0.00000  Uiso   1.00
C293   C     0.24376   0.01088   0.47627   0.00000  Uiso   1.00
C294   C     0.25624   0.32245   0.52373   0.00000  Uiso   1.00
C295   C     0.16449   0.16590   0.50017   0.00000  Uiso   1.00
C296   C     0.33551   0.16743   0.49983   0.00000  Uiso   1.00
C297   C     0.41193   0.21514   0.52409   0.00000  Uiso   1.00
C298   C     0.08807   0.11819   0.47591   0.00000  Uiso   1.00
C299   C     0.38375   0.16859   0.49938   0.00000  Uiso   1.00
C300   C     0.11625   0.16475   0.50061   0.00000  Uiso   1.00
C301   C     0.40121   0.12213   0.47431   0.00000  Uiso   1.00
C302   C     0.09878   0.21120   0.52569   0.00000  Uiso   1.00
C303   C     0.44753   0.12057   0.47434   0.00000  Uiso   1.00
C304   C     0.05247   0.21277   0.52566   0.00000  Uiso   1.00
C305   C     0.47655   0.16711   0.49974   0.00000  Uiso   1.00
C306   C     0.02345   0.16623   0.50026   0.00000  Uiso   1.00
C307   C     0.45873   0.21458   0.52453   0.00000  Uiso   1.00
C308   C     0.04127   0.11876   0.47547   0.00000  Uiso   1.00
C309   C     0.46558   0.07362   0.44993   0.00000  Uiso   1.00
C310   C     0.03442   0.25971   0.55007   0.00000  Uiso   1.00
Cu311  Cu    0.25500   0.17246   0.56146   0.00000  Uiso   1.00
Cu312  Cu    0.24499   0.16087   0.43854   0.00000  Uiso   1.00
H313   H     0.37808   0.08730   0.45566   0.00000  Uiso   1.00
H314   H     0.12192   0.24604   0.54433   0.00000  Uiso   1.00
H315   H     0.02417   0.03624   0.43151   0.00000  Uiso   1.00
H316   H     0.47583   0.29710   0.56849   0.00000  Uiso   1.00
N317   N     0.23744   0.15214   0.34617   0.00000  Uiso   1.00
N318   N     0.26255   0.18119   0.65383   0.00000  Uiso   1.00
O319   O     0.25325   0.09538   0.53992   0.00000  Uiso   1.00
O320   O     0.24674   0.23796   0.46008   0.00000  Uiso   1.00
O321   O     0.24480   0.08559   0.43612   0.00000  Uiso   1.00
O322   O     0.25520   0.24774   0.56388   0.00000  Uiso   1.00
O323   O     0.18935   0.17155   0.55191   0.00000  Uiso   1.00
O324   O     0.31064   0.16179   0.44809   0.00000  Uiso   1.00
O325   O     0.18090   0.16176   0.44810   0.00000  Uiso   1.00
O326   O     0.31910   0.17157   0.55190   0.00000  Uiso   1.00
I327   I     0.38255   0.28572   0.55761   0.00000  Uiso   1.00
I328   I     0.11745   0.04761   0.44239   0.00000  Uiso   1.00
I329   I     0.42602   0.00104   0.41035   0.00000  Uiso   1.00
I330   I     0.07398   0.33229   0.58965   0.00000  Uiso   1.00
I331   I     0.21130   0.30347   0.38592   0.00000  Uiso   1.00
I332   I     0.28870   0.02986   0.61408   0.00000  Uiso   1.00
O333   O     0.20543   0.11908   0.64148   0.00000  Uiso   1.00
H334   H     0.18935   0.10075   0.33515   0.00000  Uiso   1.00
O335   O     0.29457   0.21425   0.35852   0.00000  Uiso   1.00
H336   H     0.31065   0.23258   0.66485   0.00000  Uiso   1.00
C337   C     0.74844   0.06667   0.48457   0.00000  Uiso   1.00
C338   C     0.75156   0.26666   0.51543   0.00000  Uiso   1.00
C339   C     0.51186   0.07310   0.45078   0.00000  Uiso   1.00
C340   C     0.98814   0.26024   0.54922   0.00000  Uiso   1.00
C341   C     0.74376   0.01088   0.47627   0.00000  Uiso   1.00
C342   C     0.75624   0.32245   0.52373   0.00000  Uiso   1.00
C343   C     0.66449   0.16590   0.50017   0.00000  Uiso   1.00
C344   C     0.83551   0.16743   0.49983   0.00000  Uiso   1.00
C345   C     0.91193   0.21514   0.52409   0.00000  Uiso   1.00
C346   C     0.58807   0.11819   0.47591   0.00000  Uiso   1.00
C347   C     0.88375   0.16859   0.49938   0.00000  Uiso   1.00
C348   C     0.61625   0.16475   0.50061   0.00000  Uiso   1.00
C349   C     0.90121   0.12213   0.47431   0.00000  Uiso   1.00
C350   C     0.59878   0.21120   0.52569   0.00000  Uiso   1.00
C351   C     0.94753   0.12057   0.47434   0.00000  Uiso   1.00
C352   C     0.55247   0.21277   0.52566   0.00000  Uiso   1.00
C353   C     0.97655   0.16711   0.49974   0.00000  Uiso   1.00
C354   C     0.52345   0.16623   0.50026   0.00000  Uiso   1.00
C355   C     0.95873   0.21458   0.52453   0.00000  Uiso   1.00
C356   C     0.54127   0.11876   0.47547   0.00000  Uiso   1.00
C357   C     0.96558   0.07362   0.44993   0.00000  Uiso   1.00
C358   C     0.53442   0.25971   0.55007   0.00000  Uiso   1.00
Cu359  Cu    0.75500   0.17246   0.56146   0.00000  Uiso   1.00
Cu360  Cu    0.74499   0.16087   0.43854   0.00000  Uiso   1.00
H361   H     0.87808   0.08730   0.45566   0.00000  Uiso   1.00
H362   H     0.62192   0.24604   0.54433   0.00000  Uiso   1.00
H363   H     0.52417   0.03624   0.43151   0.00000  Uiso   1.00
H364   H     0.97583   0.29710   0.56849   0.00000  Uiso   1.00
N365   N     0.73744   0.15214   0.34617   0.00000  Uiso   1.00
N366   N     0.76255   0.18119   0.65383   0.00000  Uiso   1.00
O367   O     0.75325   0.09538   0.53992   0.00000  Uiso   1.00
O368   O     0.74674   0.23796   0.46008   0.00000  Uiso   1.00
O369   O     0.74480   0.08559   0.43612   0.00000  Uiso   1.00
O370   O     0.75520   0.24774   0.56388   0.00000  Uiso   1.00
O371   O     0.68935   0.17155   0.55191   0.00000  Uiso   1.00
O372   O     0.81064   0.16179   0.44809   0.00000  Uiso   1.00
O373   O     0.68090   0.16176   0.44810   0.00000  Uiso   1.00
O374   O     0.81910   0.17157   0.55190   0.00000  Uiso   1.00
I375   I     0.88255   0.28572   0.55761   0.00000  Uiso   1.00
I376   I     0.61745   0.04761   0.44239   0.00000  Uiso   1.00
I377   I     0.92602   0.00104   0.41035   0.00000  Uiso   1.00
I378   I     0.57398   0.33229   0.58965   0.00000  Uiso   1.00
I379   I     0.71130   0.30347   0.38592   0.00000  Uiso   1.00
I380   I     0.78870   0.02986   0.61408   0.00000  Uiso   1.00
O381   O     0.70543   0.11908   0.64148   0.00000  Uiso   1.00
H382   H     0.68935   0.10075   0.33515   0.00000  Uiso   1.00
O383   O     0.79457   0.21425   0.35852   0.00000  Uiso   1.00
H384   H     0.81065   0.23258   0.66485   0.00000  Uiso   1.00
C385   C     0.24844   0.40001   0.48457   0.00000  Uiso   1.00
C386   C     0.25156   0.59999   0.51543   0.00000  Uiso   1.00
C387   C     0.01186   0.40643   0.45078   0.00000  Uiso   1.00
C388   C     0.48814   0.59357   0.54922   0.00000  Uiso   1.00
C389   C     0.24376   0.34422   0.47627   0.00000  Uiso   1.00
C390   C     0.25624   0.65578   0.52373   0.00000  Uiso   1.00
C391   C     0.16449   0.49923   0.50017   0.00000  Uiso   1.00
C392   C     0.33551   0.50077   0.49983   0.00000  Uiso   1.00
C393   C     0.41193   0.54847   0.52409   0.00000  Uiso   1.00
C394   C     0.08807   0.45153   0.47591   0.00000  Uiso   1.00
C395   C     0.38375   0.50192   0.49938   0.00000  Uiso   1.00
C396   C     0.11625   0.49808   0.50061   0.00000  Uiso   1.00
C397   C     0.40121   0.45547   0.47431   0.00000  Uiso   1.00
C398   C     0.09878   0.54453   0.52569   0.00000  Uiso   1.00
C399   C     0.44753   0.45390   0.47434   0.00000  Uiso   1.00
C400   C     0.05247   0.54610   0.52566   0.00000  Uiso   1.00
C401   C     0.47655   0.50044   0.49974   0.00000  Uiso   1.00
C402   C     0.02345   0.49956   0.50026   0.00000  Uiso   1.00
C403   C     0.45873   0.54791   0.52453   0.00000  Uiso   1.00
C404   C     0.04127   0.45209   0.47547   0.00000  Uiso   1.00
C405   C     0.46558   0.40696   0.44993   0.00000  Uiso   1.00
C406   C     0.03442   0.59304   0.55007   0.00000  Uiso   1.00
Cu407  Cu    0.25500   0.50579   0.56146   0.00000  Uiso   1.00
Cu408  Cu    0.24499   0.49421   0.43854   0.00000  Uiso   1.00
H409   H     0.37808   0.42063   0.45566   0.00000  Uiso   1.00
H410   H     0.12192   0.57937   0.54433   0.00000  Uiso   1.00
H411   H     0.02417   0.36957   0.43151   0.00000  Uiso   1.00
H412   H     0.47583   0.63043   0.56849   0.00000  Uiso   1.00
N413   N     0.23744   0.48547   0.34617   0.00000  Uiso   1.00
N414   N     0.26255   0.51453   0.65383   0.00000  Uiso   1.00
O415   O     0.25325   0.42871   0.53992   0.00000  Uiso   1.00
O416   O     0.24674   0.57129   0.46008   0.00000  Uiso   1.00
O417   O     0.24480   0.41892   0.43612   0.00000  Uiso   1.00
O418   O     0.25520   0.58108   0.56388   0.00000  Uiso   1.00
O419   O     0.18935   0.50488   0.55191   0.00000  Uiso   1.00
O420   O     0.31064   0.49512   0.44809   0.00000  Uiso   1.00
O421   O     0.18090   0.49510   0.44810   0.00000  Uiso   1.00
O422   O     0.31910   0.50490   0.55190   0.00000  Uiso   1.00
I423   I     0.38255   0.61906   0.55761   0.00000  Uiso   1.00
I424   I     0.11745   0.38094   0.44239   0.00000  Uiso   1.00
I425   I     0.42602   0.33438   0.41035   0.00000  Uiso   1.00
I426   I     0.07398   0.66562   0.58965   0.00000  Uiso   1.00
I427   I     0.21130   0.63681   0.38592   0.00000  Uiso   1.00
I428   I     0.28870   0.36319   0.61408   0.00000  Uiso   1.00
O429   O     0.20543   0.45241   0.64148   0.00000  Uiso   1.00
H430   H     0.18935   0.43408   0.33515   0.00000  Uiso   1.00
O431   O     0.29457   0.54759   0.35852   0.00000  Uiso   1.00
H432   H     0.31065   0.56592   0.66485   0.00000  Uiso   1.00
C433   C     0.74844   0.40001   0.48457   0.00000  Uiso   1.00
C434   C     0.75156   0.59999   0.51543   0.00000  Uiso   1.00
C435   C     0.51186   0.40643   0.45078   0.00000  Uiso   1.00
C436   C     0.98814   0.59357   0.54922   0.00000  Uiso   1.00
C437   C     0.74376   0.34422   0.47627   0.00000  Uiso   1.00
C438   C     0.75624   0.65578   0.52373   0.00000  Uiso   1.00
C439   C     0.66449   0.49923   0.50017   0.00000  Uiso   1.00
C440   C     0.83551   0.50077   0.49983   0.00000  Uiso   1.00
C441   C     0.91193   0.54847   0.52409   0.00000  Uiso   1.00
C442   C     0.58807   0.45153   0.47591   0.00000  Uiso   1.00
C443   C     0.88375   0.50192   0.49938   0.00000  Uiso   1.00
C444   C     0.61625   0.49808   0.50061   0.00000  Uiso   1.00
C445   C     0.90121   0.45547   0.47431   0.00000  Uiso   1.00
C446   C     0.59878   0.54453   0.52569   0.00000  Uiso   1.00
C447   C     0.94753   0.45390   0.47434   0.00000  Uiso   1.00
C448   C     0.55247   0.54610   0.52566   0.00000  Uiso   1.00
C449   C     0.97655   0.50044   0.49974   0.00000  Uiso   1.00
C450   C     0.52345   0.49956   0.50026   0.00000  Uiso   1.00
C451   C     0.95873   0.54791   0.52453   0.00000  Uiso   1.00
C452   C     0.54127   0.45209   0.47547   0.00000  Uiso   1.00
C453   C     0.96558   0.40696   0.44993   0.00000  Uiso   1.00
C454   C     0.53442   0.59304   0.55007   0.00000  Uiso   1.00
Cu455  Cu    0.75500   0.50579   0.56146   0.00000  Uiso   1.00
Cu456  Cu    0.74499   0.49421   0.43854   0.00000  Uiso   1.00
H457   H     0.87808   0.42063   0.45566   0.00000  Uiso   1.00
H458   H     0.62192   0.57937   0.54433   0.00000  Uiso   1.00
H459   H     0.52417   0.36957   0.43151   0.00000  Uiso   1.00
H460   H     0.97583   0.63043   0.56849   0.00000  Uiso   1.00
N461   N     0.73744   0.48547   0.34617   0.00000  Uiso   1.00
N462   N     0.76255   0.51453   0.65383   0.00000  Uiso   1.00
O463   O     0.75325   0.42871   0.53992   0.00000  Uiso   1.00
O464   O     0.74674   0.57129   0.46008   0.00000  Uiso   1.00
O465   O     0.74480   0.41892   0.43612   0.00000  Uiso   1.00
O466   O     0.75520   0.58108   0.56388   0.00000  Uiso   1.00
O467   O     0.68935   0.50488   0.55191   0.00000  Uiso   1.00
O468   O     0.81064   0.49512   0.44809   0.00000  Uiso   1.00
O469   O     0.68090   0.49510   0.44810   0.00000  Uiso   1.00
O470   O     0.81910   0.50490   0.55190   0.00000  Uiso   1.00
I471   I     0.88255   0.61906   0.55761   0.00000  Uiso   1.00
I472   I     0.61745   0.38094   0.44239   0.00000  Uiso   1.00
I473   I     0.92602   0.33438   0.41035   0.00000  Uiso   1.00
I474   I     0.57398   0.66562   0.58965   0.00000  Uiso   1.00
I475   I     0.71130   0.63681   0.38592   0.00000  Uiso   1.00
I476   I     0.78870   0.36319   0.61408   0.00000  Uiso   1.00
O477   O     0.70543   0.45241   0.64148   0.00000  Uiso   1.00
H478   H     0.68935   0.43408   0.33515   0.00000  Uiso   1.00
O479   O     0.79457   0.54759   0.35852   0.00000  Uiso   1.00
H480   H     0.81065   0.56592   0.66485   0.00000  Uiso   1.00
C481   C     0.24844   0.73334   0.48457   0.00000  Uiso   1.00
C482   C     0.25156   0.93333   0.51543   0.00000  Uiso   1.00
C483   C     0.01186   0.73976   0.45078   0.00000  Uiso   1.00
C484   C     0.48814   0.92691   0.54922   0.00000  Uiso   1.00
C485   C     0.24376   0.67755   0.47627   0.00000  Uiso   1.00
C486   C     0.25624   0.98912   0.52373   0.00000  Uiso   1.00
C487   C     0.16449   0.83257   0.50017   0.00000  Uiso   1.00
C488   C     0.33551   0.83410   0.49983   0.00000  Uiso   1.00
C489   C     0.41193   0.88181   0.52409   0.00000  Uiso   1.00
C490   C     0.08807   0.78486   0.47591   0.00000  Uiso   1.00
C491   C     0.38375   0.83525   0.49938   0.00000  Uiso   1.00
C492   C     0.11625   0.83141   0.50061   0.00000  Uiso   1.00
C493   C     0.40121   0.78880   0.47431   0.00000  Uiso   1.00
C494   C     0.09878   0.87787   0.52569   0.00000  Uiso   1.00
C495   C     0.44753   0.78723   0.47434   0.00000  Uiso   1.00
C496   C     0.05247   0.87943   0.52566   0.00000  Uiso   1.00
C497   C     0.47655   0.83377   0.49974   0.00000  Uiso   1.00
C498   C     0.02345   0.83289   0.50026   0.00000  Uiso   1.00
C499   C     0.45873   0.88124   0.52453   0.00000  Uiso   1.00
C500   C     0.04127   0.78542   0.47547   0.00000  Uiso   1.00
C501   C     0.46558   0.74029   0.44993   0.00000  Uiso   1.00
C502   C     0.03442   0.92638   0.55007   0.00000  Uiso   1.00
Cu503  Cu    0.25500   0.83913   0.56146   0.00000  Uiso   1.00
Cu504  Cu    0.24499   0.82754   0.43854   0.00000  Uiso   1.00
H505   H     0.37808   0.75396   0.45566   0.00000  Uiso   1.00
H506   H     0.12192   0.91270   0.54433   0.00000  Uiso   1.00
H507   H     0.02417   0.70290   0.43151   0.00000  Uiso   1.00
H508   H     0.47583   0.96376   0.56849   0.00000  Uiso   1.00
N509   N     0.23744   0.81881   0.34617   0.00000  Uiso   1.00
N510   N     0.26255   0.84786   0.65383   0.00000  Uiso   1.00
O511   O     0.25325   0.76204   0.53992   0.00000  Uiso   1.00
O512   O     0.24674   0.90462   0.46008   0.00000  Uiso   1.00
O513   O     0.24480   0.75226   0.43612   0.00000  Uiso   1.00
O514   O     0.25520   0.91441   0.56388   0.00000  Uiso   1.00
O515   O     0.18935   0.83821   0.55191   0.00000  Uiso   1.00
O516   O     0.31064   0.82845   0.44809   0.00000  Uiso   1.00
O517   O     0.18090   0.82843   0.44810   0.00000  Uiso   1.00
O518   O     0.31910   0.83824   0.55190   0.00000  Uiso   1.00
I519   I     0.38255   0.95239   0.55761   0.00000  Uiso   1.00
I520   I     0.11745   0.71428   0.44239   0.00000  Uiso   1.00
I521   I     0.42602   0.66771   0.41035   0.00000  Uiso   1.00
I522   I     0.07398   0.99896   0.58965   0.00000  Uiso   1.00
I523   I     0.21130   0.97014   0.38592   0.00000  Uiso   1.00
I524   I     0.28870   0.69653   0.61408   0.00000  Uiso   1.00
O525   O     0.20543   0.78575   0.64148   0.00000  Uiso   1.00
H526   H     0.18935   0.76742   0.33515   0.00000  Uiso   1.00
O527   O     0.29457   0.88092   0.35852   0.00000  Uiso   1.00
H528   H     0.31065   0.89925   0.66485   0.00000  Uiso   1.00
C529   C     0.74844   0.73334   0.48457   0.00000  Uiso   1.00
C530   C     0.75156   0.93333   0.51543   0.00000  Uiso   1.00
C531   C     0.51186   0.73976   0.45078   0.00000  Uiso   1.00
C532   C     0.98814   0.92691   0.54922   0.00000  Uiso   1.00
C533   C     0.74376   0.67755   0.47627   0.00000  Uiso   1.00
C534   C     0.75624   0.98912   0.52373   0.00000  Uiso   1.00
C535   C     0.66449   0.83257   0.50017   0.00000  Uiso   1.00
C536   C     0.83551   0.83410   0.49983   0.00000  Uiso   1.00
C537   C     0.91193   0.88181   0.52409   0.00000  Uiso   1.00
C538   C     0.58807   0.78486   0.47591   0.00000  Uiso   1.00
C539   C     0.88375   0.83525   0.49938   0.00000  Uiso   1.00
C540   C     0.61625   0.83141   0.50061   0.00000  Uiso   1.00
C541   C     0.90121   0.78880   0.47431   0.00000  Uiso   1.00
C542   C     0.59878   0.87787   0.52569   0.00000  Uiso   1.00
C543   C     0.94753   0.78723   0.47434   0.00000  Uiso   1.00
C544   C     0.55247   0.87943   0.52566   0.00000  Uiso   1.00
C545   C     0.97655   0.83377   0.49974   0.00000  Uiso   1.00
C546   C     0.52345   0.83289   0.50026   0.00000  Uiso   1.00
C547   C     0.95873   0.88124   0.52453   0.00000  Uiso   1.00
C548   C     0.54127   0.78542   0.47547   0.00000  Uiso   1.00
C549   C     0.96558   0.74029   0.44993   0.00000  Uiso   1.00
C550   C     0.53442   0.92638   0.55007   0.00000  Uiso   1.00
Cu551  Cu    0.75500   0.83913   0.56146   0.00000  Uiso   1.00
Cu552  Cu    0.74499   0.82754   0.43854   0.00000  Uiso   1.00
H553   H     0.87808   0.75396   0.45566   0.00000  Uiso   1.00
H554   H     0.62192   0.91270   0.54433   0.00000  Uiso   1.00
H555   H     0.52417   0.70290   0.43151   0.00000  Uiso   1.00
H556   H     0.97583   0.96376   0.56849   0.00000  Uiso   1.00
N557   N     0.73744   0.81881   0.34617   0.00000  Uiso   1.00
N558   N     0.76255   0.84786   0.65383   0.00000  Uiso   1.00
O559   O     0.75325   0.76204   0.53992   0.00000  Uiso   1.00
O560   O     0.74674   0.90462   0.46008   0.00000  Uiso   1.00
O561   O     0.74480   0.75226   0.43612   0.00000  Uiso   1.00
O562   O     0.75520   0.91441   0.56388   0.00000  Uiso   1.00
O563   O     0.68935   0.83821   0.55191   0.00000  Uiso   1.00
O564   O     0.81064   0.82845   0.44809   0.00000  Uiso   1.00
O565   O     0.68090   0.82843   0.44810   0.00000  Uiso   1.00
O566   O     0.81910   0.83824   0.55190   0.00000  Uiso   1.00
I567   I     0.88255   0.95239   0.55761   0.00000  Uiso   1.00
I568   I     0.61745   0.71428   0.44239   0.00000  Uiso   1.00
I569   I     0.92602   0.66771   0.41035   0.00000  Uiso   1.00
I570   I     0.57398   0.99896   0.58965   0.00000  Uiso   1.00
I571   I     0.71130   0.97014   0.38592   0.00000  Uiso   1.00
I572   I     0.78870   0.69653   0.61408   0.00000  Uiso   1.00
O573   O     0.70543   0.78575   0.64148   0.00000  Uiso   1.00
H574   H     0.68935   0.76742   0.33515   0.00000  Uiso   1.00
O575   O     0.79457   0.88092   0.35852   0.00000  Uiso   1.00
H576   H     0.81065   0.89925   0.66485   0.00000  Uiso   1.00
C577   C     0.24844   0.06667   0.81791   0.00000  Uiso   1.00
C578   C     0.25156   0.26666   0.84876   0.00000  Uiso   1.00
C579   C     0.01186   0.07310   0.78412   0.00000  Uiso   1.00
C580   C     0.48814   0.26024   0.88255   0.00000  Uiso   1.00
C581   C     0.24376   0.01088   0.80961   0.00000  Uiso   1.00
C582   C     0.25624   0.32245   0.85706   0.00000  Uiso   1.00
C583   C     0.16449   0.16590   0.83350   0.00000  Uiso   1.00
C584   C     0.33551   0.16743   0.83316   0.00000  Uiso   1.00
C585   C     0.41193   0.21514   0.85742   0.00000  Uiso   1.00
C586   C     0.08807   0.11819   0.80925   0.00000  Uiso   1.00
C587   C     0.38375   0.16859   0.83272   0.00000  Uiso   1.00
C588   C     0.11625   0.16475   0.83395   0.00000  Uiso   1.00
C589   C     0.40121   0.12213   0.80764   0.00000  Uiso   1.00
C590   C     0.09878   0.21120   0.85902   0.00000  Uiso   1.00
C591   C     0.44753   0.12057   0.80767   0.00000  Uiso   1.00
C592   C     0.05247   0.21277   0.85899   0.00000  Uiso   1.00
C593   C     0.47655   0.16711   0.83308   0.00000  Uiso   1.00
C594   C     0.02345   0.16623   0.83359   0.00000  Uiso   1.00
C595   C     0.45873   0.21458   0.85786   0.00000  Uiso   1.00
C596   C     0.04127   0.11876   0.80881   0.00000  Uiso   1.00
C597   C     0.46558   0.07362   0.78326   0.00000  Uiso   1.00
C598   C     0.03442   0.25971   0.88341   0.00000  Uiso   1.00
Cu599  Cu    0.25500   0.17246   0.89479   0.00000  Uiso   1.00
Cu600  Cu    0.24499   0.16087   0.77187   0.00000  Uiso   1.00
H601   H     0.37808   0.08730   0.78900   0.00000  Uiso   1.00
H602   H     0.12192   0.24604   0.87767   0.00000  Uiso   1.00
H603   H     0.02417   0.03624   0.76484   0.00000  Uiso   1.00
H604   H     0.47583   0.29710   0.90183   0.00000  Uiso   1.00
N605   N     0.23744   0.15214   0.67951   0.00000  Uiso   1.00
N606   N     0.26255   0.18119   0.98716   0.00000  Uiso   1.00
O607   O     0.25325   0.09538   0.87326   0.00000  Uiso   1.00
O608   O     0.24674   0.23796   0.79341   0.00000  Uiso   1.00
O609   O     0.24480   0.08559   0.76945   0.00000  Uiso   1.00
O610   O     0.25520   0.24774   0.89721   0.00000  Uiso   1.00
O611   O     0.18935   0.17155   0.88524   0.00000  Uiso   1.00
O612   O     0.31064   0.16179   0.78143   0.00000  Uiso   1.00
O613   O     0.18090   0.16176   0.78143   0.00000  Uiso   1.00
O614   O     0.31910   0.17157   0.88523   0.00000  Uiso   1.00
I615   I     0.38255   0.28572   0.89095   0.00000  Uiso   1.00
I616   I     0.11745   0.04761   0.77572   0.00000  Uiso   1.00
I617   I     0.42602   0.00104   0.74368   0.00000  Uiso   1.00
I618   I     0.07398   0.33229   0.92298   0.00000  Uiso   1.00
I619   I     0.21130   0.30347   0.71925   0.00000  Uiso   1.00
I620   I     0.28870   0.02986   0.94742   0.00000  Uiso   1.00
O621   O     0.20543   0.11908   0.97482   0.00000  Uiso   1.00
H622   H     0.18935   0.10075   0.66848   0.00000  Uiso   1.00
O623   O     0.29457   0.21425   0.69185   0.00000  Uiso   1.00
H624   H     0.31065   0.23258   0.99818   0.00000  Uiso   1.00
C625   C     0.74844   0.06667   0.81791   0.00000  Uiso   1.00
C626   C     0.75156   0.26666   0.84876   0.00000  Uiso   1.00
C627   C     0.51186   0.07310   0.78412   0.00000  Uiso   1.00
C628   C     0.98814   0.26024   0.88255   0.00000  Uiso   1.00
C629   C     0.74376   0.01088   0.80961   0.00000  Uiso   1.00
C630   C     0.75624   0.32245   0.85706   0.00000  Uiso   1.00
C631   C     0.66449   0.16590   0.83350   0.00000  Uiso   1.00
C632   C     0.83551   0.16743   0.83316   0.00000  Uiso   1.00
C633   C     0.91193   0.21514   0.85742   0.00000  Uiso   1.00
C634   C     0.58807   0.11819   0.80925   0.00000  Uiso   1.00
C635   C     0.88375   0.16859   0.83272   0.00000  Uiso   1.00
C636   C     0.61625   0.16475   0.83395   0.00000  Uiso   1.00
C637   C     0.90121   0.12213   0.80764   0.00000  Uiso   1.00
C638   C     0.59878   0.21120   0.85902   0.00000  Uiso   1.00
C639   C     0.94753   0.12057   0.80767   0.00000  Uiso   1.00
C640   C     0.55247   0.21277   0.85899   0.00000  Uiso   1.00
C641   C     0.97655   0.16711   0.83308   0.00000  Uiso   1.00
C642   C     0.52345   0.16623   0.83359   0.00000  Uiso   1.00
C643   C     0.95873   0.21458   0.85786   0.00000  Uiso   1.00
C644   C     0.54127   0.11876   0.80881   0.00000  Uiso   1.00
C645   C     0.96558   0.07362   0.78326   0.00000  Uiso   1.00
C646   C     0.53442   0.25971   0.88341   0.00000  Uiso   1.00
Cu647  Cu    0.75500   0.17246   0.89479   0.00000  Uiso   1.00
Cu648  Cu    0.74499   0.16087   0.77187   0.00000  Uiso   1.00
H649   H     0.87808   0.08730   0.78900   0.00000  Uiso   1.00
H650   H     0.62192   0.24604   0.87767   0.00000  Uiso   1.00
H651   H     0.52417   0.03624   0.76484   0.00000  Uiso   1.00
H652   H     0.97583   0.29710   0.90183   0.00000  Uiso   1.00
N653   N     0.73744   0.15214   0.67951   0.00000  Uiso   1.00
N654   N     0.76255   0.18119   0.98716   0.00000  Uiso   1.00
O655   O     0.75325   0.09538   0.87326   0.00000  Uiso   1.00
O656   O     0.74674   0.23796   0.79341   0.00000  Uiso   1.00
O657   O     0.74480   0.08559   0.76945   0.00000  Uiso   1.00
O658   O     0.75520   0.24774   0.89721   0.00000  Uiso   1.00
O659   O     0.68935   0.17155   0.88524   0.00000  Uiso   1.00
O660   O     0.81064   0.16179   0.78143   0.00000  Uiso   1.00
O661   O     0.68090   0.16176   0.78143   0.00000  Uiso   1.00
O662   O     0.81910   0.17157   0.88523   0.00000  Uiso   1.00
I663   I     0.88255   0.28572   0.89095   0.00000  Uiso   1.00
I664   I     0.61745   0.04761   0.77572   0.00000  Uiso   1.00
I665   I     0.92602   0.00104   0.74368   0.00000  Uiso   1.00
I666   I     0.57398   0.33229   0.92298   0.00000  Uiso   1.00
I667   I     0.71130   0.30347   0.71925   0.00000  Uiso   1.00
I668   I     0.78870   0.02986   0.94742   0.00000  Uiso   1.00
O669   O     0.70543   0.11908   0.97482   0.00000  Uiso   1.00
H670   H     0.68935   0.10075   0.66848   0.00000  Uiso   1.00
O671   O     0.79457   0.21425   0.69185   0.00000  Uiso   1.00
H672   H     0.81065   0.23258   0.99818   0.00000  Uiso   1.00
C673   C     0.24844   0.40001   0.81791   0.00000  Uiso   1.00
C674   C     0.25156   0.59999   0.84876   0.00000  Uiso   1.00
C675   C     0.01186   0.40643   0.78412   0.00000  Uiso   1.00
C676   C     0.48814   0.59357   0.88255   0.00000  Uiso   1.00
C677   C     0.24376   0.34422   0.80961   0.00000  Uiso   1.00
C678   C     0.25624   0.65578   0.85706   0.00000  Uiso   1.00
C679   C     0.16449   0.49923   0.83350   0.00000  Uiso   1.00
C680   C     0.33551   0.50077   0.83316   0.00000  Uiso   1.00
C681   C     0.41193   0.54847   0.85742   0.00000  Uiso   1.00
C682   C     0.08807   0.45153   0.80925   0.00000  Uiso   1.00
C683   C     0.38375   0.50192   0.83272   0.00000  Uiso   1.00
C684   C     0.11625   0.49808   0.83395   0.00000  Uiso   1.00
C685   C     0.40121   0.45547   0.80764   0.00000  Uiso   1.00
C686   C     0.09878   0.54453   0.85902   0.00000  Uiso   1.00
C687   C     0.44753   0.45390   0.80767   0.00000  Uiso   1.00
C688   C     0.05247   0.54610   0.85899   0.00000  Uiso   1.00
C689   C     0.47655   0.50044   0.83308   0.00000  Uiso   1.00
C690   C     0.02345   0.49956   0.83359   0.00000  Uiso   1.00
C691   C     0.45873   0.54791   0.85786   0.00000  Uiso   1.00
C692   C     0.04127   0.45209   0.80881   0.00000  Uiso   1.00
C693   C     0.46558   0.40696   0.78326   0.00000  Uiso   1.00
C694   C     0.03442   0.59304   0.88341   0.00000  Uiso   1.00
Cu695  Cu    0.25500   0.50579   0.89479   0.00000  Uiso   1.00
Cu696  Cu    0.24499   0.49421   0.77187   0.00000  Uiso   1.00
H697   H     0.37808   0.42063   0.78900   0.00000  Uiso   1.00
H698   H     0.12192   0.57937   0.87767   0.00000  Uiso   1.00
H699   H     0.02417   0.36957   0.76484   0.00000  Uiso   1.00
H700   H     0.47583   0.63043   0.90183   0.00000  Uiso   1.00
N701   N     0.23744   0.48547   0.67951   0.00000  Uiso   1.00
N702   N     0.26255   0.51453   0.98716   0.00000  Uiso   1.00
O703   O     0.25325   0.42871   0.87326   0.00000  Uiso   1.00
O704   O     0.24674   0.57129   0.79341   0.00000  Uiso   1.00
O705   O     0.24480   0.41892   0.76945   0.00000  Uiso   1.00
O706   O     0.25520   0.58108   0.89721   0.00000  Uiso   1.00
O707   O     0.18935   0.50488   0.88524   0.00000  Uiso   1.00
O708   O     0.31064   0.49512   0.78143   0.00000  Uiso   1.00
O709   O     0.18090   0.49510   0.78143   0.00000  Uiso   1.00
O710   O     0.31910   0.50490   0.88523   0.00000  Uiso   1.00
I711   I     0.38255   0.61906   0.89095   0.00000  Uiso   1.00
I712   I     0.11745   0.38094   0.77572   0.00000  Uiso   1.00
I713   I     0.42602   0.33438   0.74368   0.00000  Uiso   1.00
I714   I     0.07398   0.66562   0.92298   0.00000  Uiso   1.00
I715   I     0.21130   0.63681   0.71925   0.00000  Uiso   1.00
I716   I     0.28870   0.36319   0.94742   0.00000  Uiso   1.00
O717   O     0.20543   0.45241   0.97482   0.00000  Uiso   1.00
H718   H     0.18935   0.43408   0.66848   0.00000  Uiso   1.00
O719   O     0.29457   0.54759   0.69185   0.00000  Uiso   1.00
H720   H     0.31065   0.56592   0.99818   0.00000  Uiso   1.00
C721   C     0.74844   0.40001   0.81791   0.00000  Uiso   1.00
C722   C     0.75156   0.59999   0.84876   0.00000  Uiso   1.00
C723   C     0.51186   0.40643   0.78412   0.00000  Uiso   1.00
C724   C     0.98814   0.59357   0.88255   0.00000  Uiso   1.00
C725   C     0.74376   0.34422   0.80961   0.00000  Uiso   1.00
C726   C     0.75624   0.65578   0.85706   0.00000  Uiso   1.00
C727   C     0.66449   0.49923   0.83350   0.00000  Uiso   1.00
C728   C     0.83551   0.50077   0.83316   0.00000  Uiso   1.00
C729   C     0.91193   0.54847   0.85742   0.00000  Uiso   1.00
C730   C     0.58807   0.45153   0.80925   0.00000  Uiso   1.00
C731   C     0.88375   0.50192   0.83272   0.00000  Uiso   1.00
C732   C     0.61625   0.49808   0.83395   0.00000  Uiso   1.00
C733   C     0.90121   0.45547   0.80764   0.00000  Uiso   1.00
C734   C     0.59878   0.54453   0.85902   0.00000  Uiso   1.00
C735   C     0.94753   0.45390   0.80767   0.00000  Uiso   1.00
C736   C     0.55247   0.54610   0.85899   0.00000  Uiso   1.00
C737   C     0.97655   0.50044   0.83308   0.00000  Uiso   1.00
C738   C     0.52345   0.49956   0.83359   0.00000  Uiso   1.00
C739   C     0.95873   0.54791   0.85786   0.00000  Uiso   1.00
C740   C     0.54127   0.45209   0.80881   0.00000  Uiso   1.00
C741   C     0.96558   0.40696   0.78326   0.00000  Uiso   1.00
C742   C     0.53442   0.59304   0.88341   0.00000  Uiso   1.00
Cu743  Cu    0.75500   0.50579   0.89479   0.00000  Uiso   1.00
Cu744  Cu    0.74499   0.49421   0.77187   0.00000  Uiso   1.00
H745   H     0.87808   0.42063   0.78900   0.00000  Uiso   1.00
H746   H     0.62192   0.57937   0.87767   0.00000  Uiso   1.00
H747   H     0.52417   0.36957   0.76484   0.00000  Uiso   1.00
H748   H     0.97583   0.63043   0.90183   0.00000  Uiso   1.00
N749   N     0.73744   0.48547   0.67951   0.00000  Uiso   1.00
N750   N     0.76255   0.51453   0.98716   0.00000  Uiso   1.00
O751   O     0.75325   0.42871   0.87326   0.00000  Uiso   1.00
O752   O     0.74674   0.57129   0.79341   0.00000  Uiso   1.00
O753   O     0.74480   0.41892   0.76945   0.00000  Uiso   1.00
O754   O     0.75520   0.58108   0.89721   0.00000  Uiso   1.00
O755   O     0.68935   0.50488   0.88524   0.00000  Uiso   1.00
O756   O     0.81064   0.49512   0.78143   0.00000  Uiso   1.00
O757   O     0.68090   0.49510   0.78143   0.00000  Uiso   1.00
O758   O     0.81910   0.50490   0.88523   0.00000  Uiso   1.00
I759   I     0.88255   0.61906   0.89095   0.00000  Uiso   1.00
I760   I     0.61745   0.38094   0.77572   0.00000  Uiso   1.00
I761   I     0.92602   0.33438   0.74368   0.00000  Uiso   1.00
I762   I     0.57398   0.66562   0.92298   0.00000  Uiso   1.00
I763   I     0.71130   0.63681   0.71925   0.00000  Uiso   1.00
I764   I     0.78870   0.36319   0.94742   0.00000  Uiso   1.00
O765   O     0.70543   0.45241   0.97482   0.00000  Uiso   1.00
H766   H     0.68935   0.43408   0.66848   0.00000  Uiso   1.00
O767   O     0.79457   0.54759   0.69185   0.00000  Uiso   1.00
H768   H     0.81065   0.56592   0.99818   0.00000  Uiso   1.00
C769   C     0.24844   0.73334   0.81791   0.00000  Uiso   1.00
C770   C     0.25156   0.93333   0.84876   0.00000  Uiso   1.00
C771   C     0.01186   0.73976   0.78412   0.00000  Uiso   1.00
C772   C     0.48814   0.92691   0.88255   0.00000  Uiso   1.00
C773   C     0.24376   0.67755   0.80961   0.00000  Uiso   1.00
C774   C     0.25624   0.98912   0.85706   0.00000  Uiso   1.00
C775   C     0.16449   0.83257   0.83350   0.00000  Uiso   1.00
C776   C     0.33551   0.83410   0.83316   0.00000  Uiso   1.00
C777   C     0.41193   0.88181   0.85742   0.00000  Uiso   1.00
C778   C     0.08807   0.78486   0.80925   0.00000  Uiso   1.00
C779   C     0.38375   0.83525   0.83272   0.00000  Uiso   1.00
C780   C     0.11625   0.83141   0.83395   0.00000  Uiso   1.00
C781   C     0.40121   0.78880   0.80764   0.00000  Uiso   1.00
C782   C     0.09878   0.87787   0.85902   0.00000  Uiso   1.00
C783   C     0.44753   0.78723   0.80767   0.00000  Uiso   1.00
C784   C     0.05247   0.87943   0.85899   0.00000  Uiso   1.00
C785   C     0.47655   0.83377   0.83308   0.00000  Uiso   1.00
C786   C     0.02345   0.83289   0.83359   0.00000  Uiso   1.00
C787   C     0.45873   0.88124   0.85786   0.00000  Uiso   1.00
C788   C     0.04127   0.78542   0.80881   0.00000  Uiso   1.00
C789   C     0.46558   0.74029   0.78326   0.00000  Uiso   1.00
C790   C     0.03442   0.92638   0.88341   0.00000  Uiso   1.00
Cu791  Cu    0.25500   0.83913   0.89479   0.00000  Uiso   1.00
Cu792  Cu    0.24499   0.82754   0.77187   0.00000  Uiso   1.00
H793   H     0.37808   0.75396   0.78900   0.00000  Uiso   1.00
H794   H     0.12192   0.91270   0.87767   0.00000  Uiso   1.00
H795   H     0.02417   0.70290   0.76484   0.00000  Uiso   1.00
H796   H     0.47583   0.96376   0.90183   0.00000  Uiso   1.00
N797   N     0.23744   0.81881   0.67951   0.00000  Uiso   1.00
N798   N     0.26255   0.84786   0.98716   0.00000  Uiso   1.00
O799   O     0.25325   0.76204   0.87326   0.00000  Uiso   1.00
O800   O     0.24674   0.90462   0.79341   0.00000  Uiso   1.00
O801   O     0.24480   0.75226   0.76945   0.00000  Uiso   1.00
O802   O     0.25520   0.91441   0.89721   0.00000  Uiso   1.00
O803   O     0.18935   0.83821   0.88524   0.00000  Uiso   1.00
O804   O     0.31064   0.82845   0.78143   0.00000  Uiso   1.00
O805   O     0.18090   0.82843   0.78143   0.00000  Uiso   1.00
O806   O     0.31910   0.83824   0.88523   0.00000  Uiso   1.00
I807   I     0.38255   0.95239   0.89095   0.00000  Uiso   1.00
I808   I     0.11745   0.71428   0.77572   0.00000  Uiso   1.00
I809   I     0.42602   0.66771   0.74368   0.00000  Uiso   1.00
I810   I     0.07398   0.99896   0.92298   0.00000  Uiso   1.00
I811   I     0.21130   0.97014   0.71925   0.00000  Uiso   1.00
I812   I     0.28870   0.69653   0.94742   0.00000  Uiso   1.00
O813   O     0.20543   0.78575   0.97482   0.00000  Uiso   1.00
H814   H     0.18935   0.76742   0.66848   0.00000  Uiso   1.00
O815   O     0.29457   0.88092   0.69185   0.00000  Uiso   1.00
H816   H     0.31065   0.89925   0.99818   0.00000  Uiso   1.00
C817   C     0.74844   0.73334   0.81791   0.00000  Uiso   1.00
C818   C     0.75156   0.93333   0.84876   0.00000  Uiso   1.00
C819   C     0.51186   0.73976   0.78412   0.00000  Uiso   1.00
C820   C     0.98814   0.92691   0.88255   0.00000  Uiso   1.00
C821   C     0.74376   0.67755   0.80961   0.00000  Uiso   1.00
C822   C     0.75624   0.98912   0.85706   0.00000  Uiso   1.00
C823   C     0.66449   0.83257   0.83350   0.00000  Uiso   1.00
C824   C     0.83551   0.83410   0.83316   0.00000  Uiso   1.00
C825   C     0.91193   0.88181   0.85742   0.00000  Uiso   1.00
C826   C     0.58807   0.78486   0.80925   0.00000  Uiso   1.00
C827   C     0.88375   0.83525   0.83272   0.00000  Uiso   1.00
C828   C     0.61625   0.83141   0.83395   0.00000  Uiso   1.00
C829   C     0.90121   0.78880   0.80764   0.00000  Uiso   1.00
C830   C     0.59878   0.87787   0.85902   0.00000  Uiso   1.00
C831   C     0.94753   0.78723   0.80767   0.00000  Uiso   1.00
C832   C     0.55247   0.87943   0.85899   0.00000  Uiso   1.00
C833   C     0.97655   0.83377   0.83308   0.00000  Uiso   1.00
C834   C     0.52345   0.83289   0.83359   0.00000  Uiso   1.00
C835   C     0.95873   0.88124   0.85786   0.00000  Uiso   1.00
C836   C     0.54127   0.78542   0.80881   0.00000  Uiso   1.00
C837   C     0.96558   0.74029   0.78326   0.00000  Uiso   1.00
C838   C     0.53442   0.92638   0.88341   0.00000  Uiso   1.00
Cu839  Cu    0.75500   0.83913   0.89479   0.00000  Uiso   1.00
Cu840  Cu    0.74499   0.82754   0.77187   0.00000  Uiso   1.00
H841   H     0.87808   0.75396   0.78900   0.00000  Uiso   1.00
H842   H     0.62192   0.91270   0.87767   0.00000  Uiso   1.00
H843   H     0.52417   0.70290   0.76484   0.00000  Uiso   1.00
H844   H     0.97583   0.96376   0.90183   0.00000  Uiso   1.00
N845   N     0.73744   0.81881   0.67951   0.00000  Uiso   1.00
N846   N     0.76255   0.84786   0.98716   0.00000  Uiso   1.00
O847   O     0.75325   0.76204   0.87326   0.00000  Uiso   1.00
O848   O     0.74674   0.90462   0.79341   0.00000  Uiso   1.00
O849   O     0.74480   0.75226   0.76945   0.00000  Uiso   1.00
O850   O     0.75520   0.91441   0.89721   0.00000  Uiso   1.00
O851   O     0.68935   0.83821   0.88524   0.00000  Uiso   1.00
O852   O     0.81064   0.82845   0.78143   0.00000  Uiso   1.00
O853   O     0.68090   0.82843   0.78143   0.00000  Uiso   1.00
O854   O     0.81910   0.83824   0.88523   0.00000  Uiso   1.00
I855   I     0.88255   0.95239   0.89095   0.00000  Uiso   1.00
I856   I     0.61745   0.71428   0.77572   0.00000  Uiso   1.00
I857   I     0.92602   0.66771   0.74368   0.00000  Uiso   1.00
I858   I     0.57398   0.99896   0.92298   0.00000  Uiso   1.00
I859   I     0.71130   0.97014   0.71925   0.00000  Uiso   1.00
I860   I     0.78870   0.69653   0.94742   0.00000  Uiso   1.00
O861   O     0.70543   0.78575   0.97482   0.00000  Uiso   1.00
H862   H     0.68935   0.76742   0.66848   0.00000  Uiso   1.00
O863   O     0.79457   0.88092   0.69185   0.00000  Uiso   1.00
H864   H     0.81065   0.89925   0.99818   0.00000  Uiso   1.00
loop_
_geom_bond_atom_site_label_1
_geom_bond_atom_site_label_2
_geom_bond_distance
_geom_bond_site_symmetry_2
_ccdc_geom_bond_type
C1     O31     1.288   .     A
C1     O33     1.294   .     A
C1     C5      1.433   .     S
C2     O34     1.294   .     A
C2     C6      1.433   .     S
C2     O32     1.288   .     A
C3     H27     1.079   .     S
C3     C20     1.405   .     A
C3     C69     1.390   1_455 S
C4     H28     1.079   .     S
C4     C19     1.405   .     A
C4     C70     1.390   .     S
C5     C198    1.357   1_545 S
C5     I235    2.168   1_545 S
C6     C101    1.357   .     S
C6     I140    2.168   .     S
C7     O37     1.294   .     A
C7     C12     1.448   .     S
C7     O35     1.294   .     A
C8     O38     1.294   .     A
C8     C11     1.448   .     S
C8     O36     1.294   .     A
C9     C11     1.403   .     A
C9     I39     2.135   .     S
C9     C19     1.406   .     A
C10    C12     1.403   .     A
C10    C20     1.406   .     A
C10    I40     2.135   .     S
C11    C13     1.392   .     A
C12    C14     1.392   .     A
C13    H25     1.082   .     S
C13    C15     1.395   .     A
C14    H26     1.082   .     S
C14    C16     1.395   .     A
C15    C21     1.408   .     A
C15    C17     1.418   .     A
C16    C18     1.418   .     A
C16    C22     1.408   .     A
C17    C19     1.417   .     A
C17    C66     1.410   .     S
C18    C20     1.417   .     A
C18    C65     1.410   1_455 S
C21    I41     2.129   .     S
C21    C51     1.390   .     S
C22    I42     2.129   .     S
C22    C52     1.390   1_455 S
Cu23   Cu24    2.691   .     S
Cu23   O38     1.958   .     S
Cu23   O34     1.972   .     S
Cu23   O35     1.962   .     S
Cu23   N30     2.022   .     S
Cu23   O31     1.974   .     S
Cu24   O32     1.974   .     S
Cu24   O33     1.972   .     S
Cu24   O37     1.958   .     S
Cu24   O36     1.962   .     S
Cu24   N29     2.022   .     S
N29    N606    1.292   1_554 S
N29    O621    1.338   1_554 S
N30    N317    1.292   .     S
N30    O335    1.338   .     S
I43    C101    2.168   .     S
I44    C198    2.168   1_545 S
O45    N317    1.338   .     S
O45    H334    0.990   .     S
H46    O621    0.990   1_554 S
O47    N606    1.338   1_554 S
O47    H624    0.990   1_554 S
H48    O335    0.990   .     S
C49    O79     1.288   .     A
C49    O81     1.294   .     A
C49    C53     1.433   .     S
C50    O82     1.294   .     A
C50    C54     1.433   .     S
C50    O80     1.288   .     A
C51    H75     1.079   .     S
C51    C68     1.405   .     A
C52    H76     1.079   .     S
C52    C67     1.405   .     A
C52    C22     1.390   1_655 S
C53    C246    1.357   1_545 S
C53    I283    2.168   1_545 S
C54    C149    1.357   .     S
C54    I188    2.168   .     S
C55    O85     1.294   .     A
C55    C60     1.448   .     S
C55    O83     1.294   .     A
C56    O86     1.294   .     A
C56    C59     1.448   .     S
C56    O84     1.294   .     A
C57    C59     1.403   .     A
C57    I87     2.135   .     S
C57    C67     1.406   .     A
C58    C60     1.403   .     A
C58    C68     1.406   .     A
C58    I88     2.135   .     S
C59    C61     1.392   .     A
C60    C62     1.392   .     A
C61    H73     1.082   .     S
C61    C63     1.395   .     A
C62    H74     1.082   .     S
C62    C64     1.395   .     A
C63    C69     1.408   .     A
C63    C65     1.418   .     A
C64    C66     1.418   .     A
C64    C70     1.408   .     A
C65    C67     1.417   .     A
C65    C18     1.410   1_655 S
C66    C68     1.417   .     A
C69    I89     2.129   .     S
C69    C3      1.390   1_655 S
C70    I90     2.129   .     S
Cu71   Cu72    2.691   .     S
Cu71   O86     1.958   .     S
Cu71   O82     1.972   .     S
Cu71   O83     1.962   .     S
Cu71   N78     2.022   .     S
Cu71   O79     1.974   .     S
Cu72   O80     1.974   .     S
Cu72   O81     1.972   .     S
Cu72   O85     1.958   .     S
Cu72   O84     1.962   .     S
Cu72   N77     2.022   .     S
N77    N654    1.292   1_554 S
N77    O669    1.338   1_554 S
N78    N365    1.292   .     S
N78    O383    1.338   .     S
I91    C149    2.168   .     S
I92    C246    2.168   1_545 S
O93    N365    1.338   .     S
O93    H382    0.990   .     S
H94    O669    0.990   1_554 S
O95    N654    1.338   1_554 S
O95    H672    0.990   1_554 S
H96    O383    0.990   .     S
C97    O127    1.288   .     A
C97    O129    1.294   .     A
C97    C101    1.433   .     S
C98    O130    1.294   .     A
C98    C102    1.433   .     S
C98    O128    1.288   .     A
C99    H123    1.079   .     S
C99    C116    1.405   .     A
C99    C165    1.390   1_455 S
C100   H124    1.079   .     S
C100   C115    1.405   .     A
C100   C166    1.390   .     S
C102   C197    1.357   .     S
C102   I236    2.168   .     S
C103   O133    1.294   .     A
C103   C108    1.448   .     S
C103   O131    1.294   .     A
C104   O134    1.294   .     A
C104   C107    1.448   .     S
C104   O132    1.294   .     A
C105   C107    1.403   .     A
C105   I135    2.135   .     S
C105   C115    1.406   .     A
C106   C108    1.403   .     A
C106   C116    1.406   .     A
C106   I136    2.135   .     S
C107   C109    1.392   .     A
C108   C110    1.392   .     A
C109   H121    1.082   .     S
C109   C111    1.395   .     A
C110   H122    1.082   .     S
C110   C112    1.395   .     A
C111   C117    1.408   .     A
C111   C113    1.418   .     A
C112   C114    1.418   .     A
C112   C118    1.408   .     A
C113   C115    1.417   .     A
C113   C162    1.410   .     S
C114   C116    1.417   .     A
C114   C161    1.410   1_455 S
C117   I137    2.129   .     S
C117   C147    1.390   .     S
C118   I138    2.129   .     S
C118   C148    1.390   1_455 S
Cu119  Cu120   2.691   .     S
Cu119  O134    1.958   .     S
Cu119  O130    1.972   .     S
Cu119  O131    1.962   .     S
Cu119  N126    2.022   .     S
Cu119  O127    1.974   .     S
Cu120  O128    1.974   .     S
Cu120  O129    1.972   .     S
Cu120  O133    1.958   .     S
Cu120  O132    1.962   .     S
Cu120  N125    2.022   .     S
N125   N702    1.292   1_554 S
N125   O717    1.338   1_554 S
N126   N413    1.292   .     S
N126   O431    1.338   .     S
I139   C197    2.168   .     S
O141   N413    1.338   .     S
O141   H430    0.990   .     S
H142   O717    0.990   1_554 S
O143   N702    1.338   1_554 S
O143   H720    0.990   1_554 S
H144   O431    0.990   .     S
C145   O175    1.288   .     A
C145   O177    1.294   .     A
C145   C149    1.433   .     S
C146   O178    1.294   .     A
C146   C150    1.433   .     S
C146   O176    1.288   .     A
C147   H171    1.079   .     S
C147   C164    1.405   .     A
C148   H172    1.079   .     S
C148   C163    1.405   .     A
C148   C118    1.390   1_655 S
C150   C245    1.357   .     S
C150   I284    2.168   .     S
C151   O181    1.294   .     A
C151   C156    1.448   .     S
C151   O179    1.294   .     A
C152   O182    1.294   .     A
C152   C155    1.448   .     S
C152   O180    1.294   .     A
C153   C155    1.403   .     A
C153   I183    2.135   .     S
C153   C163    1.406   .     A
C154   C156    1.403   .     A
C154   C164    1.406   .     A
C154   I184    2.135   .     S
C155   C157    1.392   .     A
C156   C158    1.392   .     A
C157   H169    1.082   .     S
C157   C159    1.395   .     A
C158   H170    1.082   .     S
C158   C160    1.395   .     A
C159   C165    1.408   .     A
C159   C161    1.418   .     A
C160   C162    1.418   .     A
C160   C166    1.408   .     A
C161   C163    1.417   .     A
C161   C114    1.410   1_655 S
C162   C164    1.417   .     A
C165   I185    2.129   .     S
C165   C99     1.390   1_655 S
C166   I186    2.129   .     S
Cu167  Cu168   2.691   .     S
Cu167  O182    1.958   .     S
Cu167  O178    1.972   .     S
Cu167  O179    1.962   .     S
Cu167  N174    2.022   .     S
Cu167  O175    1.974   .     S
Cu168  O176    1.974   .     S
Cu168  O177    1.972   .     S
Cu168  O181    1.958   .     S
Cu168  O180    1.962   .     S
Cu168  N173    2.022   .     S
N173   N750    1.292   1_554 S
N173   O765    1.338   1_554 S
N174   N461    1.292   .     S
N174   O479    1.338   .     S
I187   C245    2.168   .     S
O189   N461    1.338   .     S
O189   H478    0.990   .     S
H190   O765    0.990   1_554 S
O191   N750    1.338   1_554 S
O191   H768    0.990   1_554 S
H192   O479    0.990   .     S
C193   O223    1.288   .     A
C193   O225    1.294   .     A
C193   C197    1.433   .     S
C194   O226    1.294   .     A
C194   C198    1.433   .     S
C194   O224    1.288   .     A
C195   H219    1.079   .     S
C195   C212    1.405   .     A
C195   C261    1.390   1_455 S
C196   H220    1.079   .     S
C196   C211    1.405   .     A
C196   C262    1.390   .     S
C198   C5      1.357   1_565 S
C198   I44     2.168   1_565 S
C199   O229    1.294   .     A
C199   C204    1.448   .     S
C199   O227    1.294   .     A
C200   O230    1.294   .     A
C200   C203    1.448   .     S
C200   O228    1.294   .     A
C201   C203    1.403   .     A
C201   I231    2.135   .     S
C201   C211    1.406   .     A
C202   C204    1.403   .     A
C202   C212    1.406   .     A
C202   I232    2.135   .     S
C203   C205    1.392   .     A
C204   C206    1.392   .     A
C205   H217    1.082   .     S
C205   C207    1.395   .     A
C206   H218    1.082   .     S
C206   C208    1.395   .     A
C207   C213    1.408   .     A
C207   C209    1.418   .     A
C208   C210    1.418   .     A
C208   C214    1.408   .     A
C209   C211    1.417   .     A
C209   C258    1.410   .     S
C210   C212    1.417   .     A
C210   C257    1.410   1_455 S
C213   I233    2.129   .     S
C213   C243    1.390   .     S
C214   I234    2.129   .     S
C214   C244    1.390   1_455 S
Cu215  Cu216   2.691   .     S
Cu215  O230    1.958   .     S
Cu215  O226    1.972   .     S
Cu215  O227    1.962   .     S
Cu215  N222    2.022   .     S
Cu215  O223    1.974   .     S
Cu216  O224    1.974   .     S
Cu216  O225    1.972   .     S
Cu216  O229    1.958   .     S
Cu216  O228    1.962   .     S
Cu216  N221    2.022   .     S
N221   N798    1.292   1_554 S
N221   O813    1.338   1_554 S
N222   N509    1.292   .     S
N222   O527    1.338   .     S
I235   C5      2.168   1_565 S
O237   N509    1.338   .     S
O237   H526    0.990   .     S
H238   O813    0.990   1_554 S
O239   N798    1.338   1_554 S
O239   H816    0.990   1_554 S
H240   O527    0.990   .     S
C241   O271    1.288   .     A
C241   O273    1.294   .     A
C241   C245    1.433   .     S
C242   O274    1.294   .     A
C242   C246    1.433   .     S
C242   O272    1.288   .     A
C243   H267    1.079   .     S
C243   C260    1.405   .     A
C244   H268    1.079   .     S
C244   C259    1.405   .     A
C244   C214    1.390   1_655 S
C246   C53     1.357   1_565 S
C246   I92     2.168   1_565 S
C247   O277    1.294   .     A
C247   C252    1.448   .     S
C247   O275    1.294   .     A
C248   O278    1.294   .     A
C248   C251    1.448   .     S
C248   O276    1.294   .     A
C249   C251    1.403   .     A
C249   I279    2.135   .     S
C249   C259    1.406   .     A
C250   C252    1.403   .     A
C250   C260    1.406   .     A
C250   I280    2.135   .     S
C251   C253    1.392   .     A
C252   C254    1.392   .     A
C253   H265    1.082   .     S
C253   C255    1.395   .     A
C254   H266    1.082   .     S
C254   C256    1.395   .     A
C255   C261    1.408   .     A
C255   C257    1.418   .     A
C256   C258    1.418   .     A
C256   C262    1.408   .     A
C257   C259    1.417   .     A
C257   C210    1.410   1_655 S
C258   C260    1.417   .     A
C261   I281    2.129   .     S
C261   C195    1.390   1_655 S
C262   I282    2.129   .     S
Cu263  Cu264   2.691   .     S
Cu263  O278    1.958   .     S
Cu263  O274    1.972   .     S
Cu263  O275    1.962   .     S
Cu263  N270    2.022   .     S
Cu263  O271    1.974   .     S
Cu264  O272    1.974   .     S
Cu264  O273    1.972   .     S
Cu264  O277    1.958   .     S
Cu264  O276    1.962   .     S
Cu264  N269    2.022   .     S
N269   N846    1.292   1_554 S
N269   O861    1.338   1_554 S
N270   N557    1.292   .     S
N270   O575    1.338   .     S
I283   C53     2.168   1_565 S
O285   N557    1.338   .     S
O285   H574    0.990   .     S
H286   O861    0.990   1_554 S
O287   N846    1.338   1_554 S
O287   H864    0.990   1_554 S
H288   O575    0.990   .     S
C289   O319    1.288   .     A
C289   O321    1.294   .     A
C289   C293    1.433   .     S
C290   O322    1.294   .     A
C290   C294    1.433   .     S
C290   O320    1.288   .     A
C291   H315    1.079   .     S
C291   C308    1.405   .     A
C291   C357    1.390   1_455 S
C292   H316    1.079   .     S
C292   C307    1.405   .     A
C292   C358    1.390   .     S
C293   C486    1.357   1_545 S
C293   I523    2.168   1_545 S
C294   C389    1.357   .     S
C294   I428    2.168   .     S
C295   O325    1.294   .     A
C295   C300    1.448   .     S
C295   O323    1.294   .     A
C296   O326    1.294   .     A
C296   C299    1.448   .     S
C296   O324    1.294   .     A
C297   C299    1.403   .     A
C297   I327    2.135   .     S
C297   C307    1.406   .     A
C298   C300    1.403   .     A
C298   C308    1.406   .     A
C298   I328    2.135   .     S
C299   C301    1.392   .     A
C300   C302    1.392   .     A
C301   H313    1.082   .     S
C301   C303    1.395   .     A
C302   H314    1.082   .     S
C302   C304    1.395   .     A
C303   C309    1.408   .     A
C303   C305    1.418   .     A
C304   C306    1.418   .     A
C304   C310    1.408   .     A
C305   C307    1.417   .     A
C305   C354    1.410   .     S
C306   C308    1.417   .     A
C306   C353    1.410   1_455 S
C309   I329    2.129   .     S
C309   C339    1.390   .     S
C310   I330    2.129   .     S
C310   C340    1.390   1_455 S
Cu311  Cu312   2.691   .     S
Cu311  O326    1.958   .     S
Cu311  O322    1.972   .     S
Cu311  O323    1.962   .     S
Cu311  N318    2.022   .     S
Cu311  O319    1.974   .     S
Cu312  O320    1.974   .     S
Cu312  O321    1.972   .     S
Cu312  O325    1.958   .     S
Cu312  O324    1.962   .     S
Cu312  N317    2.022   .     S
N318   N605    1.292   .     S
N318   O623    1.338   .     S
I331   C389    2.168   .     S
I332   C486    2.168   1_545 S
O333   N605    1.338   .     S
O333   H622    0.990   .     S
H336   O623    0.990   .     S
C337   O367    1.288   .     A
C337   O369    1.294   .     A
C337   C341    1.433   .     S
C338   O370    1.294   .     A
C338   C342    1.433   .     S
C338   O368    1.288   .     A
C339   H363    1.079   .     S
C339   C356    1.405   .     A
C340   H364    1.079   .     S
C340   C355    1.405   .     A
C340   C310    1.390   1_655 S
C341   C534    1.357   1_545 S
C341   I571    2.168   1_545 S
C342   C437    1.357   .     S
C342   I476    2.168   .     S
C343   O373    1.294   .     A
C343   C348    1.448   .     S
C343   O371    1.294   .     A
C344   O374    1.294   .     A
C344   C347    1.448   .     S
C344   O372    1.294   .     A
C345   C347    1.403   .     A
C345   I375    2.135   .     S
C345   C355    1.406   .     A
C346   C348    1.403   .     A
C346   C356    1.406   .     A
C346   I376    2.135   .     S
C347   C349    1.392   .     A
C348   C350    1.392   .     A
C349   H361    1.082   .     S
C349   C351    1.395   .     A
C350   H362    1.082   .     S
C350   C352    1.395   .     A
C351   C357    1.408   .     A
C351   C353    1.418   .     A
C352   C354    1.418   .     A
C352   C358    1.408   .     A
C353   C355    1.417   .     A
C353   C306    1.410   1_655 S
C354   C356    1.417   .     A
C357   I377    2.129   .     S
C357   C291    1.390   1_655 S
C358   I378    2.129   .     S
Cu359  Cu360   2.691   .     S
Cu359  O374    1.958   .     S
Cu359  O370    1.972   .     S
Cu359  O371    1.962   .     S
Cu359  N366    2.022   .     S
Cu359  O367    1.974   .     S
Cu360  O368    1.974   .     S
Cu360  O369    1.972   .     S
Cu360  O373    1.958   .     S
Cu360  O372    1.962   .     S
Cu360  N365    2.022   .     S
N366   N653    1.292   .     S
N366   O671    1.338   .     S
I379   C437    2.168   .     S
I380   C534    2.168   1_545 S
O381   N653    1.338   .     S
O381   H670    0.990   .     S
H384   O671    0.990   .     S
C385   O415    1.288   .     A
C385   O417    1.294   .     A
C385   C389    1.433   .     S
C386   O418    1.294   .     A
C386   C390    1.433   .     S
C386   O416    1.288   .     A
C387   H411    1.079   .     S
C387   C404    1.405   .     A
C387   C453    1.390   1_455 S
C388   H412    1.079   .     S
C388   C403    1.405   .     A
C388   C454    1.390   .     S
C390   C485    1.357   .     S
C390   I524    2.168   .     S
C391   O421    1.294   .     A
C391   C396    1.448   .     S
C391   O419    1.294   .     A
C392   O422    1.294   .     A
C392   C395    1.448   .     S
C392   O420    1.294   .     A
C393   C395    1.403   .     A
C393   I423    2.135   .     S
C393   C403    1.406   .     A
C394   C396    1.403   .     A
C394   C404    1.406   .     A
C394   I424    2.135   .     S
C395   C397    1.392   .     A
C396   C398    1.392   .     A
C397   H409    1.082   .     S
C397   C399    1.395   .     A
C398   H410    1.082   .     S
C398   C400    1.395   .     A
C399   C405    1.408   .     A
C399   C401    1.418   .     A
C400   C402    1.418   .     A
C400   C406    1.408   .     A
C401   C403    1.417   .     A
C401   C450    1.410   .     S
C402   C404    1.417   .     A
C402   C449    1.410   1_455 S
C405   I425    2.129   .     S
C405   C435    1.390   .     S
C406   I426    2.129   .     S
C406   C436    1.390   1_455 S
Cu407  Cu408   2.691   .     S
Cu407  O422    1.958   .     S
Cu407  O418    1.972   .     S
Cu407  O419    1.962   .     S
Cu407  N414    2.022   .     S
Cu407  O415    1.974   .     S
Cu408  O416    1.974   .     S
Cu408  O417    1.972   .     S
Cu408  O421    1.958   .     S
Cu408  O420    1.962   .     S
Cu408  N413    2.022   .     S
N414   N701    1.292   .     S
N414   O719    1.338   .     S
I427   C485    2.168   .     S
O429   N701    1.338   .     S
O429   H718    0.990   .     S
H432   O719    0.990   .     S
C433   O463    1.288   .     A
C433   O465    1.294   .     A
C433   C437    1.433   .     S
C434   O466    1.294   .     A
C434   C438    1.433   .     S
C434   O464    1.288   .     A
C435   H459    1.079   .     S
C435   C452    1.405   .     A
C436   H460    1.079   .     S
C436   C451    1.405   .     A
C436   C406    1.390   1_655 S
C438   C533    1.357   .     S
C438   I572    2.168   .     S
C439   O469    1.294   .     A
C439   C444    1.448   .     S
C439   O467    1.294   .     A
C440   O470    1.294   .     A
C440   C443    1.448   .     S
C440   O468    1.294   .     A
C441   C443    1.403   .     A
C441   I471    2.135   .     S
C441   C451    1.406   .     A
C442   C444    1.403   .     A
C442   C452    1.406   .     A
C442   I472    2.135   .     S
C443   C445    1.392   .     A
C444   C446    1.392   .     A
C445   H457    1.082   .     S
C445   C447    1.395   .     A
C446   H458    1.082   .     S
C446   C448    1.395   .     A
C447   C453    1.408   .     A
C447   C449    1.418   .     A
C448   C450    1.418   .     A
C448   C454    1.408   .     A
C449   C451    1.417   .     A
C449   C402    1.410   1_655 S
C450   C452    1.417   .     A
C453   I473    2.129   .     S
C453   C387    1.390   1_655 S
C454   I474    2.129   .     S
Cu455  Cu456   2.691   .     S
Cu455  O470    1.958   .     S
Cu455  O466    1.972   .     S
Cu455  O467    1.962   .     S
Cu455  N462    2.022   .     S
Cu455  O463    1.974   .     S
Cu456  O464    1.974   .     S
Cu456  O465    1.972   .     S
Cu456  O469    1.958   .     S
Cu456  O468    1.962   .     S
Cu456  N461    2.022   .     S
N462   N749    1.292   .     S
N462   O767    1.338   .     S
I475   C533    2.168   .     S
O477   N749    1.338   .     S
O477   H766    0.990   .     S
H480   O767    0.990   .     S
C481   O511    1.288   .     A
C481   O513    1.294   .     A
C481   C485    1.433   .     S
C482   O514    1.294   .     A
C482   C486    1.433   .     S
C482   O512    1.288   .     A
C483   H507    1.079   .     S
C483   C500    1.405   .     A
C483   C549    1.390   1_455 S
C484   H508    1.079   .     S
C484   C499    1.405   .     A
C484   C550    1.390   .     S
C486   C293    1.357   1_565 S
C486   I332    2.168   1_565 S
C487   O517    1.294   .     A
C487   C492    1.448   .     S
C487   O515    1.294   .     A
C488   O518    1.294   .     A
C488   C491    1.448   .     S
C488   O516    1.294   .     A
C489   C491    1.403   .     A
C489   I519    2.135   .     S
C489   C499    1.406   .     A
C490   C492    1.403   .     A
C490   C500    1.406   .     A
C490   I520    2.135   .     S
C491   C493    1.392   .     A
C492   C494    1.392   .     A
C493   H505    1.082   .     S
C493   C495    1.395   .     A
C494   H506    1.082   .     S
C494   C496    1.395   .     A
C495   C501    1.408   .     A
C495   C497    1.418   .     A
C496   C498    1.418   .     A
C496   C502    1.408   .     A
C497   C499    1.417   .     A
C497   C546    1.410   .     S
C498   C500    1.417   .     A
C498   C545    1.410   1_455 S
C501   I521    2.129   .     S
C501   C531    1.390   .     S
C502   I522    2.129   .     S
C502   C532    1.390   1_455 S
Cu503  Cu504   2.691   .     S
Cu503  O518    1.958   .     S
Cu503  O514    1.972   .     S
Cu503  O515    1.962   .     S
Cu503  N510    2.022   .     S
Cu503  O511    1.974   .     S
Cu504  O512    1.974   .     S
Cu504  O513    1.972   .     S
Cu504  O517    1.958   .     S
Cu504  O516    1.962   .     S
Cu504  N509    2.022   .     S
N510   N797    1.292   .     S
N510   O815    1.338   .     S
I523   C293    2.168   1_565 S
O525   N797    1.338   .     S
O525   H814    0.990   .     S
H528   O815    0.990   .     S
C529   O559    1.288   .     A
C529   O561    1.294   .     A
C529   C533    1.433   .     S
C530   O562    1.294   .     A
C530   C534    1.433   .     S
C530   O560    1.288   .     A
C531   H555    1.079   .     S
C531   C548    1.405   .     A
C532   H556    1.079   .     S
C532   C547    1.405   .     A
C532   C502    1.390   1_655 S
C534   C341    1.357   1_565 S
C534   I380    2.168   1_565 S
C535   O565    1.294   .     A
C535   C540    1.448   .     S
C535   O563    1.294   .     A
C536   O566    1.294   .     A
C536   C539    1.448   .     S
C536   O564    1.294   .     A
C537   C539    1.403   .     A
C537   I567    2.135   .     S
C537   C547    1.406   .     A
C538   C540    1.403   .     A
C538   C548    1.406   .     A
C538   I568    2.135   .     S
C539   C541    1.392   .     A
C540   C542    1.392   .     A
C541   H553    1.082   .     S
C541   C543    1.395   .     A
C542   H554    1.082   .     S
C542   C544    1.395   .     A
C543   C549    1.408   .     A
C543   C545    1.418   .     A
C544   C546    1.418   .     A
C544   C550    1.408   .     A
C545   C547    1.417   .     A
C545   C498    1.410   1_655 S
C546   C548    1.417   .     A
C549   I569    2.129   .     S
C549   C483    1.390   1_655 S
C550   I570    2.129   .     S
Cu551  Cu552   2.691   .     S
Cu551  O566    1.958   .     S
Cu551  O562    1.972   .     S
Cu551  O563    1.962   .     S
Cu551  N558    2.022   .     S
Cu551  O559    1.974   .     S
Cu552  O560    1.974   .     S
Cu552  O561    1.972   .     S
Cu552  O565    1.958   .     S
Cu552  O564    1.962   .     S
Cu552  N557    2.022   .     S
N558   N845    1.292   .     S
N558   O863    1.338   .     S
I571   C341    2.168   1_565 S
O573   N845    1.338   .     S
O573   H862    0.990   .     S
H576   O863    0.990   .     S
C577   O607    1.288   .     A
C577   O609    1.294   .     A
C577   C581    1.433   .     S
C578   O610    1.294   .     A
C578   C582    1.433   .     S
C578   O608    1.288   .     A
C579   H603    1.079   .     S
C579   C596    1.405   .     A
C579   C645    1.390   1_455 S
C580   H604    1.079   .     S
C580   C595    1.405   .     A
C580   C646    1.390   .     S
C581   C774    1.357   1_545 S
C581   I811    2.168   1_545 S
C582   C677    1.357   .     S
C582   I716    2.168   .     S
C583   O613    1.294   .     A
C583   C588    1.448   .     S
C583   O611    1.294   .     A
C584   O614    1.294   .     A
C584   C587    1.448   .     S
C584   O612    1.294   .     A
C585   C587    1.403   .     A
C585   I615    2.135   .     S
C585   C595    1.406   .     A
C586   C588    1.403   .     A
C586   C596    1.406   .     A
C586   I616    2.135   .     S
C587   C589    1.392   .     A
C588   C590    1.392   .     A
C589   H601    1.082   .     S
C589   C591    1.395   .     A
C590   H602    1.082   .     S
C590   C592    1.395   .     A
C591   C597    1.408   .     A
C591   C593    1.418   .     A
C592   C594    1.418   .     A
C592   C598    1.408   .     A
C593   C595    1.417   .     A
C593   C642    1.410   .     S
C594   C596    1.417   .     A
C594   C641    1.410   1_455 S
C597   I617    2.129   .     S
C597   C627    1.390   .     S
C598   I618    2.129   .     S
C598   C628    1.390   1_455 S
Cu599  Cu600   2.691   .     S
Cu599  O614    1.958   .     S
Cu599  O610    1.972   .     S
Cu599  O611    1.962   .     S
Cu599  N606    2.022   .     S
Cu599  O607    1.974   .     S
Cu600  O608    1.974   .     S
Cu600  O609    1.972   .     S
Cu600  O613    1.958   .     S
Cu600  O612    1.962   .     S
Cu600  N605    2.022   .     S
N606   N29     1.292   1_556 S
N606   O47     1.338   1_556 S
I619   C677    2.168   .     S
I620   C774    2.168   1_545 S
O621   N29     1.338   1_556 S
O621   H46     0.990   1_556 S
H624   O47     0.990   1_556 S
C625   O655    1.288   .     A
C625   O657    1.294   .     A
C625   C629    1.433   .     S
C626   O658    1.294   .     A
C626   C630    1.433   .     S
C626   O656    1.288   .     A
C627   H651    1.079   .     S
C627   C644    1.405   .     A
C628   H652    1.079   .     S
C628   C643    1.405   .     A
C628   C598    1.390   1_655 S
C629   C822    1.357   1_545 S
C629   I859    2.168   1_545 S
C630   C725    1.357   .     S
C630   I764    2.168   .     S
C631   O661    1.294   .     A
C631   C636    1.448   .     S
C631   O659    1.294   .     A
C632   O662    1.294   .     A
C632   C635    1.448   .     S
C632   O660    1.294   .     A
C633   C635    1.403   .     A
C633   I663    2.135   .     S
C633   C643    1.406   .     A
C634   C636    1.403   .     A
C634   C644    1.406   .     A
C634   I664    2.135   .     S
C635   C637    1.392   .     A
C636   C638    1.392   .     A
C637   H649    1.082   .     S
C637   C639    1.395   .     A
C638   H650    1.082   .     S
C638   C640    1.395   .     A
C639   C645    1.408   .     A
C639   C641    1.418   .     A
C640   C642    1.418   .     A
C640   C646    1.408   .     A
C641   C643    1.417   .     A
C641   C594    1.410   1_655 S
C642   C644    1.417   .     A
C645   I665    2.129   .     S
C645   C579    1.390   1_655 S
C646   I666    2.129   .     S
Cu647  Cu648   2.691   .     S
Cu647  O662    1.958   .     S
Cu647  O658    1.972   .     S
Cu647  O659    1.962   .     S
Cu647  N654    2.022   .     S
Cu647  O655    1.974   .     S
Cu648  O656    1.974   .     S
Cu648  O657    1.972   .     S
Cu648  O661    1.958   .     S
Cu648  O660    1.962   .     S
Cu648  N653    2.022   .     S
N654   N77     1.292   1_556 S
N654   O95     1.338   1_556 S
I667   C725    2.168   .     S
I668   C822    2.168   1_545 S
O669   N77     1.338   1_556 S
O669   H94     0.990   1_556 S
H672   O95     0.990   1_556 S
C673   O703    1.288   .     A
C673   O705    1.294   .     A
C673   C677    1.433   .     S
C674   O706    1.294   .     A
C674   C678    1.433   .     S
C674   O704    1.288   .     A
C675   H699    1.079   .     S
C675   C692    1.405   .     A
C675   C741    1.390   1_455 S
C676   H700    1.079   .     S
C676   C691    1.405   .     A
C676   C742    1.390   .     S
C678   C773    1.357   .     S
C678   I812    2.168   .     S
C679   O709    1.294   .     A
C679   C684    1.448   .     S
C679   O707    1.294   .     A
C680   O710    1.294   .     A
C680   C683    1.448   .     S
C680   O708    1.294   .     A
C681   C683    1.403   .     A
C681   I711    2.135   .     S
C681   C691    1.406   .     A
C682   C684    1.403   .     A
C682   C692    1.406   .     A
C682   I712    2.135   .     S
C683   C685    1.392   .     A
C684   C686    1.392   .     A
C685   H697    1.082   .     S
C685   C687    1.395   .     A
C686   H698    1.082   .     S
C686   C688    1.395   .     A
C687   C693    1.408   .     A
C687   C689    1.418   .     A
C688   C690    1.418   .     A
C688   C694    1.408   .     A
C689   C691    1.417   .     A
C689   C738    1.410   .     S
C690   C692    1.417   .     A
C690   C737    1.410   1_455 S
C693   I713    2.129   .     S
C693   C723    1.390   .     S
C694   I714    2.129   .     S
C694   C724    1.390   1_455 S
Cu695  Cu696   2.691   .     S
Cu695  O710    1.958   .     S
Cu695  O706    1.972   .     S
Cu695  O707    1.962   .     S
Cu695  N702    2.022   .     S
Cu695  O703    1.974   .     S
Cu696  O704    1.974   .     S
Cu696  O705    1.972   .     S
Cu696  O709    1.958   .     S
Cu696  O708    1.962   .     S
Cu696  N701    2.022   .     S
N702   N125    1.292   1_556 S
N702   O143    1.338   1_556 S
I715   C773    2.168   .     S
O717   N125    1.338   1_556 S
O717   H142    0.990   1_556 S
H720   O143    0.990   1_556 S
C721   O751    1.288   .     A
C721   O753    1.294   .     A
C721   C725    1.433   .     S
C722   O754    1.294   .     A
C722   C726    1.433   .     S
C722   O752    1.288   .     A
C723   H747    1.079   .     S
C723   C740    1.405   .     A
C724   H748    1.079   .     S
C724   C739    1.405   .     A
C724   C694    1.390   1_655 S
C726   C821    1.357   .     S
C726   I860    2.168   .     S
C727   O757    1.294   .     A
C727   C732    1.448   .     S
C727   O755    1.294   .     A
C728   O758    1.294   .     A
C728   C731    1.448   .     S
C728   O756    1.294   .     A
C729   C731    1.403   .     A
C729   I759    2.135   .     S
C729   C739    1.406   .     A
C730   C732    1.403   .     A
C730   C740    1.406   .     A
C730   I760    2.135   .     S
C731   C733    1.392   .     A
C732   C734    1.392   .     A
C733   H745    1.082   .     S
C733   C735    1.395   .     A
C734   H746    1.082   .     S
C734   C736    1.395   .     A
C735   C741    1.408   .     A
C735   C737    1.418   .     A
C736   C738    1.418   .     A
C736   C742    1.408   .     A
C737   C739    1.417   .     A
C737   C690    1.410   1_655 S
C738   C740    1.417   .     A
C741   I761    2.129   .     S
C741   C675    1.390   1_655 S
C742   I762    2.129   .     S
Cu743  Cu744   2.691   .     S
Cu743  O758    1.958   .     S
Cu743  O754    1.972   .     S
Cu743  O755    1.962   .     S
Cu743  N750    2.022   .     S
Cu743  O751    1.974   .     S
Cu744  O752    1.974   .     S
Cu744  O753    1.972   .     S
Cu744  O757    1.958   .     S
Cu744  O756    1.962   .     S
Cu744  N749    2.022   .     S
N750   N173    1.292   1_556 S
N750   O191    1.338   1_556 S
I763   C821    2.168   .     S
O765   N173    1.338   1_556 S
O765   H190    0.990   1_556 S
H768   O191    0.990   1_556 S
C769   O799    1.288   .     A
C769   O801    1.294   .     A
C769   C773    1.433   .     S
C770   O802    1.294   .     A
C770   C774    1.433   .     S
C770   O800    1.288   .     A
C771   H795    1.079   .     S
C771   C788    1.405   .     A
C771   C837    1.390   1_455 S
C772   H796    1.079   .     S
C772   C787    1.405   .     A
C772   C838    1.390   .     S
C774   C581    1.357   1_565 S
C774   I620    2.168   1_565 S
C775   O805    1.294   .     A
C775   C780    1.448   .     S
C775   O803    1.294   .     A
C776   O806    1.294   .     A
C776   C779    1.448   .     S
C776   O804    1.294   .     A
C777   C779    1.403   .     A
C777   I807    2.135   .     S
C777   C787    1.406   .     A
C778   C780    1.403   .     A
C778   C788    1.406   .     A
C778   I808    2.135   .     S
C779   C781    1.392   .     A
C780   C782    1.392   .     A
C781   H793    1.082   .     S
C781   C783    1.395   .     A
C782   H794    1.082   .     S
C782   C784    1.395   .     A
C783   C789    1.408   .     A
C783   C785    1.418   .     A
C784   C786    1.418   .     A
C784   C790    1.408   .     A
C785   C787    1.417   .     A
C785   C834    1.410   .     S
C786   C788    1.417   .     A
C786   C833    1.410   1_455 S
C789   I809    2.129   .     S
C789   C819    1.390   .     S
C790   I810    2.129   .     S
C790   C820    1.390   1_455 S
Cu791  Cu792   2.691   .     S
Cu791  O806    1.958   .     S
Cu791  O802    1.972   .     S
Cu791  O803    1.962   .     S
Cu791  N798    2.022   .     S
Cu791  O799    1.974   .     S
Cu792  O800    1.974   .     S
Cu792  O801    1.972   .     S
Cu792  O805    1.958   .     S
Cu792  O804    1.962   .     S
Cu792  N797    2.022   .     S
N798   N221    1.292   1_556 S
N798   O239    1.338   1_556 S
I811   C581    2.168   1_565 S
O813   N221    1.338   1_556 S
O813   H238    0.990   1_556 S
H816   O239    0.990   1_556 S
C817   O847    1.288   .     A
C817   O849    1.294   .     A
C817   C821    1.433   .     S
C818   O850    1.294   .     A
C818   C822    1.433   .     S
C818   O848    1.288   .     A
C819   H843    1.079   .     S
C819   C836    1.405   .     A
C820   H844    1.079   .     S
C820   C835    1.405   .     A
C820   C790    1.390   1_655 S
C822   C629    1.357   1_565 S
C822   I668    2.168   1_565 S
C823   O853    1.294   .     A
C823   C828    1.448   .     S
C823   O851    1.294   .     A
C824   O854    1.294   .     A
C824   C827    1.448   .     S
C824   O852    1.294   .     A
C825   C827    1.403   .     A
C825   I855    2.135   .     S
C825   C835    1.406   .     A
C826   C828    1.403   .     A
C826   C836    1.406   .     A
C826   I856    2.135   .     S
C827   C829    1.392   .     A
C828   C830    1.392   .     A
C829   H841    1.082   .     S
C829   C831    1.395   .     A
C830   H842    1.082   .     S
C830   C832    1.395   .     A
C831   C837    1.408   .     A
C831   C833    1.418   .     A
C832   C834    1.418   .     A
C832   C838    1.408   .     A
C833   C835    1.417   .     A
C833   C786    1.410   1_655 S
C834   C836    1.417   .     A
C837   I857    2.129   .     S
C837   C771    1.390   1_655 S
C838   I858    2.129   .     S
Cu839  Cu840   2.691   .     S
Cu839  O854    1.958   .     S
Cu839  O850    1.972   .     S
Cu839  O851    1.962   .     S
Cu839  N846    2.022   .     S
Cu839  O847    1.974   .     S
Cu840  O848    1.974   .     S
Cu840  O849    1.972   .     S
Cu840  O853    1.958   .     S
Cu840  O852    1.962   .     S
Cu840  N845    2.022   .     S
N846   N269    1.292   1_556 S
N846   O287    1.338   1_556 S
I859   C629    2.168   1_565 S
O861   N269    1.338   1_556 S
O861   H286    0.990   1_556 S
H864   O287    0.990   1_556 S
