data_str_m2_o10_o17_pcu_sym.93
_audit_creation_date              2020-01-03
_audit_creation_method            'Materials Studio'
_symmetry_space_group_name_H-M    'P1'
_symmetry_Int_Tables_number       1
_symmetry_cell_setting            triclinic
loop_
_symmetry_equiv_pos_as_xyz
  x,y,z
_cell_length_a                    30.0924
_cell_length_b                    26.3773
_cell_length_c                    22.5363
_cell_angle_alpha                 102.2983
_cell_angle_beta                  94.9531
_cell_angle_gamma                 94.1800
loop_
_atom_site_label
_atom_site_type_symbol
_atom_site_fract_x
_atom_site_fract_y
_atom_site_fract_z
_atom_site_U_iso_or_equiv
_atom_site_adp_type
_atom_site_occupancy
C1     C     0.24899   0.06705   0.15174   0.00000  Uiso   1.00
C2     C     0.25102   0.26628   0.18159   0.00000  Uiso   1.00
C3     C     0.02821   0.12960   0.25660   0.00000  Uiso   1.00
C4     C     0.47183   0.20755   0.08062   0.00000  Uiso   1.00
C5     C     0.25545   0.01304   0.14493   0.00000  Uiso   1.00
C6     C     0.24459   0.32030   0.18841   0.00000  Uiso   1.00
C7     C     0.16461   0.16836   0.16710   0.00000  Uiso   1.00
C8     C     0.33524   0.16445   0.16608   0.00000  Uiso   1.00
C9     C     0.40471   0.18362   0.12332   0.00000  Uiso   1.00
C10    C     0.09526   0.15146   0.21217   0.00000  Uiso   1.00
C11    C     0.38328   0.16091   0.16514   0.00000  Uiso   1.00
C12    C     0.11635   0.17109   0.16774   0.00000  Uiso   1.00
C13    C     0.40810   0.13736   0.20669   0.00000  Uiso   1.00
C14    C     0.09111   0.19246   0.12452   0.00000  Uiso   1.00
C15    C     0.45528   0.14312   0.21034   0.00000  Uiso   1.00
C16    C     0.04441   0.19103   0.12457   0.00000  Uiso   1.00
C17    C     0.47648   0.16620   0.16760   0.00000  Uiso   1.00
C18    C     0.02337   0.16932   0.16842   0.00000  Uiso   1.00
C19    C     0.45089   0.18557   0.12346   0.00000  Uiso   1.00
C20    C     0.04908   0.15031   0.21277   0.00000  Uiso   1.00
C21    C     0.48180   0.12598   0.25545   0.00000  Uiso   1.00
C22    C     0.01814   0.21016   0.08100   0.00000  Uiso   1.00
Cu23   Cu    0.25500   0.17246   0.22813   0.00000  Uiso   1.00
Cu24   Cu    0.24499   0.16087   0.10521   0.00000  Uiso   1.00
H25    H     0.38538   0.20085   0.09117   0.00000  Uiso   1.00
H26    H     0.11473   0.13556   0.24542   0.00000  Uiso   1.00
H27    H     0.46701   0.10998   0.29041   0.00000  Uiso   1.00
H28    H     0.03311   0.22688   0.04666   0.00000  Uiso   1.00
H29    H     0.04780   0.11571   0.29153   0.00000  Uiso   1.00
H30    H     0.45234   0.22247   0.04648   0.00000  Uiso   1.00
N31    N     0.23744   0.15214   0.01284   0.00000  Uiso   1.00
N32    N     0.26255   0.18119   0.32049   0.00000  Uiso   1.00
O33    O     0.25325   0.09538   0.20659   0.00000  Uiso   1.00
O34    O     0.24674   0.23796   0.12674   0.00000  Uiso   1.00
O35    O     0.24480   0.08559   0.10279   0.00000  Uiso   1.00
O36    O     0.25520   0.24774   0.23055   0.00000  Uiso   1.00
O37    O     0.18935   0.17155   0.21857   0.00000  Uiso   1.00
O38    O     0.31064   0.16179   0.11476   0.00000  Uiso   1.00
O39    O     0.18090   0.16176   0.11477   0.00000  Uiso   1.00
O40    O     0.31910   0.17157   0.21857   0.00000  Uiso   1.00
N41    N     0.38624   0.10626   0.24334   0.00000  Uiso   1.00
H42    H     0.40051   0.07078   0.23745   0.00000  Uiso   1.00
H43    H     0.35309   0.09435   0.22545   0.00000  Uiso   1.00
N44    N     0.11221   0.21687   0.08156   0.00000  Uiso   1.00
H45    H     0.13869   0.24365   0.10458   0.00000  Uiso   1.00
H46    H     0.12404   0.18836   0.04862   0.00000  Uiso   1.00
N47    N     0.27818   0.32426   0.09333   0.00000  Uiso   1.00
H48    H     0.25637   0.29676   0.06185   0.00000  Uiso   1.00
H49    H     0.30671   0.30833   0.10839   0.00000  Uiso   1.00
N50    N     0.22189   0.00908   0.24004   0.00000  Uiso   1.00
H51    H     0.24370   0.03659   0.27150   0.00000  Uiso   1.00
H52    H     0.19334   0.02500   0.22499   0.00000  Uiso   1.00
N53    N     0.19474   0.13651   0.31682   0.00000  Uiso   1.00
H54    H     0.17774   0.11605   0.01075   0.00000  Uiso   1.00
H55    H     0.19776   0.10785   0.27834   0.00000  Uiso   1.00
N56    N     0.30531   0.19664   0.01646   0.00000  Uiso   1.00
H57    H     0.32246   0.21684   0.32243   0.00000  Uiso   1.00
H58    H     0.30238   0.22547   0.05484   0.00000  Uiso   1.00
C59    C     0.74899   0.06705   0.15174   0.00000  Uiso   1.00
C60    C     0.75102   0.26628   0.18159   0.00000  Uiso   1.00
C61    C     0.52821   0.12960   0.25660   0.00000  Uiso   1.00
C62    C     0.97183   0.20755   0.08062   0.00000  Uiso   1.00
C63    C     0.75545   0.01304   0.14493   0.00000  Uiso   1.00
C64    C     0.74459   0.32030   0.18841   0.00000  Uiso   1.00
C65    C     0.66461   0.16836   0.16710   0.00000  Uiso   1.00
C66    C     0.83524   0.16445   0.16608   0.00000  Uiso   1.00
C67    C     0.90471   0.18362   0.12332   0.00000  Uiso   1.00
C68    C     0.59526   0.15146   0.21217   0.00000  Uiso   1.00
C69    C     0.88328   0.16091   0.16514   0.00000  Uiso   1.00
C70    C     0.61635   0.17109   0.16774   0.00000  Uiso   1.00
C71    C     0.90810   0.13736   0.20669   0.00000  Uiso   1.00
C72    C     0.59111   0.19246   0.12452   0.00000  Uiso   1.00
C73    C     0.95528   0.14312   0.21034   0.00000  Uiso   1.00
C74    C     0.54441   0.19103   0.12457   0.00000  Uiso   1.00
C75    C     0.97648   0.16620   0.16760   0.00000  Uiso   1.00
C76    C     0.52337   0.16932   0.16842   0.00000  Uiso   1.00
C77    C     0.95089   0.18557   0.12346   0.00000  Uiso   1.00
C78    C     0.54908   0.15031   0.21277   0.00000  Uiso   1.00
C79    C     0.98180   0.12598   0.25545   0.00000  Uiso   1.00
C80    C     0.51814   0.21016   0.08100   0.00000  Uiso   1.00
Cu81   Cu    0.75500   0.17246   0.22813   0.00000  Uiso   1.00
Cu82   Cu    0.74499   0.16087   0.10521   0.00000  Uiso   1.00
H83    H     0.88538   0.20085   0.09117   0.00000  Uiso   1.00
H84    H     0.61473   0.13556   0.24542   0.00000  Uiso   1.00
H85    H     0.96701   0.10998   0.29041   0.00000  Uiso   1.00
H86    H     0.53311   0.22688   0.04666   0.00000  Uiso   1.00
H87    H     0.54780   0.11571   0.29153   0.00000  Uiso   1.00
H88    H     0.95234   0.22247   0.04648   0.00000  Uiso   1.00
N89    N     0.73744   0.15214   0.01284   0.00000  Uiso   1.00
N90    N     0.76255   0.18119   0.32049   0.00000  Uiso   1.00
O91    O     0.75325   0.09538   0.20659   0.00000  Uiso   1.00
O92    O     0.74674   0.23796   0.12674   0.00000  Uiso   1.00
O93    O     0.74480   0.08559   0.10279   0.00000  Uiso   1.00
O94    O     0.75520   0.24774   0.23055   0.00000  Uiso   1.00
O95    O     0.68935   0.17155   0.21857   0.00000  Uiso   1.00
O96    O     0.81064   0.16179   0.11476   0.00000  Uiso   1.00
O97    O     0.68090   0.16176   0.11477   0.00000  Uiso   1.00
O98    O     0.81910   0.17157   0.21857   0.00000  Uiso   1.00
N99    N     0.88624   0.10626   0.24334   0.00000  Uiso   1.00
H100   H     0.90051   0.07078   0.23745   0.00000  Uiso   1.00
H101   H     0.85309   0.09435   0.22545   0.00000  Uiso   1.00
N102   N     0.61221   0.21687   0.08156   0.00000  Uiso   1.00
H103   H     0.63869   0.24365   0.10458   0.00000  Uiso   1.00
H104   H     0.62404   0.18836   0.04862   0.00000  Uiso   1.00
N105   N     0.77818   0.32426   0.09333   0.00000  Uiso   1.00
H106   H     0.75637   0.29676   0.06185   0.00000  Uiso   1.00
H107   H     0.80671   0.30833   0.10839   0.00000  Uiso   1.00
N108   N     0.72189   0.00908   0.24004   0.00000  Uiso   1.00
H109   H     0.74370   0.03659   0.27150   0.00000  Uiso   1.00
H110   H     0.69334   0.02500   0.22499   0.00000  Uiso   1.00
N111   N     0.69474   0.13651   0.31682   0.00000  Uiso   1.00
H112   H     0.67774   0.11605   0.01075   0.00000  Uiso   1.00
H113   H     0.69776   0.10785   0.27834   0.00000  Uiso   1.00
N114   N     0.80531   0.19664   0.01646   0.00000  Uiso   1.00
H115   H     0.82246   0.21684   0.32243   0.00000  Uiso   1.00
H116   H     0.80238   0.22547   0.05484   0.00000  Uiso   1.00
C117   C     0.24899   0.40038   0.15174   0.00000  Uiso   1.00
C118   C     0.25102   0.59961   0.18159   0.00000  Uiso   1.00
C119   C     0.02821   0.46293   0.25660   0.00000  Uiso   1.00
C120   C     0.47183   0.54088   0.08062   0.00000  Uiso   1.00
C121   C     0.25545   0.34638   0.14493   0.00000  Uiso   1.00
C122   C     0.24459   0.65363   0.18841   0.00000  Uiso   1.00
C123   C     0.16461   0.50169   0.16710   0.00000  Uiso   1.00
C124   C     0.33524   0.49778   0.16608   0.00000  Uiso   1.00
C125   C     0.40471   0.51695   0.12332   0.00000  Uiso   1.00
C126   C     0.09526   0.48479   0.21217   0.00000  Uiso   1.00
C127   C     0.38328   0.49424   0.16514   0.00000  Uiso   1.00
C128   C     0.11635   0.50442   0.16774   0.00000  Uiso   1.00
C129   C     0.40810   0.47069   0.20669   0.00000  Uiso   1.00
C130   C     0.09111   0.52579   0.12452   0.00000  Uiso   1.00
C131   C     0.45528   0.47645   0.21034   0.00000  Uiso   1.00
C132   C     0.04441   0.52437   0.12457   0.00000  Uiso   1.00
C133   C     0.47648   0.49953   0.16760   0.00000  Uiso   1.00
C134   C     0.02337   0.50265   0.16842   0.00000  Uiso   1.00
C135   C     0.45089   0.51891   0.12346   0.00000  Uiso   1.00
C136   C     0.04908   0.48364   0.21277   0.00000  Uiso   1.00
C137   C     0.48180   0.45931   0.25545   0.00000  Uiso   1.00
C138   C     0.01814   0.54350   0.08100   0.00000  Uiso   1.00
Cu139  Cu    0.25500   0.50579   0.22813   0.00000  Uiso   1.00
Cu140  Cu    0.24499   0.49421   0.10521   0.00000  Uiso   1.00
H141   H     0.38538   0.53418   0.09117   0.00000  Uiso   1.00
H142   H     0.11473   0.46889   0.24542   0.00000  Uiso   1.00
H143   H     0.46701   0.44331   0.29041   0.00000  Uiso   1.00
H144   H     0.03311   0.56021   0.04666   0.00000  Uiso   1.00
H145   H     0.04780   0.44904   0.29153   0.00000  Uiso   1.00
H146   H     0.45234   0.55580   0.04648   0.00000  Uiso   1.00
N147   N     0.23744   0.48547   0.01284   0.00000  Uiso   1.00
N148   N     0.26255   0.51453   0.32049   0.00000  Uiso   1.00
O149   O     0.25325   0.42871   0.20659   0.00000  Uiso   1.00
O150   O     0.24674   0.57129   0.12674   0.00000  Uiso   1.00
O151   O     0.24480   0.41892   0.10279   0.00000  Uiso   1.00
O152   O     0.25520   0.58108   0.23055   0.00000  Uiso   1.00
O153   O     0.18935   0.50488   0.21857   0.00000  Uiso   1.00
O154   O     0.31064   0.49512   0.11476   0.00000  Uiso   1.00
O155   O     0.18090   0.49510   0.11477   0.00000  Uiso   1.00
O156   O     0.31910   0.50490   0.21857   0.00000  Uiso   1.00
N157   N     0.38624   0.43959   0.24334   0.00000  Uiso   1.00
H158   H     0.40051   0.40412   0.23745   0.00000  Uiso   1.00
H159   H     0.35309   0.42768   0.22545   0.00000  Uiso   1.00
N160   N     0.11221   0.55021   0.08156   0.00000  Uiso   1.00
H161   H     0.13869   0.57699   0.10458   0.00000  Uiso   1.00
H162   H     0.12404   0.52170   0.04862   0.00000  Uiso   1.00
N163   N     0.27818   0.65759   0.09333   0.00000  Uiso   1.00
H164   H     0.25637   0.63009   0.06185   0.00000  Uiso   1.00
H165   H     0.30671   0.64166   0.10839   0.00000  Uiso   1.00
N166   N     0.22189   0.34242   0.24004   0.00000  Uiso   1.00
H167   H     0.24370   0.36992   0.27150   0.00000  Uiso   1.00
H168   H     0.19334   0.35833   0.22499   0.00000  Uiso   1.00
N169   N     0.19474   0.46984   0.31682   0.00000  Uiso   1.00
H170   H     0.17774   0.44939   0.01075   0.00000  Uiso   1.00
H171   H     0.19776   0.44118   0.27834   0.00000  Uiso   1.00
N172   N     0.30531   0.52998   0.01646   0.00000  Uiso   1.00
H173   H     0.32246   0.55017   0.32243   0.00000  Uiso   1.00
H174   H     0.30238   0.55880   0.05484   0.00000  Uiso   1.00
C175   C     0.74899   0.40038   0.15174   0.00000  Uiso   1.00
C176   C     0.75102   0.59961   0.18159   0.00000  Uiso   1.00
C177   C     0.52821   0.46293   0.25660   0.00000  Uiso   1.00
C178   C     0.97183   0.54088   0.08062   0.00000  Uiso   1.00
C179   C     0.75545   0.34638   0.14493   0.00000  Uiso   1.00
C180   C     0.74459   0.65363   0.18841   0.00000  Uiso   1.00
C181   C     0.66461   0.50169   0.16710   0.00000  Uiso   1.00
C182   C     0.83524   0.49778   0.16608   0.00000  Uiso   1.00
C183   C     0.90471   0.51695   0.12332   0.00000  Uiso   1.00
C184   C     0.59526   0.48479   0.21217   0.00000  Uiso   1.00
C185   C     0.88328   0.49424   0.16514   0.00000  Uiso   1.00
C186   C     0.61635   0.50442   0.16774   0.00000  Uiso   1.00
C187   C     0.90810   0.47069   0.20669   0.00000  Uiso   1.00
C188   C     0.59111   0.52579   0.12452   0.00000  Uiso   1.00
C189   C     0.95528   0.47645   0.21034   0.00000  Uiso   1.00
C190   C     0.54441   0.52437   0.12457   0.00000  Uiso   1.00
C191   C     0.97648   0.49953   0.16760   0.00000  Uiso   1.00
C192   C     0.52337   0.50265   0.16842   0.00000  Uiso   1.00
C193   C     0.95089   0.51891   0.12346   0.00000  Uiso   1.00
C194   C     0.54908   0.48364   0.21277   0.00000  Uiso   1.00
C195   C     0.98180   0.45931   0.25545   0.00000  Uiso   1.00
C196   C     0.51814   0.54350   0.08100   0.00000  Uiso   1.00
Cu197  Cu    0.75500   0.50579   0.22813   0.00000  Uiso   1.00
Cu198  Cu    0.74499   0.49421   0.10521   0.00000  Uiso   1.00
H199   H     0.88538   0.53418   0.09117   0.00000  Uiso   1.00
H200   H     0.61473   0.46889   0.24542   0.00000  Uiso   1.00
H201   H     0.96701   0.44331   0.29041   0.00000  Uiso   1.00
H202   H     0.53311   0.56021   0.04666   0.00000  Uiso   1.00
H203   H     0.54780   0.44904   0.29153   0.00000  Uiso   1.00
H204   H     0.95234   0.55580   0.04648   0.00000  Uiso   1.00
N205   N     0.73744   0.48547   0.01284   0.00000  Uiso   1.00
N206   N     0.76255   0.51453   0.32049   0.00000  Uiso   1.00
O207   O     0.75325   0.42871   0.20659   0.00000  Uiso   1.00
O208   O     0.74674   0.57129   0.12674   0.00000  Uiso   1.00
O209   O     0.74480   0.41892   0.10279   0.00000  Uiso   1.00
O210   O     0.75520   0.58108   0.23055   0.00000  Uiso   1.00
O211   O     0.68935   0.50488   0.21857   0.00000  Uiso   1.00
O212   O     0.81064   0.49512   0.11476   0.00000  Uiso   1.00
O213   O     0.68090   0.49510   0.11477   0.00000  Uiso   1.00
O214   O     0.81910   0.50490   0.21857   0.00000  Uiso   1.00
N215   N     0.88624   0.43959   0.24334   0.00000  Uiso   1.00
H216   H     0.90051   0.40412   0.23745   0.00000  Uiso   1.00
H217   H     0.85309   0.42768   0.22545   0.00000  Uiso   1.00
N218   N     0.61221   0.55021   0.08156   0.00000  Uiso   1.00
H219   H     0.63869   0.57699   0.10458   0.00000  Uiso   1.00
H220   H     0.62404   0.52170   0.04862   0.00000  Uiso   1.00
N221   N     0.77818   0.65759   0.09333   0.00000  Uiso   1.00
H222   H     0.75637   0.63009   0.06185   0.00000  Uiso   1.00
H223   H     0.80671   0.64166   0.10839   0.00000  Uiso   1.00
N224   N     0.72189   0.34242   0.24004   0.00000  Uiso   1.00
H225   H     0.74370   0.36992   0.27150   0.00000  Uiso   1.00
H226   H     0.69334   0.35833   0.22499   0.00000  Uiso   1.00
N227   N     0.69474   0.46984   0.31682   0.00000  Uiso   1.00
H228   H     0.67774   0.44939   0.01075   0.00000  Uiso   1.00
H229   H     0.69776   0.44118   0.27834   0.00000  Uiso   1.00
N230   N     0.80531   0.52998   0.01646   0.00000  Uiso   1.00
H231   H     0.82246   0.55017   0.32243   0.00000  Uiso   1.00
H232   H     0.80238   0.55880   0.05484   0.00000  Uiso   1.00
C233   C     0.24899   0.73372   0.15174   0.00000  Uiso   1.00
C234   C     0.25102   0.93295   0.18159   0.00000  Uiso   1.00
C235   C     0.02821   0.79626   0.25660   0.00000  Uiso   1.00
C236   C     0.47183   0.87422   0.08062   0.00000  Uiso   1.00
C237   C     0.25545   0.67971   0.14493   0.00000  Uiso   1.00
C238   C     0.24459   0.98696   0.18841   0.00000  Uiso   1.00
C239   C     0.16461   0.83502   0.16710   0.00000  Uiso   1.00
C240   C     0.33524   0.83111   0.16608   0.00000  Uiso   1.00
C241   C     0.40471   0.85029   0.12332   0.00000  Uiso   1.00
C242   C     0.09526   0.81812   0.21217   0.00000  Uiso   1.00
C243   C     0.38328   0.82758   0.16514   0.00000  Uiso   1.00
C244   C     0.11635   0.83775   0.16774   0.00000  Uiso   1.00
C245   C     0.40810   0.80403   0.20669   0.00000  Uiso   1.00
C246   C     0.09111   0.85913   0.12452   0.00000  Uiso   1.00
C247   C     0.45528   0.80979   0.21034   0.00000  Uiso   1.00
C248   C     0.04441   0.85770   0.12457   0.00000  Uiso   1.00
C249   C     0.47648   0.83287   0.16760   0.00000  Uiso   1.00
C250   C     0.02337   0.83598   0.16842   0.00000  Uiso   1.00
C251   C     0.45089   0.85224   0.12346   0.00000  Uiso   1.00
C252   C     0.04908   0.81698   0.21277   0.00000  Uiso   1.00
C253   C     0.48180   0.79264   0.25545   0.00000  Uiso   1.00
C254   C     0.01814   0.87683   0.08100   0.00000  Uiso   1.00
Cu255  Cu    0.25500   0.83913   0.22813   0.00000  Uiso   1.00
Cu256  Cu    0.24499   0.82754   0.10521   0.00000  Uiso   1.00
H257   H     0.38538   0.86751   0.09117   0.00000  Uiso   1.00
H258   H     0.11473   0.80222   0.24542   0.00000  Uiso   1.00
H259   H     0.46701   0.77664   0.29041   0.00000  Uiso   1.00
H260   H     0.03311   0.89355   0.04666   0.00000  Uiso   1.00
H261   H     0.04780   0.78238   0.29153   0.00000  Uiso   1.00
H262   H     0.45234   0.88913   0.04648   0.00000  Uiso   1.00
N263   N     0.23744   0.81881   0.01284   0.00000  Uiso   1.00
N264   N     0.26255   0.84786   0.32049   0.00000  Uiso   1.00
O265   O     0.25325   0.76204   0.20659   0.00000  Uiso   1.00
O266   O     0.24674   0.90462   0.12674   0.00000  Uiso   1.00
O267   O     0.24480   0.75226   0.10279   0.00000  Uiso   1.00
O268   O     0.25520   0.91441   0.23055   0.00000  Uiso   1.00
O269   O     0.18935   0.83821   0.21857   0.00000  Uiso   1.00
O270   O     0.31064   0.82845   0.11476   0.00000  Uiso   1.00
O271   O     0.18090   0.82843   0.11477   0.00000  Uiso   1.00
O272   O     0.31910   0.83824   0.21857   0.00000  Uiso   1.00
N273   N     0.38624   0.77293   0.24334   0.00000  Uiso   1.00
H274   H     0.40051   0.73745   0.23745   0.00000  Uiso   1.00
H275   H     0.35309   0.76101   0.22545   0.00000  Uiso   1.00
N276   N     0.11221   0.88354   0.08156   0.00000  Uiso   1.00
H277   H     0.13869   0.91032   0.10458   0.00000  Uiso   1.00
H278   H     0.12404   0.85503   0.04862   0.00000  Uiso   1.00
N279   N     0.27818   0.99092   0.09333   0.00000  Uiso   1.00
H280   H     0.25637   0.96342   0.06185   0.00000  Uiso   1.00
H281   H     0.30671   0.97500   0.10839   0.00000  Uiso   1.00
N282   N     0.22189   0.67575   0.24004   0.00000  Uiso   1.00
H283   H     0.24370   0.70325   0.27150   0.00000  Uiso   1.00
H284   H     0.19334   0.69167   0.22499   0.00000  Uiso   1.00
N285   N     0.19474   0.80317   0.31682   0.00000  Uiso   1.00
H286   H     0.17774   0.78272   0.01075   0.00000  Uiso   1.00
H287   H     0.19776   0.77451   0.27834   0.00000  Uiso   1.00
N288   N     0.30531   0.86331   0.01646   0.00000  Uiso   1.00
H289   H     0.32246   0.88350   0.32243   0.00000  Uiso   1.00
H290   H     0.30238   0.89213   0.05484   0.00000  Uiso   1.00
C291   C     0.74899   0.73372   0.15174   0.00000  Uiso   1.00
C292   C     0.75102   0.93295   0.18159   0.00000  Uiso   1.00
C293   C     0.52821   0.79626   0.25660   0.00000  Uiso   1.00
C294   C     0.97183   0.87422   0.08062   0.00000  Uiso   1.00
C295   C     0.75545   0.67971   0.14493   0.00000  Uiso   1.00
C296   C     0.74459   0.98696   0.18841   0.00000  Uiso   1.00
C297   C     0.66461   0.83502   0.16710   0.00000  Uiso   1.00
C298   C     0.83524   0.83111   0.16608   0.00000  Uiso   1.00
C299   C     0.90471   0.85029   0.12332   0.00000  Uiso   1.00
C300   C     0.59526   0.81812   0.21217   0.00000  Uiso   1.00
C301   C     0.88328   0.82758   0.16514   0.00000  Uiso   1.00
C302   C     0.61635   0.83775   0.16774   0.00000  Uiso   1.00
C303   C     0.90810   0.80403   0.20669   0.00000  Uiso   1.00
C304   C     0.59111   0.85913   0.12452   0.00000  Uiso   1.00
C305   C     0.95528   0.80979   0.21034   0.00000  Uiso   1.00
C306   C     0.54441   0.85770   0.12457   0.00000  Uiso   1.00
C307   C     0.97648   0.83287   0.16760   0.00000  Uiso   1.00
C308   C     0.52337   0.83598   0.16842   0.00000  Uiso   1.00
C309   C     0.95089   0.85224   0.12346   0.00000  Uiso   1.00
C310   C     0.54908   0.81698   0.21277   0.00000  Uiso   1.00
C311   C     0.98180   0.79264   0.25545   0.00000  Uiso   1.00
C312   C     0.51814   0.87683   0.08100   0.00000  Uiso   1.00
Cu313  Cu    0.75500   0.83913   0.22813   0.00000  Uiso   1.00
Cu314  Cu    0.74499   0.82754   0.10521   0.00000  Uiso   1.00
H315   H     0.88538   0.86751   0.09117   0.00000  Uiso   1.00
H316   H     0.61473   0.80222   0.24542   0.00000  Uiso   1.00
H317   H     0.96701   0.77664   0.29041   0.00000  Uiso   1.00
H318   H     0.53311   0.89355   0.04666   0.00000  Uiso   1.00
H319   H     0.54780   0.78238   0.29153   0.00000  Uiso   1.00
H320   H     0.95234   0.88913   0.04648   0.00000  Uiso   1.00
N321   N     0.73744   0.81881   0.01284   0.00000  Uiso   1.00
N322   N     0.76255   0.84786   0.32049   0.00000  Uiso   1.00
O323   O     0.75325   0.76204   0.20659   0.00000  Uiso   1.00
O324   O     0.74674   0.90462   0.12674   0.00000  Uiso   1.00
O325   O     0.74480   0.75226   0.10279   0.00000  Uiso   1.00
O326   O     0.75520   0.91441   0.23055   0.00000  Uiso   1.00
O327   O     0.68935   0.83821   0.21857   0.00000  Uiso   1.00
O328   O     0.81064   0.82845   0.11476   0.00000  Uiso   1.00
O329   O     0.68090   0.82843   0.11477   0.00000  Uiso   1.00
O330   O     0.81910   0.83824   0.21857   0.00000  Uiso   1.00
N331   N     0.88624   0.77293   0.24334   0.00000  Uiso   1.00
H332   H     0.90051   0.73745   0.23745   0.00000  Uiso   1.00
H333   H     0.85309   0.76101   0.22545   0.00000  Uiso   1.00
N334   N     0.61221   0.88354   0.08156   0.00000  Uiso   1.00
H335   H     0.63869   0.91032   0.10458   0.00000  Uiso   1.00
H336   H     0.62404   0.85503   0.04862   0.00000  Uiso   1.00
N337   N     0.77818   0.99092   0.09333   0.00000  Uiso   1.00
H338   H     0.75637   0.96342   0.06185   0.00000  Uiso   1.00
H339   H     0.80671   0.97500   0.10839   0.00000  Uiso   1.00
N340   N     0.72189   0.67575   0.24004   0.00000  Uiso   1.00
H341   H     0.74370   0.70325   0.27150   0.00000  Uiso   1.00
H342   H     0.69334   0.69167   0.22499   0.00000  Uiso   1.00
N343   N     0.69474   0.80317   0.31682   0.00000  Uiso   1.00
H344   H     0.67774   0.78272   0.01075   0.00000  Uiso   1.00
H345   H     0.69776   0.77451   0.27834   0.00000  Uiso   1.00
N346   N     0.80531   0.86331   0.01646   0.00000  Uiso   1.00
H347   H     0.82246   0.88350   0.32243   0.00000  Uiso   1.00
H348   H     0.80238   0.89213   0.05484   0.00000  Uiso   1.00
C349   C     0.24899   0.06705   0.48508   0.00000  Uiso   1.00
C350   C     0.25102   0.26628   0.51492   0.00000  Uiso   1.00
C351   C     0.02821   0.12960   0.58994   0.00000  Uiso   1.00
C352   C     0.47183   0.20755   0.41395   0.00000  Uiso   1.00
C353   C     0.25545   0.01304   0.47827   0.00000  Uiso   1.00
C354   C     0.24459   0.32030   0.52174   0.00000  Uiso   1.00
C355   C     0.16461   0.16836   0.50043   0.00000  Uiso   1.00
C356   C     0.33524   0.16445   0.49941   0.00000  Uiso   1.00
C357   C     0.40471   0.18362   0.45665   0.00000  Uiso   1.00
C358   C     0.09526   0.15146   0.54550   0.00000  Uiso   1.00
C359   C     0.38328   0.16091   0.49847   0.00000  Uiso   1.00
C360   C     0.11635   0.17109   0.50107   0.00000  Uiso   1.00
C361   C     0.40810   0.13736   0.54003   0.00000  Uiso   1.00
C362   C     0.09111   0.19246   0.45785   0.00000  Uiso   1.00
C363   C     0.45528   0.14312   0.54368   0.00000  Uiso   1.00
C364   C     0.04441   0.19103   0.45791   0.00000  Uiso   1.00
C365   C     0.47648   0.16620   0.50093   0.00000  Uiso   1.00
C366   C     0.02337   0.16932   0.50175   0.00000  Uiso   1.00
C367   C     0.45089   0.18557   0.45679   0.00000  Uiso   1.00
C368   C     0.04908   0.15031   0.54611   0.00000  Uiso   1.00
C369   C     0.48180   0.12598   0.58879   0.00000  Uiso   1.00
C370   C     0.01814   0.21016   0.41434   0.00000  Uiso   1.00
Cu371  Cu    0.25500   0.17246   0.56146   0.00000  Uiso   1.00
Cu372  Cu    0.24499   0.16087   0.43854   0.00000  Uiso   1.00
H373   H     0.38538   0.20085   0.42451   0.00000  Uiso   1.00
H374   H     0.11473   0.13556   0.57876   0.00000  Uiso   1.00
H375   H     0.46701   0.10998   0.62374   0.00000  Uiso   1.00
H376   H     0.03311   0.22688   0.38000   0.00000  Uiso   1.00
H377   H     0.04780   0.11571   0.62487   0.00000  Uiso   1.00
H378   H     0.45234   0.22247   0.37982   0.00000  Uiso   1.00
N379   N     0.23744   0.15214   0.34617   0.00000  Uiso   1.00
N380   N     0.26255   0.18119   0.65383   0.00000  Uiso   1.00
O381   O     0.25325   0.09538   0.53992   0.00000  Uiso   1.00
O382   O     0.24674   0.23796   0.46008   0.00000  Uiso   1.00
O383   O     0.24480   0.08559   0.43612   0.00000  Uiso   1.00
O384   O     0.25520   0.24774   0.56388   0.00000  Uiso   1.00
O385   O     0.18935   0.17155   0.55191   0.00000  Uiso   1.00
O386   O     0.31064   0.16179   0.44809   0.00000  Uiso   1.00
O387   O     0.18090   0.16176   0.44810   0.00000  Uiso   1.00
O388   O     0.31910   0.17157   0.55190   0.00000  Uiso   1.00
N389   N     0.38624   0.10626   0.57667   0.00000  Uiso   1.00
H390   H     0.40051   0.07078   0.57078   0.00000  Uiso   1.00
H391   H     0.35309   0.09435   0.55878   0.00000  Uiso   1.00
N392   N     0.11221   0.21687   0.41489   0.00000  Uiso   1.00
H393   H     0.13869   0.24365   0.43792   0.00000  Uiso   1.00
H394   H     0.12404   0.18836   0.38195   0.00000  Uiso   1.00
N395   N     0.27818   0.32426   0.42666   0.00000  Uiso   1.00
H396   H     0.25637   0.29676   0.39519   0.00000  Uiso   1.00
H397   H     0.30671   0.30833   0.44173   0.00000  Uiso   1.00
N398   N     0.22189   0.00908   0.57337   0.00000  Uiso   1.00
H399   H     0.24370   0.03659   0.60483   0.00000  Uiso   1.00
H400   H     0.19334   0.02500   0.55833   0.00000  Uiso   1.00
N401   N     0.19474   0.13651   0.65016   0.00000  Uiso   1.00
H402   H     0.17774   0.11605   0.34409   0.00000  Uiso   1.00
H403   H     0.19776   0.10785   0.61168   0.00000  Uiso   1.00
N404   N     0.30531   0.19664   0.34979   0.00000  Uiso   1.00
H405   H     0.32246   0.21684   0.65576   0.00000  Uiso   1.00
H406   H     0.30238   0.22547   0.38817   0.00000  Uiso   1.00
C407   C     0.74899   0.06705   0.48508   0.00000  Uiso   1.00
C408   C     0.75102   0.26628   0.51492   0.00000  Uiso   1.00
C409   C     0.52821   0.12960   0.58994   0.00000  Uiso   1.00
C410   C     0.97183   0.20755   0.41395   0.00000  Uiso   1.00
C411   C     0.75545   0.01304   0.47827   0.00000  Uiso   1.00
C412   C     0.74459   0.32030   0.52174   0.00000  Uiso   1.00
C413   C     0.66461   0.16836   0.50043   0.00000  Uiso   1.00
C414   C     0.83524   0.16445   0.49941   0.00000  Uiso   1.00
C415   C     0.90471   0.18362   0.45665   0.00000  Uiso   1.00
C416   C     0.59526   0.15146   0.54550   0.00000  Uiso   1.00
C417   C     0.88328   0.16091   0.49847   0.00000  Uiso   1.00
C418   C     0.61635   0.17109   0.50107   0.00000  Uiso   1.00
C419   C     0.90810   0.13736   0.54003   0.00000  Uiso   1.00
C420   C     0.59111   0.19246   0.45785   0.00000  Uiso   1.00
C421   C     0.95528   0.14312   0.54368   0.00000  Uiso   1.00
C422   C     0.54441   0.19103   0.45791   0.00000  Uiso   1.00
C423   C     0.97648   0.16620   0.50093   0.00000  Uiso   1.00
C424   C     0.52337   0.16932   0.50175   0.00000  Uiso   1.00
C425   C     0.95089   0.18557   0.45679   0.00000  Uiso   1.00
C426   C     0.54908   0.15031   0.54611   0.00000  Uiso   1.00
C427   C     0.98180   0.12598   0.58879   0.00000  Uiso   1.00
C428   C     0.51814   0.21016   0.41434   0.00000  Uiso   1.00
Cu429  Cu    0.75500   0.17246   0.56146   0.00000  Uiso   1.00
Cu430  Cu    0.74499   0.16087   0.43854   0.00000  Uiso   1.00
H431   H     0.88538   0.20085   0.42451   0.00000  Uiso   1.00
H432   H     0.61473   0.13556   0.57876   0.00000  Uiso   1.00
H433   H     0.96701   0.10998   0.62374   0.00000  Uiso   1.00
H434   H     0.53311   0.22688   0.38000   0.00000  Uiso   1.00
H435   H     0.54780   0.11571   0.62487   0.00000  Uiso   1.00
H436   H     0.95234   0.22247   0.37982   0.00000  Uiso   1.00
N437   N     0.73744   0.15214   0.34617   0.00000  Uiso   1.00
N438   N     0.76255   0.18119   0.65383   0.00000  Uiso   1.00
O439   O     0.75325   0.09538   0.53992   0.00000  Uiso   1.00
O440   O     0.74674   0.23796   0.46008   0.00000  Uiso   1.00
O441   O     0.74480   0.08559   0.43612   0.00000  Uiso   1.00
O442   O     0.75520   0.24774   0.56388   0.00000  Uiso   1.00
O443   O     0.68935   0.17155   0.55191   0.00000  Uiso   1.00
O444   O     0.81064   0.16179   0.44809   0.00000  Uiso   1.00
O445   O     0.68090   0.16176   0.44810   0.00000  Uiso   1.00
O446   O     0.81910   0.17157   0.55190   0.00000  Uiso   1.00
N447   N     0.88624   0.10626   0.57667   0.00000  Uiso   1.00
H448   H     0.90051   0.07078   0.57078   0.00000  Uiso   1.00
H449   H     0.85309   0.09435   0.55878   0.00000  Uiso   1.00
N450   N     0.61221   0.21687   0.41489   0.00000  Uiso   1.00
H451   H     0.63869   0.24365   0.43792   0.00000  Uiso   1.00
H452   H     0.62404   0.18836   0.38195   0.00000  Uiso   1.00
N453   N     0.77818   0.32426   0.42666   0.00000  Uiso   1.00
H454   H     0.75637   0.29676   0.39519   0.00000  Uiso   1.00
H455   H     0.80671   0.30833   0.44173   0.00000  Uiso   1.00
N456   N     0.72189   0.00908   0.57337   0.00000  Uiso   1.00
H457   H     0.74370   0.03659   0.60483   0.00000  Uiso   1.00
H458   H     0.69334   0.02500   0.55833   0.00000  Uiso   1.00
N459   N     0.69474   0.13651   0.65016   0.00000  Uiso   1.00
H460   H     0.67774   0.11605   0.34409   0.00000  Uiso   1.00
H461   H     0.69776   0.10785   0.61168   0.00000  Uiso   1.00
N462   N     0.80531   0.19664   0.34979   0.00000  Uiso   1.00
H463   H     0.82246   0.21684   0.65576   0.00000  Uiso   1.00
H464   H     0.80238   0.22547   0.38817   0.00000  Uiso   1.00
C465   C     0.24899   0.40038   0.48508   0.00000  Uiso   1.00
C466   C     0.25102   0.59961   0.51492   0.00000  Uiso   1.00
C467   C     0.02821   0.46293   0.58994   0.00000  Uiso   1.00
C468   C     0.47183   0.54088   0.41395   0.00000  Uiso   1.00
C469   C     0.25545   0.34638   0.47827   0.00000  Uiso   1.00
C470   C     0.24459   0.65363   0.52174   0.00000  Uiso   1.00
C471   C     0.16461   0.50169   0.50043   0.00000  Uiso   1.00
C472   C     0.33524   0.49778   0.49941   0.00000  Uiso   1.00
C473   C     0.40471   0.51695   0.45665   0.00000  Uiso   1.00
C474   C     0.09526   0.48479   0.54550   0.00000  Uiso   1.00
C475   C     0.38328   0.49424   0.49847   0.00000  Uiso   1.00
C476   C     0.11635   0.50442   0.50107   0.00000  Uiso   1.00
C477   C     0.40810   0.47069   0.54003   0.00000  Uiso   1.00
C478   C     0.09111   0.52579   0.45785   0.00000  Uiso   1.00
C479   C     0.45528   0.47645   0.54368   0.00000  Uiso   1.00
C480   C     0.04441   0.52437   0.45791   0.00000  Uiso   1.00
C481   C     0.47648   0.49953   0.50093   0.00000  Uiso   1.00
C482   C     0.02337   0.50265   0.50175   0.00000  Uiso   1.00
C483   C     0.45089   0.51891   0.45679   0.00000  Uiso   1.00
C484   C     0.04908   0.48364   0.54611   0.00000  Uiso   1.00
C485   C     0.48180   0.45931   0.58879   0.00000  Uiso   1.00
C486   C     0.01814   0.54350   0.41434   0.00000  Uiso   1.00
Cu487  Cu    0.25500   0.50579   0.56146   0.00000  Uiso   1.00
Cu488  Cu    0.24499   0.49421   0.43854   0.00000  Uiso   1.00
H489   H     0.38538   0.53418   0.42451   0.00000  Uiso   1.00
H490   H     0.11473   0.46889   0.57876   0.00000  Uiso   1.00
H491   H     0.46701   0.44331   0.62374   0.00000  Uiso   1.00
H492   H     0.03311   0.56021   0.38000   0.00000  Uiso   1.00
H493   H     0.04780   0.44904   0.62487   0.00000  Uiso   1.00
H494   H     0.45234   0.55580   0.37982   0.00000  Uiso   1.00
N495   N     0.23744   0.48547   0.34617   0.00000  Uiso   1.00
N496   N     0.26255   0.51453   0.65383   0.00000  Uiso   1.00
O497   O     0.25325   0.42871   0.53992   0.00000  Uiso   1.00
O498   O     0.24674   0.57129   0.46008   0.00000  Uiso   1.00
O499   O     0.24480   0.41892   0.43612   0.00000  Uiso   1.00
O500   O     0.25520   0.58108   0.56388   0.00000  Uiso   1.00
O501   O     0.18935   0.50488   0.55191   0.00000  Uiso   1.00
O502   O     0.31064   0.49512   0.44809   0.00000  Uiso   1.00
O503   O     0.18090   0.49510   0.44810   0.00000  Uiso   1.00
O504   O     0.31910   0.50490   0.55190   0.00000  Uiso   1.00
N505   N     0.38624   0.43959   0.57667   0.00000  Uiso   1.00
H506   H     0.40051   0.40412   0.57078   0.00000  Uiso   1.00
H507   H     0.35309   0.42768   0.55878   0.00000  Uiso   1.00
N508   N     0.11221   0.55021   0.41489   0.00000  Uiso   1.00
H509   H     0.13869   0.57699   0.43792   0.00000  Uiso   1.00
H510   H     0.12404   0.52170   0.38195   0.00000  Uiso   1.00
N511   N     0.27818   0.65759   0.42666   0.00000  Uiso   1.00
H512   H     0.25637   0.63009   0.39519   0.00000  Uiso   1.00
H513   H     0.30671   0.64166   0.44173   0.00000  Uiso   1.00
N514   N     0.22189   0.34242   0.57337   0.00000  Uiso   1.00
H515   H     0.24370   0.36992   0.60483   0.00000  Uiso   1.00
H516   H     0.19334   0.35833   0.55833   0.00000  Uiso   1.00
N517   N     0.19474   0.46984   0.65016   0.00000  Uiso   1.00
H518   H     0.17774   0.44939   0.34409   0.00000  Uiso   1.00
H519   H     0.19776   0.44118   0.61168   0.00000  Uiso   1.00
N520   N     0.30531   0.52998   0.34979   0.00000  Uiso   1.00
H521   H     0.32246   0.55017   0.65576   0.00000  Uiso   1.00
H522   H     0.30238   0.55880   0.38817   0.00000  Uiso   1.00
C523   C     0.74899   0.40038   0.48508   0.00000  Uiso   1.00
C524   C     0.75102   0.59961   0.51492   0.00000  Uiso   1.00
C525   C     0.52821   0.46293   0.58994   0.00000  Uiso   1.00
C526   C     0.97183   0.54088   0.41395   0.00000  Uiso   1.00
C527   C     0.75545   0.34638   0.47827   0.00000  Uiso   1.00
C528   C     0.74459   0.65363   0.52174   0.00000  Uiso   1.00
C529   C     0.66461   0.50169   0.50043   0.00000  Uiso   1.00
C530   C     0.83524   0.49778   0.49941   0.00000  Uiso   1.00
C531   C     0.90471   0.51695   0.45665   0.00000  Uiso   1.00
C532   C     0.59526   0.48479   0.54550   0.00000  Uiso   1.00
C533   C     0.88328   0.49424   0.49847   0.00000  Uiso   1.00
C534   C     0.61635   0.50442   0.50107   0.00000  Uiso   1.00
C535   C     0.90810   0.47069   0.54003   0.00000  Uiso   1.00
C536   C     0.59111   0.52579   0.45785   0.00000  Uiso   1.00
C537   C     0.95528   0.47645   0.54368   0.00000  Uiso   1.00
C538   C     0.54441   0.52437   0.45791   0.00000  Uiso   1.00
C539   C     0.97648   0.49953   0.50093   0.00000  Uiso   1.00
C540   C     0.52337   0.50265   0.50175   0.00000  Uiso   1.00
C541   C     0.95089   0.51891   0.45679   0.00000  Uiso   1.00
C542   C     0.54908   0.48364   0.54611   0.00000  Uiso   1.00
C543   C     0.98180   0.45931   0.58879   0.00000  Uiso   1.00
C544   C     0.51814   0.54350   0.41434   0.00000  Uiso   1.00
Cu545  Cu    0.75500   0.50579   0.56146   0.00000  Uiso   1.00
Cu546  Cu    0.74499   0.49421   0.43854   0.00000  Uiso   1.00
H547   H     0.88538   0.53418   0.42451   0.00000  Uiso   1.00
H548   H     0.61473   0.46889   0.57876   0.00000  Uiso   1.00
H549   H     0.96701   0.44331   0.62374   0.00000  Uiso   1.00
H550   H     0.53311   0.56021   0.38000   0.00000  Uiso   1.00
H551   H     0.54780   0.44904   0.62487   0.00000  Uiso   1.00
H552   H     0.95234   0.55580   0.37982   0.00000  Uiso   1.00
N553   N     0.73744   0.48547   0.34617   0.00000  Uiso   1.00
N554   N     0.76255   0.51453   0.65383   0.00000  Uiso   1.00
O555   O     0.75325   0.42871   0.53992   0.00000  Uiso   1.00
O556   O     0.74674   0.57129   0.46008   0.00000  Uiso   1.00
O557   O     0.74480   0.41892   0.43612   0.00000  Uiso   1.00
O558   O     0.75520   0.58108   0.56388   0.00000  Uiso   1.00
O559   O     0.68935   0.50488   0.55191   0.00000  Uiso   1.00
O560   O     0.81064   0.49512   0.44809   0.00000  Uiso   1.00
O561   O     0.68090   0.49510   0.44810   0.00000  Uiso   1.00
O562   O     0.81910   0.50490   0.55190   0.00000  Uiso   1.00
N563   N     0.88624   0.43959   0.57667   0.00000  Uiso   1.00
H564   H     0.90051   0.40412   0.57078   0.00000  Uiso   1.00
H565   H     0.85309   0.42768   0.55878   0.00000  Uiso   1.00
N566   N     0.61221   0.55021   0.41489   0.00000  Uiso   1.00
H567   H     0.63869   0.57699   0.43792   0.00000  Uiso   1.00
H568   H     0.62404   0.52170   0.38195   0.00000  Uiso   1.00
N569   N     0.77818   0.65759   0.42666   0.00000  Uiso   1.00
H570   H     0.75637   0.63009   0.39519   0.00000  Uiso   1.00
H571   H     0.80671   0.64166   0.44173   0.00000  Uiso   1.00
N572   N     0.72189   0.34242   0.57337   0.00000  Uiso   1.00
H573   H     0.74370   0.36992   0.60483   0.00000  Uiso   1.00
H574   H     0.69334   0.35833   0.55833   0.00000  Uiso   1.00
N575   N     0.69474   0.46984   0.65016   0.00000  Uiso   1.00
H576   H     0.67774   0.44939   0.34409   0.00000  Uiso   1.00
H577   H     0.69776   0.44118   0.61168   0.00000  Uiso   1.00
N578   N     0.80531   0.52998   0.34979   0.00000  Uiso   1.00
H579   H     0.82246   0.55017   0.65576   0.00000  Uiso   1.00
H580   H     0.80238   0.55880   0.38817   0.00000  Uiso   1.00
C581   C     0.24899   0.73372   0.48508   0.00000  Uiso   1.00
C582   C     0.25102   0.93295   0.51492   0.00000  Uiso   1.00
C583   C     0.02821   0.79626   0.58994   0.00000  Uiso   1.00
C584   C     0.47183   0.87422   0.41395   0.00000  Uiso   1.00
C585   C     0.25545   0.67971   0.47827   0.00000  Uiso   1.00
C586   C     0.24459   0.98696   0.52174   0.00000  Uiso   1.00
C587   C     0.16461   0.83502   0.50043   0.00000  Uiso   1.00
C588   C     0.33524   0.83111   0.49941   0.00000  Uiso   1.00
C589   C     0.40471   0.85029   0.45665   0.00000  Uiso   1.00
C590   C     0.09526   0.81812   0.54550   0.00000  Uiso   1.00
C591   C     0.38328   0.82758   0.49847   0.00000  Uiso   1.00
C592   C     0.11635   0.83775   0.50107   0.00000  Uiso   1.00
C593   C     0.40810   0.80403   0.54003   0.00000  Uiso   1.00
C594   C     0.09111   0.85913   0.45785   0.00000  Uiso   1.00
C595   C     0.45528   0.80979   0.54368   0.00000  Uiso   1.00
C596   C     0.04441   0.85770   0.45791   0.00000  Uiso   1.00
C597   C     0.47648   0.83287   0.50093   0.00000  Uiso   1.00
C598   C     0.02337   0.83598   0.50175   0.00000  Uiso   1.00
C599   C     0.45089   0.85224   0.45679   0.00000  Uiso   1.00
C600   C     0.04908   0.81698   0.54611   0.00000  Uiso   1.00
C601   C     0.48180   0.79264   0.58879   0.00000  Uiso   1.00
C602   C     0.01814   0.87683   0.41434   0.00000  Uiso   1.00
Cu603  Cu    0.25500   0.83913   0.56146   0.00000  Uiso   1.00
Cu604  Cu    0.24499   0.82754   0.43854   0.00000  Uiso   1.00
H605   H     0.38538   0.86751   0.42451   0.00000  Uiso   1.00
H606   H     0.11473   0.80222   0.57876   0.00000  Uiso   1.00
H607   H     0.46701   0.77664   0.62374   0.00000  Uiso   1.00
H608   H     0.03311   0.89355   0.38000   0.00000  Uiso   1.00
H609   H     0.04780   0.78238   0.62487   0.00000  Uiso   1.00
H610   H     0.45234   0.88913   0.37982   0.00000  Uiso   1.00
N611   N     0.23744   0.81881   0.34617   0.00000  Uiso   1.00
N612   N     0.26255   0.84786   0.65383   0.00000  Uiso   1.00
O613   O     0.25325   0.76204   0.53992   0.00000  Uiso   1.00
O614   O     0.24674   0.90462   0.46008   0.00000  Uiso   1.00
O615   O     0.24480   0.75226   0.43612   0.00000  Uiso   1.00
O616   O     0.25520   0.91441   0.56388   0.00000  Uiso   1.00
O617   O     0.18935   0.83821   0.55191   0.00000  Uiso   1.00
O618   O     0.31064   0.82845   0.44809   0.00000  Uiso   1.00
O619   O     0.18090   0.82843   0.44810   0.00000  Uiso   1.00
O620   O     0.31910   0.83824   0.55190   0.00000  Uiso   1.00
N621   N     0.38624   0.77293   0.57667   0.00000  Uiso   1.00
H622   H     0.40051   0.73745   0.57078   0.00000  Uiso   1.00
H623   H     0.35309   0.76101   0.55878   0.00000  Uiso   1.00
N624   N     0.11221   0.88354   0.41489   0.00000  Uiso   1.00
H625   H     0.13869   0.91032   0.43792   0.00000  Uiso   1.00
H626   H     0.12404   0.85503   0.38195   0.00000  Uiso   1.00
N627   N     0.27818   0.99092   0.42666   0.00000  Uiso   1.00
H628   H     0.25637   0.96342   0.39519   0.00000  Uiso   1.00
H629   H     0.30671   0.97500   0.44173   0.00000  Uiso   1.00
N630   N     0.22189   0.67575   0.57337   0.00000  Uiso   1.00
H631   H     0.24370   0.70325   0.60483   0.00000  Uiso   1.00
H632   H     0.19334   0.69167   0.55833   0.00000  Uiso   1.00
N633   N     0.19474   0.80317   0.65016   0.00000  Uiso   1.00
H634   H     0.17774   0.78272   0.34409   0.00000  Uiso   1.00
H635   H     0.19776   0.77451   0.61168   0.00000  Uiso   1.00
N636   N     0.30531   0.86331   0.34979   0.00000  Uiso   1.00
H637   H     0.32246   0.88350   0.65576   0.00000  Uiso   1.00
H638   H     0.30238   0.89213   0.38817   0.00000  Uiso   1.00
C639   C     0.74899   0.73372   0.48508   0.00000  Uiso   1.00
C640   C     0.75102   0.93295   0.51492   0.00000  Uiso   1.00
C641   C     0.52821   0.79626   0.58994   0.00000  Uiso   1.00
C642   C     0.97183   0.87422   0.41395   0.00000  Uiso   1.00
C643   C     0.75545   0.67971   0.47827   0.00000  Uiso   1.00
C644   C     0.74459   0.98696   0.52174   0.00000  Uiso   1.00
C645   C     0.66461   0.83502   0.50043   0.00000  Uiso   1.00
C646   C     0.83524   0.83111   0.49941   0.00000  Uiso   1.00
C647   C     0.90471   0.85029   0.45665   0.00000  Uiso   1.00
C648   C     0.59526   0.81812   0.54550   0.00000  Uiso   1.00
C649   C     0.88328   0.82758   0.49847   0.00000  Uiso   1.00
C650   C     0.61635   0.83775   0.50107   0.00000  Uiso   1.00
C651   C     0.90810   0.80403   0.54003   0.00000  Uiso   1.00
C652   C     0.59111   0.85913   0.45785   0.00000  Uiso   1.00
C653   C     0.95528   0.80979   0.54368   0.00000  Uiso   1.00
C654   C     0.54441   0.85770   0.45791   0.00000  Uiso   1.00
C655   C     0.97648   0.83287   0.50093   0.00000  Uiso   1.00
C656   C     0.52337   0.83598   0.50175   0.00000  Uiso   1.00
C657   C     0.95089   0.85224   0.45679   0.00000  Uiso   1.00
C658   C     0.54908   0.81698   0.54611   0.00000  Uiso   1.00
C659   C     0.98180   0.79264   0.58879   0.00000  Uiso   1.00
C660   C     0.51814   0.87683   0.41434   0.00000  Uiso   1.00
Cu661  Cu    0.75500   0.83913   0.56146   0.00000  Uiso   1.00
Cu662  Cu    0.74499   0.82754   0.43854   0.00000  Uiso   1.00
H663   H     0.88538   0.86751   0.42451   0.00000  Uiso   1.00
H664   H     0.61473   0.80222   0.57876   0.00000  Uiso   1.00
H665   H     0.96701   0.77664   0.62374   0.00000  Uiso   1.00
H666   H     0.53311   0.89355   0.38000   0.00000  Uiso   1.00
H667   H     0.54780   0.78238   0.62487   0.00000  Uiso   1.00
H668   H     0.95234   0.88913   0.37982   0.00000  Uiso   1.00
N669   N     0.73744   0.81881   0.34617   0.00000  Uiso   1.00
N670   N     0.76255   0.84786   0.65383   0.00000  Uiso   1.00
O671   O     0.75325   0.76204   0.53992   0.00000  Uiso   1.00
O672   O     0.74674   0.90462   0.46008   0.00000  Uiso   1.00
O673   O     0.74480   0.75226   0.43612   0.00000  Uiso   1.00
O674   O     0.75520   0.91441   0.56388   0.00000  Uiso   1.00
O675   O     0.68935   0.83821   0.55191   0.00000  Uiso   1.00
O676   O     0.81064   0.82845   0.44809   0.00000  Uiso   1.00
O677   O     0.68090   0.82843   0.44810   0.00000  Uiso   1.00
O678   O     0.81910   0.83824   0.55190   0.00000  Uiso   1.00
N679   N     0.88624   0.77293   0.57667   0.00000  Uiso   1.00
H680   H     0.90051   0.73745   0.57078   0.00000  Uiso   1.00
H681   H     0.85309   0.76101   0.55878   0.00000  Uiso   1.00
N682   N     0.61221   0.88354   0.41489   0.00000  Uiso   1.00
H683   H     0.63869   0.91032   0.43792   0.00000  Uiso   1.00
H684   H     0.62404   0.85503   0.38195   0.00000  Uiso   1.00
N685   N     0.77818   0.99092   0.42666   0.00000  Uiso   1.00
H686   H     0.75637   0.96342   0.39519   0.00000  Uiso   1.00
H687   H     0.80671   0.97500   0.44173   0.00000  Uiso   1.00
N688   N     0.72189   0.67575   0.57337   0.00000  Uiso   1.00
H689   H     0.74370   0.70325   0.60483   0.00000  Uiso   1.00
H690   H     0.69334   0.69167   0.55833   0.00000  Uiso   1.00
N691   N     0.69474   0.80317   0.65016   0.00000  Uiso   1.00
H692   H     0.67774   0.78272   0.34409   0.00000  Uiso   1.00
H693   H     0.69776   0.77451   0.61168   0.00000  Uiso   1.00
N694   N     0.80531   0.86331   0.34979   0.00000  Uiso   1.00
H695   H     0.82246   0.88350   0.65576   0.00000  Uiso   1.00
H696   H     0.80238   0.89213   0.38817   0.00000  Uiso   1.00
C697   C     0.24899   0.06705   0.81841   0.00000  Uiso   1.00
C698   C     0.25102   0.26628   0.84826   0.00000  Uiso   1.00
C699   C     0.02821   0.12960   0.92327   0.00000  Uiso   1.00
C700   C     0.47183   0.20755   0.74728   0.00000  Uiso   1.00
C701   C     0.25545   0.01304   0.81160   0.00000  Uiso   1.00
C702   C     0.24459   0.32030   0.85508   0.00000  Uiso   1.00
C703   C     0.16461   0.16836   0.83376   0.00000  Uiso   1.00
C704   C     0.33524   0.16445   0.83275   0.00000  Uiso   1.00
C705   C     0.40471   0.18362   0.78999   0.00000  Uiso   1.00
C706   C     0.09526   0.15146   0.87883   0.00000  Uiso   1.00
C707   C     0.38328   0.16091   0.83180   0.00000  Uiso   1.00
C708   C     0.11635   0.17109   0.83441   0.00000  Uiso   1.00
C709   C     0.40810   0.13736   0.87336   0.00000  Uiso   1.00
C710   C     0.09111   0.19246   0.79118   0.00000  Uiso   1.00
C711   C     0.45528   0.14312   0.87701   0.00000  Uiso   1.00
C712   C     0.04441   0.19103   0.79124   0.00000  Uiso   1.00
C713   C     0.47648   0.16620   0.83427   0.00000  Uiso   1.00
C714   C     0.02337   0.16932   0.83508   0.00000  Uiso   1.00
C715   C     0.45089   0.18557   0.79012   0.00000  Uiso   1.00
C716   C     0.04908   0.15031   0.87944   0.00000  Uiso   1.00
C717   C     0.48180   0.12598   0.92212   0.00000  Uiso   1.00
C718   C     0.01814   0.21016   0.74767   0.00000  Uiso   1.00
Cu719  Cu    0.25500   0.17246   0.89479   0.00000  Uiso   1.00
Cu720  Cu    0.24499   0.16087   0.77187   0.00000  Uiso   1.00
H721   H     0.38538   0.20085   0.75784   0.00000  Uiso   1.00
H722   H     0.11473   0.13556   0.91209   0.00000  Uiso   1.00
H723   H     0.46701   0.10998   0.95708   0.00000  Uiso   1.00
H724   H     0.03311   0.22688   0.71333   0.00000  Uiso   1.00
H725   H     0.04780   0.11571   0.95820   0.00000  Uiso   1.00
H726   H     0.45234   0.22247   0.71315   0.00000  Uiso   1.00
N727   N     0.23744   0.15214   0.67951   0.00000  Uiso   1.00
N728   N     0.26255   0.18119   0.98716   0.00000  Uiso   1.00
O729   O     0.25325   0.09538   0.87326   0.00000  Uiso   1.00
O730   O     0.24674   0.23796   0.79341   0.00000  Uiso   1.00
O731   O     0.24480   0.08559   0.76945   0.00000  Uiso   1.00
O732   O     0.25520   0.24774   0.89721   0.00000  Uiso   1.00
O733   O     0.18935   0.17155   0.88524   0.00000  Uiso   1.00
O734   O     0.31064   0.16179   0.78143   0.00000  Uiso   1.00
O735   O     0.18090   0.16176   0.78143   0.00000  Uiso   1.00
O736   O     0.31910   0.17157   0.88523   0.00000  Uiso   1.00
N737   N     0.38624   0.10626   0.91000   0.00000  Uiso   1.00
H738   H     0.40051   0.07078   0.90412   0.00000  Uiso   1.00
H739   H     0.35309   0.09435   0.89212   0.00000  Uiso   1.00
N740   N     0.11221   0.21687   0.74823   0.00000  Uiso   1.00
H741   H     0.13869   0.24365   0.77125   0.00000  Uiso   1.00
H742   H     0.12404   0.18836   0.71529   0.00000  Uiso   1.00
N743   N     0.27818   0.32426   0.76000   0.00000  Uiso   1.00
H744   H     0.25637   0.29676   0.72852   0.00000  Uiso   1.00
H745   H     0.30671   0.30833   0.77506   0.00000  Uiso   1.00
N746   N     0.22189   0.00908   0.90670   0.00000  Uiso   1.00
H747   H     0.24370   0.03659   0.93817   0.00000  Uiso   1.00
H748   H     0.19334   0.02500   0.89166   0.00000  Uiso   1.00
N749   N     0.19474   0.13651   0.98349   0.00000  Uiso   1.00
H750   H     0.17774   0.11605   0.67742   0.00000  Uiso   1.00
H751   H     0.19776   0.10785   0.94501   0.00000  Uiso   1.00
N752   N     0.30531   0.19664   0.68313   0.00000  Uiso   1.00
H753   H     0.32246   0.21684   0.98910   0.00000  Uiso   1.00
H754   H     0.30238   0.22547   0.72150   0.00000  Uiso   1.00
C755   C     0.74899   0.06705   0.81841   0.00000  Uiso   1.00
C756   C     0.75102   0.26628   0.84826   0.00000  Uiso   1.00
C757   C     0.52821   0.12960   0.92327   0.00000  Uiso   1.00
C758   C     0.97183   0.20755   0.74728   0.00000  Uiso   1.00
C759   C     0.75545   0.01304   0.81160   0.00000  Uiso   1.00
C760   C     0.74459   0.32030   0.85508   0.00000  Uiso   1.00
C761   C     0.66461   0.16836   0.83376   0.00000  Uiso   1.00
C762   C     0.83524   0.16445   0.83275   0.00000  Uiso   1.00
C763   C     0.90471   0.18362   0.78999   0.00000  Uiso   1.00
C764   C     0.59526   0.15146   0.87883   0.00000  Uiso   1.00
C765   C     0.88328   0.16091   0.83180   0.00000  Uiso   1.00
C766   C     0.61635   0.17109   0.83441   0.00000  Uiso   1.00
C767   C     0.90810   0.13736   0.87336   0.00000  Uiso   1.00
C768   C     0.59111   0.19246   0.79118   0.00000  Uiso   1.00
C769   C     0.95528   0.14312   0.87701   0.00000  Uiso   1.00
C770   C     0.54441   0.19103   0.79124   0.00000  Uiso   1.00
C771   C     0.97648   0.16620   0.83427   0.00000  Uiso   1.00
C772   C     0.52337   0.16932   0.83508   0.00000  Uiso   1.00
C773   C     0.95089   0.18557   0.79012   0.00000  Uiso   1.00
C774   C     0.54908   0.15031   0.87944   0.00000  Uiso   1.00
C775   C     0.98180   0.12598   0.92212   0.00000  Uiso   1.00
C776   C     0.51814   0.21016   0.74767   0.00000  Uiso   1.00
Cu777  Cu    0.75500   0.17246   0.89479   0.00000  Uiso   1.00
Cu778  Cu    0.74499   0.16087   0.77187   0.00000  Uiso   1.00
H779   H     0.88538   0.20085   0.75784   0.00000  Uiso   1.00
H780   H     0.61473   0.13556   0.91209   0.00000  Uiso   1.00
H781   H     0.96701   0.10998   0.95708   0.00000  Uiso   1.00
H782   H     0.53311   0.22688   0.71333   0.00000  Uiso   1.00
H783   H     0.54780   0.11571   0.95820   0.00000  Uiso   1.00
H784   H     0.95234   0.22247   0.71315   0.00000  Uiso   1.00
N785   N     0.73744   0.15214   0.67951   0.00000  Uiso   1.00
N786   N     0.76255   0.18119   0.98716   0.00000  Uiso   1.00
O787   O     0.75325   0.09538   0.87326   0.00000  Uiso   1.00
O788   O     0.74674   0.23796   0.79341   0.00000  Uiso   1.00
O789   O     0.74480   0.08559   0.76945   0.00000  Uiso   1.00
O790   O     0.75520   0.24774   0.89721   0.00000  Uiso   1.00
O791   O     0.68935   0.17155   0.88524   0.00000  Uiso   1.00
O792   O     0.81064   0.16179   0.78143   0.00000  Uiso   1.00
O793   O     0.68090   0.16176   0.78143   0.00000  Uiso   1.00
O794   O     0.81910   0.17157   0.88523   0.00000  Uiso   1.00
N795   N     0.88624   0.10626   0.91000   0.00000  Uiso   1.00
H796   H     0.90051   0.07078   0.90412   0.00000  Uiso   1.00
H797   H     0.85309   0.09435   0.89212   0.00000  Uiso   1.00
N798   N     0.61221   0.21687   0.74823   0.00000  Uiso   1.00
H799   H     0.63869   0.24365   0.77125   0.00000  Uiso   1.00
H800   H     0.62404   0.18836   0.71529   0.00000  Uiso   1.00
N801   N     0.77818   0.32426   0.76000   0.00000  Uiso   1.00
H802   H     0.75637   0.29676   0.72852   0.00000  Uiso   1.00
H803   H     0.80671   0.30833   0.77506   0.00000  Uiso   1.00
N804   N     0.72189   0.00908   0.90670   0.00000  Uiso   1.00
H805   H     0.74370   0.03659   0.93817   0.00000  Uiso   1.00
H806   H     0.69334   0.02500   0.89166   0.00000  Uiso   1.00
N807   N     0.69474   0.13651   0.98349   0.00000  Uiso   1.00
H808   H     0.67774   0.11605   0.67742   0.00000  Uiso   1.00
H809   H     0.69776   0.10785   0.94501   0.00000  Uiso   1.00
N810   N     0.80531   0.19664   0.68313   0.00000  Uiso   1.00
H811   H     0.82246   0.21684   0.98910   0.00000  Uiso   1.00
H812   H     0.80238   0.22547   0.72150   0.00000  Uiso   1.00
C813   C     0.24899   0.40038   0.81841   0.00000  Uiso   1.00
C814   C     0.25102   0.59961   0.84826   0.00000  Uiso   1.00
C815   C     0.02821   0.46293   0.92327   0.00000  Uiso   1.00
C816   C     0.47183   0.54088   0.74728   0.00000  Uiso   1.00
C817   C     0.25545   0.34638   0.81160   0.00000  Uiso   1.00
C818   C     0.24459   0.65363   0.85508   0.00000  Uiso   1.00
C819   C     0.16461   0.50169   0.83376   0.00000  Uiso   1.00
C820   C     0.33524   0.49778   0.83275   0.00000  Uiso   1.00
C821   C     0.40471   0.51695   0.78999   0.00000  Uiso   1.00
C822   C     0.09526   0.48479   0.87883   0.00000  Uiso   1.00
C823   C     0.38328   0.49424   0.83180   0.00000  Uiso   1.00
C824   C     0.11635   0.50442   0.83441   0.00000  Uiso   1.00
C825   C     0.40810   0.47069   0.87336   0.00000  Uiso   1.00
C826   C     0.09111   0.52579   0.79118   0.00000  Uiso   1.00
C827   C     0.45528   0.47645   0.87701   0.00000  Uiso   1.00
C828   C     0.04441   0.52437   0.79124   0.00000  Uiso   1.00
C829   C     0.47648   0.49953   0.83427   0.00000  Uiso   1.00
C830   C     0.02337   0.50265   0.83508   0.00000  Uiso   1.00
C831   C     0.45089   0.51891   0.79012   0.00000  Uiso   1.00
C832   C     0.04908   0.48364   0.87944   0.00000  Uiso   1.00
C833   C     0.48180   0.45931   0.92212   0.00000  Uiso   1.00
C834   C     0.01814   0.54350   0.74767   0.00000  Uiso   1.00
Cu835  Cu    0.25500   0.50579   0.89479   0.00000  Uiso   1.00
Cu836  Cu    0.24499   0.49421   0.77187   0.00000  Uiso   1.00
H837   H     0.38538   0.53418   0.75784   0.00000  Uiso   1.00
H838   H     0.11473   0.46889   0.91209   0.00000  Uiso   1.00
H839   H     0.46701   0.44331   0.95708   0.00000  Uiso   1.00
H840   H     0.03311   0.56021   0.71333   0.00000  Uiso   1.00
H841   H     0.04780   0.44904   0.95820   0.00000  Uiso   1.00
H842   H     0.45234   0.55580   0.71315   0.00000  Uiso   1.00
N843   N     0.23744   0.48547   0.67951   0.00000  Uiso   1.00
N844   N     0.26255   0.51453   0.98716   0.00000  Uiso   1.00
O845   O     0.25325   0.42871   0.87326   0.00000  Uiso   1.00
O846   O     0.24674   0.57129   0.79341   0.00000  Uiso   1.00
O847   O     0.24480   0.41892   0.76945   0.00000  Uiso   1.00
O848   O     0.25520   0.58108   0.89721   0.00000  Uiso   1.00
O849   O     0.18935   0.50488   0.88524   0.00000  Uiso   1.00
O850   O     0.31064   0.49512   0.78143   0.00000  Uiso   1.00
O851   O     0.18090   0.49510   0.78143   0.00000  Uiso   1.00
O852   O     0.31910   0.50490   0.88523   0.00000  Uiso   1.00
N853   N     0.38624   0.43959   0.91000   0.00000  Uiso   1.00
H854   H     0.40051   0.40412   0.90412   0.00000  Uiso   1.00
H855   H     0.35309   0.42768   0.89212   0.00000  Uiso   1.00
N856   N     0.11221   0.55021   0.74823   0.00000  Uiso   1.00
H857   H     0.13869   0.57699   0.77125   0.00000  Uiso   1.00
H858   H     0.12404   0.52170   0.71529   0.00000  Uiso   1.00
N859   N     0.27818   0.65759   0.76000   0.00000  Uiso   1.00
H860   H     0.25637   0.63009   0.72852   0.00000  Uiso   1.00
H861   H     0.30671   0.64166   0.77506   0.00000  Uiso   1.00
N862   N     0.22189   0.34242   0.90670   0.00000  Uiso   1.00
H863   H     0.24370   0.36992   0.93817   0.00000  Uiso   1.00
H864   H     0.19334   0.35833   0.89166   0.00000  Uiso   1.00
N865   N     0.19474   0.46984   0.98349   0.00000  Uiso   1.00
H866   H     0.17774   0.44939   0.67742   0.00000  Uiso   1.00
H867   H     0.19776   0.44118   0.94501   0.00000  Uiso   1.00
N868   N     0.30531   0.52998   0.68313   0.00000  Uiso   1.00
H869   H     0.32246   0.55017   0.98910   0.00000  Uiso   1.00
H870   H     0.30238   0.55880   0.72150   0.00000  Uiso   1.00
C871   C     0.74899   0.40038   0.81841   0.00000  Uiso   1.00
C872   C     0.75102   0.59961   0.84826   0.00000  Uiso   1.00
C873   C     0.52821   0.46293   0.92327   0.00000  Uiso   1.00
C874   C     0.97183   0.54088   0.74728   0.00000  Uiso   1.00
C875   C     0.75545   0.34638   0.81160   0.00000  Uiso   1.00
C876   C     0.74459   0.65363   0.85508   0.00000  Uiso   1.00
C877   C     0.66461   0.50169   0.83376   0.00000  Uiso   1.00
C878   C     0.83524   0.49778   0.83275   0.00000  Uiso   1.00
C879   C     0.90471   0.51695   0.78999   0.00000  Uiso   1.00
C880   C     0.59526   0.48479   0.87883   0.00000  Uiso   1.00
C881   C     0.88328   0.49424   0.83180   0.00000  Uiso   1.00
C882   C     0.61635   0.50442   0.83441   0.00000  Uiso   1.00
C883   C     0.90810   0.47069   0.87336   0.00000  Uiso   1.00
C884   C     0.59111   0.52579   0.79118   0.00000  Uiso   1.00
C885   C     0.95528   0.47645   0.87701   0.00000  Uiso   1.00
C886   C     0.54441   0.52437   0.79124   0.00000  Uiso   1.00
C887   C     0.97648   0.49953   0.83427   0.00000  Uiso   1.00
C888   C     0.52337   0.50265   0.83508   0.00000  Uiso   1.00
C889   C     0.95089   0.51891   0.79012   0.00000  Uiso   1.00
C890   C     0.54908   0.48364   0.87944   0.00000  Uiso   1.00
C891   C     0.98180   0.45931   0.92212   0.00000  Uiso   1.00
C892   C     0.51814   0.54350   0.74767   0.00000  Uiso   1.00
Cu893  Cu    0.75500   0.50579   0.89479   0.00000  Uiso   1.00
Cu894  Cu    0.74499   0.49421   0.77187   0.00000  Uiso   1.00
H895   H     0.88538   0.53418   0.75784   0.00000  Uiso   1.00
H896   H     0.61473   0.46889   0.91209   0.00000  Uiso   1.00
H897   H     0.96701   0.44331   0.95708   0.00000  Uiso   1.00
H898   H     0.53311   0.56021   0.71333   0.00000  Uiso   1.00
H899   H     0.54780   0.44904   0.95820   0.00000  Uiso   1.00
H900   H     0.95234   0.55580   0.71315   0.00000  Uiso   1.00
N901   N     0.73744   0.48547   0.67951   0.00000  Uiso   1.00
N902   N     0.76255   0.51453   0.98716   0.00000  Uiso   1.00
O903   O     0.75325   0.42871   0.87326   0.00000  Uiso   1.00
O904   O     0.74674   0.57129   0.79341   0.00000  Uiso   1.00
O905   O     0.74480   0.41892   0.76945   0.00000  Uiso   1.00
O906   O     0.75520   0.58108   0.89721   0.00000  Uiso   1.00
O907   O     0.68935   0.50488   0.88524   0.00000  Uiso   1.00
O908   O     0.81064   0.49512   0.78143   0.00000  Uiso   1.00
O909   O     0.68090   0.49510   0.78143   0.00000  Uiso   1.00
O910   O     0.81910   0.50490   0.88523   0.00000  Uiso   1.00
N911   N     0.88624   0.43959   0.91000   0.00000  Uiso   1.00
H912   H     0.90051   0.40412   0.90412   0.00000  Uiso   1.00
H913   H     0.85309   0.42768   0.89212   0.00000  Uiso   1.00
N914   N     0.61221   0.55021   0.74823   0.00000  Uiso   1.00
H915   H     0.63869   0.57699   0.77125   0.00000  Uiso   1.00
H916   H     0.62404   0.52170   0.71529   0.00000  Uiso   1.00
N917   N     0.77818   0.65759   0.76000   0.00000  Uiso   1.00
H918   H     0.75637   0.63009   0.72852   0.00000  Uiso   1.00
H919   H     0.80671   0.64166   0.77506   0.00000  Uiso   1.00
N920   N     0.72189   0.34242   0.90670   0.00000  Uiso   1.00
H921   H     0.74370   0.36992   0.93817   0.00000  Uiso   1.00
H922   H     0.69334   0.35833   0.89166   0.00000  Uiso   1.00
N923   N     0.69474   0.46984   0.98349   0.00000  Uiso   1.00
H924   H     0.67774   0.44939   0.67742   0.00000  Uiso   1.00
H925   H     0.69776   0.44118   0.94501   0.00000  Uiso   1.00
N926   N     0.80531   0.52998   0.68313   0.00000  Uiso   1.00
H927   H     0.82246   0.55017   0.98910   0.00000  Uiso   1.00
H928   H     0.80238   0.55880   0.72150   0.00000  Uiso   1.00
C929   C     0.24899   0.73372   0.81841   0.00000  Uiso   1.00
C930   C     0.25102   0.93295   0.84826   0.00000  Uiso   1.00
C931   C     0.02821   0.79626   0.92327   0.00000  Uiso   1.00
C932   C     0.47183   0.87422   0.74728   0.00000  Uiso   1.00
C933   C     0.25545   0.67971   0.81160   0.00000  Uiso   1.00
C934   C     0.24459   0.98696   0.85508   0.00000  Uiso   1.00
C935   C     0.16461   0.83502   0.83376   0.00000  Uiso   1.00
C936   C     0.33524   0.83111   0.83275   0.00000  Uiso   1.00
C937   C     0.40471   0.85029   0.78999   0.00000  Uiso   1.00
C938   C     0.09526   0.81812   0.87883   0.00000  Uiso   1.00
C939   C     0.38328   0.82758   0.83180   0.00000  Uiso   1.00
C940   C     0.11635   0.83775   0.83441   0.00000  Uiso   1.00
C941   C     0.40810   0.80403   0.87336   0.00000  Uiso   1.00
C942   C     0.09111   0.85913   0.79118   0.00000  Uiso   1.00
C943   C     0.45528   0.80979   0.87701   0.00000  Uiso   1.00
C944   C     0.04441   0.85770   0.79124   0.00000  Uiso   1.00
C945   C     0.47648   0.83287   0.83427   0.00000  Uiso   1.00
C946   C     0.02337   0.83598   0.83508   0.00000  Uiso   1.00
C947   C     0.45089   0.85224   0.79012   0.00000  Uiso   1.00
C948   C     0.04908   0.81698   0.87944   0.00000  Uiso   1.00
C949   C     0.48180   0.79264   0.92212   0.00000  Uiso   1.00
C950   C     0.01814   0.87683   0.74767   0.00000  Uiso   1.00
Cu951  Cu    0.25500   0.83913   0.89479   0.00000  Uiso   1.00
Cu952  Cu    0.24499   0.82754   0.77187   0.00000  Uiso   1.00
H953   H     0.38538   0.86751   0.75784   0.00000  Uiso   1.00
H954   H     0.11473   0.80222   0.91209   0.00000  Uiso   1.00
H955   H     0.46701   0.77664   0.95708   0.00000  Uiso   1.00
H956   H     0.03311   0.89355   0.71333   0.00000  Uiso   1.00
H957   H     0.04780   0.78238   0.95820   0.00000  Uiso   1.00
H958   H     0.45234   0.88913   0.71315   0.00000  Uiso   1.00
N959   N     0.23744   0.81881   0.67951   0.00000  Uiso   1.00
N960   N     0.26255   0.84786   0.98716   0.00000  Uiso   1.00
O961   O     0.25325   0.76204   0.87326   0.00000  Uiso   1.00
O962   O     0.24674   0.90462   0.79341   0.00000  Uiso   1.00
O963   O     0.24480   0.75226   0.76945   0.00000  Uiso   1.00
O964   O     0.25520   0.91441   0.89721   0.00000  Uiso   1.00
O965   O     0.18935   0.83821   0.88524   0.00000  Uiso   1.00
O966   O     0.31064   0.82845   0.78143   0.00000  Uiso   1.00
O967   O     0.18090   0.82843   0.78143   0.00000  Uiso   1.00
O968   O     0.31910   0.83824   0.88523   0.00000  Uiso   1.00
N969   N     0.38624   0.77293   0.91000   0.00000  Uiso   1.00
H970   H     0.40051   0.73745   0.90412   0.00000  Uiso   1.00
H971   H     0.35309   0.76101   0.89212   0.00000  Uiso   1.00
N972   N     0.11221   0.88354   0.74823   0.00000  Uiso   1.00
H973   H     0.13869   0.91032   0.77125   0.00000  Uiso   1.00
H974   H     0.12404   0.85503   0.71529   0.00000  Uiso   1.00
N975   N     0.27818   0.99092   0.76000   0.00000  Uiso   1.00
H976   H     0.25637   0.96342   0.72852   0.00000  Uiso   1.00
H977   H     0.30671   0.97500   0.77506   0.00000  Uiso   1.00
N978   N     0.22189   0.67575   0.90670   0.00000  Uiso   1.00
H979   H     0.24370   0.70325   0.93817   0.00000  Uiso   1.00
H980   H     0.19334   0.69167   0.89166   0.00000  Uiso   1.00
N981   N     0.19474   0.80317   0.98349   0.00000  Uiso   1.00
H982   H     0.17774   0.78272   0.67742   0.00000  Uiso   1.00
H983   H     0.19776   0.77451   0.94501   0.00000  Uiso   1.00
N984   N     0.30531   0.86331   0.68313   0.00000  Uiso   1.00
H985   H     0.32246   0.88350   0.98910   0.00000  Uiso   1.00
H986   H     0.30238   0.89213   0.72150   0.00000  Uiso   1.00
C987   C     0.74899   0.73372   0.81841   0.00000  Uiso   1.00
C988   C     0.75102   0.93295   0.84826   0.00000  Uiso   1.00
C989   C     0.52821   0.79626   0.92327   0.00000  Uiso   1.00
C990   C     0.97183   0.87422   0.74728   0.00000  Uiso   1.00
C991   C     0.75545   0.67971   0.81160   0.00000  Uiso   1.00
C992   C     0.74459   0.98696   0.85508   0.00000  Uiso   1.00
C993   C     0.66461   0.83502   0.83376   0.00000  Uiso   1.00
C994   C     0.83524   0.83111   0.83275   0.00000  Uiso   1.00
C995   C     0.90471   0.85029   0.78999   0.00000  Uiso   1.00
C996   C     0.59526   0.81812   0.87883   0.00000  Uiso   1.00
C997   C     0.88328   0.82758   0.83180   0.00000  Uiso   1.00
C998   C     0.61635   0.83775   0.83441   0.00000  Uiso   1.00
C999   C     0.90810   0.80403   0.87336   0.00000  Uiso   1.00
C1000  C     0.59111   0.85913   0.79118   0.00000  Uiso   1.00
C1001  C     0.95528   0.80979   0.87701   0.00000  Uiso   1.00
C1002  C     0.54441   0.85770   0.79124   0.00000  Uiso   1.00
C1003  C     0.97648   0.83287   0.83427   0.00000  Uiso   1.00
C1004  C     0.52337   0.83598   0.83508   0.00000  Uiso   1.00
C1005  C     0.95089   0.85224   0.79012   0.00000  Uiso   1.00
C1006  C     0.54908   0.81698   0.87944   0.00000  Uiso   1.00
C1007  C     0.98180   0.79264   0.92212   0.00000  Uiso   1.00
C1008  C     0.51814   0.87683   0.74767   0.00000  Uiso   1.00
Cu1009 Cu    0.75500   0.83913   0.89479   0.00000  Uiso   1.00
Cu1010 Cu    0.74499   0.82754   0.77187   0.00000  Uiso   1.00
H1011  H     0.88538   0.86751   0.75784   0.00000  Uiso   1.00
H1012  H     0.61473   0.80222   0.91209   0.00000  Uiso   1.00
H1013  H     0.96701   0.77664   0.95708   0.00000  Uiso   1.00
H1014  H     0.53311   0.89355   0.71333   0.00000  Uiso   1.00
H1015  H     0.54780   0.78238   0.95820   0.00000  Uiso   1.00
H1016  H     0.95234   0.88913   0.71315   0.00000  Uiso   1.00
N1017  N     0.73744   0.81881   0.67951   0.00000  Uiso   1.00
N1018  N     0.76255   0.84786   0.98716   0.00000  Uiso   1.00
O1019  O     0.75325   0.76204   0.87326   0.00000  Uiso   1.00
O1020  O     0.74674   0.90462   0.79341   0.00000  Uiso   1.00
O1021  O     0.74480   0.75226   0.76945   0.00000  Uiso   1.00
O1022  O     0.75520   0.91441   0.89721   0.00000  Uiso   1.00
O1023  O     0.68935   0.83821   0.88524   0.00000  Uiso   1.00
O1024  O     0.81064   0.82845   0.78143   0.00000  Uiso   1.00
O1025  O     0.68090   0.82843   0.78143   0.00000  Uiso   1.00
O1026  O     0.81910   0.83824   0.88523   0.00000  Uiso   1.00
N1027  N     0.88624   0.77293   0.91000   0.00000  Uiso   1.00
H1028  H     0.90051   0.73745   0.90412   0.00000  Uiso   1.00
H1029  H     0.85309   0.76101   0.89212   0.00000  Uiso   1.00
N1030  N     0.61221   0.88354   0.74823   0.00000  Uiso   1.00
H1031  H     0.63869   0.91032   0.77125   0.00000  Uiso   1.00
H1032  H     0.62404   0.85503   0.71529   0.00000  Uiso   1.00
N1033  N     0.77818   0.99092   0.76000   0.00000  Uiso   1.00
H1034  H     0.75637   0.96342   0.72852   0.00000  Uiso   1.00
H1035  H     0.80671   0.97500   0.77506   0.00000  Uiso   1.00
N1036  N     0.72189   0.67575   0.90670   0.00000  Uiso   1.00
H1037  H     0.74370   0.70325   0.93817   0.00000  Uiso   1.00
H1038  H     0.69334   0.69167   0.89166   0.00000  Uiso   1.00
N1039  N     0.69474   0.80317   0.98349   0.00000  Uiso   1.00
H1040  H     0.67774   0.78272   0.67742   0.00000  Uiso   1.00
H1041  H     0.69776   0.77451   0.94501   0.00000  Uiso   1.00
N1042  N     0.80531   0.86331   0.68313   0.00000  Uiso   1.00
H1043  H     0.82246   0.88350   0.98910   0.00000  Uiso   1.00
H1044  H     0.80238   0.89213   0.72150   0.00000  Uiso   1.00
loop_
_geom_bond_atom_site_label_1
_geom_bond_atom_site_label_2
_geom_bond_distance
_geom_bond_site_symmetry_2
_ccdc_geom_bond_type
C1     O33     1.291   .     A
C1     C5      1.429   .     S
C1     O35     1.299   .     A
C2     O34     1.291   .     A
C2     C6      1.429   .     S
C2     O36     1.299   .     A
C3     C20     1.398   .     A
C3     H29     1.084   .     S
C3     C79     1.391   1_455 S
C4     C19     1.398   .     A
C4     H30     1.084   .     S
C4     C80     1.389   .     S
C5     C238    1.360   1_545 S
C5     N279    1.438   1_545 S
C6     C121    1.360   .     S
C6     N166    1.438   .     S
C7     O37     1.307   .     A
C7     C12     1.460   .     S
C7     O39     1.299   .     A
C8     O38     1.304   .     A
C8     C11     1.457   .     S
C8     O40     1.299   .     A
C9     C11     1.397   .     A
C9     H25     1.084   .     S
C9     C19     1.387   .     A
C10    H26     1.084   .     S
C10    C12     1.399   .     A
C10    C20     1.389   .     A
C11    C13     1.420   .     A
C12    C14     1.419   .     A
C13    N41     1.446   .     S
C13    C15     1.410   .     A
C14    N44     1.438   .     S
C14    C16     1.403   .     A
C15    C17     1.416   .     A
C15    C21     1.408   .     A
C16    C18     1.415   .     A
C16    C22     1.407   .     A
C17    C19     1.409   .     A
C17    C76     1.406   .     S
C18    C20     1.409   .     A
C18    C75     1.406   1_455 S
C21    H27     1.082   .     S
C21    C61     1.391   .     S
C22    H28     1.083   .     S
C22    C62     1.389   1_455 S
Cu23   Cu24    2.709   .     S
Cu23   N32     2.036   .     S
Cu23   O40     1.960   .     S
Cu23   O36     1.974   .     S
Cu23   O37     1.967   .     S
Cu23   O33     1.983   .     S
Cu24   O38     1.967   .     S
Cu24   N31     2.036   .     S
Cu24   O35     1.974   .     S
Cu24   O39     1.960   .     S
Cu24   O34     1.983   .     S
N31    N728    1.294   1_554 S
N31    N749    1.385   1_554 S
N32    N379    1.294   .     S
N32    N404    1.386   .     S
N41    H42     1.046   .     S
N41    H43     1.043   .     S
N44    H46     1.044   .     S
N44    H45     1.046   .     S
N47    H49     1.045   .     S
N47    H48     1.045   .     S
N47    C121    1.438   .     S
N50    H52     1.045   .     S
N50    H51     1.045   .     S
N50    C238    1.438   1_545 S
N53    H55     1.037   .     S
N53    N379    1.385   .     S
N53    H402    1.042   .     S
H54    N749    1.042   1_554 S
N56    H58     1.038   .     S
N56    N728    1.386   1_554 S
N56    H753    1.042   1_554 S
H57    N404    1.042   .     S
C59    O91     1.291   .     A
C59    C63     1.429   .     S
C59    O93     1.299   .     A
C60    O92     1.291   .     A
C60    C64     1.429   .     S
C60    O94     1.299   .     A
C61    C78     1.398   .     A
C61    H87     1.084   .     S
C62    C77     1.398   .     A
C62    H88     1.084   .     S
C62    C22     1.389   1_655 S
C63    C296    1.360   1_545 S
C63    N337    1.438   1_545 S
C64    C179    1.360   .     S
C64    N224    1.438   .     S
C65    O95     1.307   .     A
C65    C70     1.460   .     S
C65    O97     1.299   .     A
C66    O96     1.304   .     A
C66    C69     1.457   .     S
C66    O98     1.299   .     A
C67    C69     1.397   .     A
C67    H83     1.084   .     S
C67    C77     1.387   .     A
C68    H84     1.084   .     S
C68    C70     1.399   .     A
C68    C78     1.389   .     A
C69    C71     1.420   .     A
C70    C72     1.419   .     A
C71    N99     1.446   .     S
C71    C73     1.410   .     A
C72    N102    1.438   .     S
C72    C74     1.403   .     A
C73    C75     1.416   .     A
C73    C79     1.408   .     A
C74    C76     1.415   .     A
C74    C80     1.407   .     A
C75    C77     1.409   .     A
C75    C18     1.406   1_655 S
C76    C78     1.409   .     A
C79    H85     1.082   .     S
C79    C3      1.391   1_655 S
C80    H86     1.083   .     S
Cu81   Cu82    2.709   .     S
Cu81   N90     2.036   .     S
Cu81   O98     1.960   .     S
Cu81   O94     1.974   .     S
Cu81   O95     1.967   .     S
Cu81   O91     1.983   .     S
Cu82   O96     1.967   .     S
Cu82   N89     2.036   .     S
Cu82   O93     1.974   .     S
Cu82   O97     1.960   .     S
Cu82   O92     1.983   .     S
N89    N786    1.294   1_554 S
N89    N807    1.385   1_554 S
N90    N437    1.294   .     S
N90    N462    1.386   .     S
N99    H100    1.046   .     S
N99    H101    1.043   .     S
N102   H104    1.044   .     S
N102   H103    1.046   .     S
N105   H107    1.045   .     S
N105   H106    1.045   .     S
N105   C179    1.438   .     S
N108   H110    1.045   .     S
N108   H109    1.045   .     S
N108   C296    1.438   1_545 S
N111   H113    1.037   .     S
N111   N437    1.385   .     S
N111   H460    1.042   .     S
H112   N807    1.042   1_554 S
N114   H116    1.038   .     S
N114   N786    1.386   1_554 S
N114   H811    1.042   1_554 S
H115   N462    1.042   .     S
C117   O149    1.291   .     A
C117   C121    1.429   .     S
C117   O151    1.299   .     A
C118   O150    1.291   .     A
C118   C122    1.429   .     S
C118   O152    1.299   .     A
C119   C136    1.398   .     A
C119   H145    1.084   .     S
C119   C195    1.391   1_455 S
C120   C135    1.398   .     A
C120   H146    1.084   .     S
C120   C196    1.389   .     S
C122   C237    1.360   .     S
C122   N282    1.438   .     S
C123   O153    1.307   .     A
C123   C128    1.460   .     S
C123   O155    1.299   .     A
C124   O154    1.304   .     A
C124   C127    1.457   .     S
C124   O156    1.299   .     A
C125   C127    1.397   .     A
C125   H141    1.084   .     S
C125   C135    1.387   .     A
C126   H142    1.084   .     S
C126   C128    1.399   .     A
C126   C136    1.389   .     A
C127   C129    1.420   .     A
C128   C130    1.419   .     A
C129   N157    1.446   .     S
C129   C131    1.410   .     A
C130   N160    1.438   .     S
C130   C132    1.403   .     A
C131   C133    1.416   .     A
C131   C137    1.408   .     A
C132   C134    1.415   .     A
C132   C138    1.407   .     A
C133   C135    1.409   .     A
C133   C192    1.406   .     S
C134   C136    1.409   .     A
C134   C191    1.406   1_455 S
C137   H143    1.082   .     S
C137   C177    1.391   .     S
C138   H144    1.083   .     S
C138   C178    1.389   1_455 S
Cu139  Cu140   2.709   .     S
Cu139  N148    2.036   .     S
Cu139  O156    1.960   .     S
Cu139  O152    1.974   .     S
Cu139  O153    1.967   .     S
Cu139  O149    1.983   .     S
Cu140  O154    1.967   .     S
Cu140  N147    2.036   .     S
Cu140  O151    1.974   .     S
Cu140  O155    1.960   .     S
Cu140  O150    1.983   .     S
N147   N844    1.294   1_554 S
N147   N865    1.385   1_554 S
N148   N495    1.294   .     S
N148   N520    1.386   .     S
N157   H158    1.046   .     S
N157   H159    1.043   .     S
N160   H162    1.044   .     S
N160   H161    1.046   .     S
N163   H165    1.045   .     S
N163   H164    1.045   .     S
N163   C237    1.438   .     S
N166   H168    1.045   .     S
N166   H167    1.045   .     S
N169   H171    1.037   .     S
N169   N495    1.385   .     S
N169   H518    1.042   .     S
H170   N865    1.042   1_554 S
N172   H174    1.038   .     S
N172   N844    1.386   1_554 S
N172   H869    1.042   1_554 S
H173   N520    1.042   .     S
C175   O207    1.291   .     A
C175   C179    1.429   .     S
C175   O209    1.299   .     A
C176   O208    1.291   .     A
C176   C180    1.429   .     S
C176   O210    1.299   .     A
C177   C194    1.398   .     A
C177   H203    1.084   .     S
C178   C193    1.398   .     A
C178   H204    1.084   .     S
C178   C138    1.389   1_655 S
C180   C295    1.360   .     S
C180   N340    1.438   .     S
C181   O211    1.307   .     A
C181   C186    1.460   .     S
C181   O213    1.299   .     A
C182   O212    1.304   .     A
C182   C185    1.457   .     S
C182   O214    1.299   .     A
C183   C185    1.397   .     A
C183   H199    1.084   .     S
C183   C193    1.387   .     A
C184   H200    1.084   .     S
C184   C186    1.399   .     A
C184   C194    1.389   .     A
C185   C187    1.420   .     A
C186   C188    1.419   .     A
C187   N215    1.446   .     S
C187   C189    1.410   .     A
C188   N218    1.438   .     S
C188   C190    1.403   .     A
C189   C191    1.416   .     A
C189   C195    1.408   .     A
C190   C192    1.415   .     A
C190   C196    1.407   .     A
C191   C193    1.409   .     A
C191   C134    1.406   1_655 S
C192   C194    1.409   .     A
C195   H201    1.082   .     S
C195   C119    1.391   1_655 S
C196   H202    1.083   .     S
Cu197  Cu198   2.709   .     S
Cu197  N206    2.036   .     S
Cu197  O214    1.960   .     S
Cu197  O210    1.974   .     S
Cu197  O211    1.967   .     S
Cu197  O207    1.983   .     S
Cu198  O212    1.967   .     S
Cu198  N205    2.036   .     S
Cu198  O209    1.974   .     S
Cu198  O213    1.960   .     S
Cu198  O208    1.983   .     S
N205   N902    1.294   1_554 S
N205   N923    1.385   1_554 S
N206   N553    1.294   .     S
N206   N578    1.386   .     S
N215   H216    1.046   .     S
N215   H217    1.043   .     S
N218   H220    1.044   .     S
N218   H219    1.046   .     S
N221   H223    1.045   .     S
N221   H222    1.045   .     S
N221   C295    1.438   .     S
N224   H226    1.045   .     S
N224   H225    1.045   .     S
N227   H229    1.037   .     S
N227   N553    1.385   .     S
N227   H576    1.042   .     S
H228   N923    1.042   1_554 S
N230   H232    1.038   .     S
N230   N902    1.386   1_554 S
N230   H927    1.042   1_554 S
H231   N578    1.042   .     S
C233   O265    1.291   .     A
C233   C237    1.429   .     S
C233   O267    1.299   .     A
C234   O266    1.291   .     A
C234   C238    1.429   .     S
C234   O268    1.299   .     A
C235   C252    1.398   .     A
C235   H261    1.084   .     S
C235   C311    1.391   1_455 S
C236   C251    1.398   .     A
C236   H262    1.084   .     S
C236   C312    1.389   .     S
C238   C5      1.360   1_565 S
C238   N50     1.438   1_565 S
C239   O269    1.307   .     A
C239   C244    1.460   .     S
C239   O271    1.299   .     A
C240   O270    1.304   .     A
C240   C243    1.457   .     S
C240   O272    1.299   .     A
C241   C243    1.397   .     A
C241   H257    1.084   .     S
C241   C251    1.387   .     A
C242   H258    1.084   .     S
C242   C244    1.399   .     A
C242   C252    1.389   .     A
C243   C245    1.420   .     A
C244   C246    1.419   .     A
C245   N273    1.446   .     S
C245   C247    1.410   .     A
C246   N276    1.438   .     S
C246   C248    1.403   .     A
C247   C249    1.416   .     A
C247   C253    1.408   .     A
C248   C250    1.415   .     A
C248   C254    1.407   .     A
C249   C251    1.409   .     A
C249   C308    1.406   .     S
C250   C252    1.409   .     A
C250   C307    1.406   1_455 S
C253   H259    1.082   .     S
C253   C293    1.391   .     S
C254   H260    1.083   .     S
C254   C294    1.389   1_455 S
Cu255  Cu256   2.709   .     S
Cu255  N264    2.036   .     S
Cu255  O272    1.960   .     S
Cu255  O268    1.974   .     S
Cu255  O269    1.967   .     S
Cu255  O265    1.983   .     S
Cu256  O270    1.967   .     S
Cu256  N263    2.036   .     S
Cu256  O267    1.974   .     S
Cu256  O271    1.960   .     S
Cu256  O266    1.983   .     S
N263   N960    1.294   1_554 S
N263   N981    1.385   1_554 S
N264   N611    1.294   .     S
N264   N636    1.386   .     S
N273   H274    1.046   .     S
N273   H275    1.043   .     S
N276   H278    1.044   .     S
N276   H277    1.046   .     S
N279   H281    1.045   .     S
N279   H280    1.045   .     S
N279   C5      1.438   1_565 S
N282   H284    1.045   .     S
N282   H283    1.045   .     S
N285   H287    1.037   .     S
N285   N611    1.385   .     S
N285   H634    1.042   .     S
H286   N981    1.042   1_554 S
N288   H290    1.038   .     S
N288   N960    1.386   1_554 S
N288   H985    1.042   1_554 S
H289   N636    1.042   .     S
C291   O323    1.291   .     A
C291   C295    1.429   .     S
C291   O325    1.299   .     A
C292   O324    1.291   .     A
C292   C296    1.429   .     S
C292   O326    1.299   .     A
C293   C310    1.398   .     A
C293   H319    1.084   .     S
C294   C309    1.398   .     A
C294   H320    1.084   .     S
C294   C254    1.389   1_655 S
C296   C63     1.360   1_565 S
C296   N108    1.438   1_565 S
C297   O327    1.307   .     A
C297   C302    1.460   .     S
C297   O329    1.299   .     A
C298   O328    1.304   .     A
C298   C301    1.457   .     S
C298   O330    1.299   .     A
C299   C301    1.397   .     A
C299   H315    1.084   .     S
C299   C309    1.387   .     A
C300   H316    1.084   .     S
C300   C302    1.399   .     A
C300   C310    1.389   .     A
C301   C303    1.420   .     A
C302   C304    1.419   .     A
C303   N331    1.446   .     S
C303   C305    1.410   .     A
C304   N334    1.438   .     S
C304   C306    1.403   .     A
C305   C307    1.416   .     A
C305   C311    1.408   .     A
C306   C308    1.415   .     A
C306   C312    1.407   .     A
C307   C309    1.409   .     A
C307   C250    1.406   1_655 S
C308   C310    1.409   .     A
C311   H317    1.082   .     S
C311   C235    1.391   1_655 S
C312   H318    1.083   .     S
Cu313  Cu314   2.709   .     S
Cu313  N322    2.036   .     S
Cu313  O330    1.960   .     S
Cu313  O326    1.974   .     S
Cu313  O327    1.967   .     S
Cu313  O323    1.983   .     S
Cu314  O328    1.967   .     S
Cu314  N321    2.036   .     S
Cu314  O325    1.974   .     S
Cu314  O329    1.960   .     S
Cu314  O324    1.983   .     S
N321   N1018   1.294   1_554 S
N321   N1039   1.385   1_554 S
N322   N669    1.294   .     S
N322   N694    1.386   .     S
N331   H332    1.046   .     S
N331   H333    1.043   .     S
N334   H336    1.044   .     S
N334   H335    1.046   .     S
N337   H339    1.045   .     S
N337   H338    1.045   .     S
N337   C63     1.438   1_565 S
N340   H342    1.045   .     S
N340   H341    1.045   .     S
N343   H345    1.037   .     S
N343   N669    1.385   .     S
N343   H692    1.042   .     S
H344   N1039   1.042   1_554 S
N346   H348    1.038   .     S
N346   N1018   1.386   1_554 S
N346   H1043   1.042   1_554 S
H347   N694    1.042   .     S
C349   O381    1.291   .     A
C349   C353    1.429   .     S
C349   O383    1.299   .     A
C350   O382    1.291   .     A
C350   C354    1.429   .     S
C350   O384    1.299   .     A
C351   C368    1.398   .     A
C351   H377    1.084   .     S
C351   C427    1.391   1_455 S
C352   C367    1.398   .     A
C352   H378    1.084   .     S
C352   C428    1.389   .     S
C353   C586    1.360   1_545 S
C353   N627    1.438   1_545 S
C354   C469    1.360   .     S
C354   N514    1.438   .     S
C355   O385    1.307   .     A
C355   C360    1.460   .     S
C355   O387    1.299   .     A
C356   O386    1.304   .     A
C356   C359    1.457   .     S
C356   O388    1.299   .     A
C357   C359    1.397   .     A
C357   H373    1.084   .     S
C357   C367    1.387   .     A
C358   H374    1.084   .     S
C358   C360    1.399   .     A
C358   C368    1.389   .     A
C359   C361    1.420   .     A
C360   C362    1.419   .     A
C361   N389    1.446   .     S
C361   C363    1.410   .     A
C362   N392    1.438   .     S
C362   C364    1.403   .     A
C363   C365    1.416   .     A
C363   C369    1.408   .     A
C364   C366    1.415   .     A
C364   C370    1.407   .     A
C365   C367    1.409   .     A
C365   C424    1.406   .     S
C366   C368    1.409   .     A
C366   C423    1.406   1_455 S
C369   H375    1.082   .     S
C369   C409    1.391   .     S
C370   H376    1.083   .     S
C370   C410    1.389   1_455 S
Cu371  Cu372   2.709   .     S
Cu371  N380    2.036   .     S
Cu371  O388    1.960   .     S
Cu371  O384    1.974   .     S
Cu371  O385    1.967   .     S
Cu371  O381    1.983   .     S
Cu372  O386    1.967   .     S
Cu372  N379    2.036   .     S
Cu372  O383    1.974   .     S
Cu372  O387    1.960   .     S
Cu372  O382    1.983   .     S
N380   N727    1.294   .     S
N380   N752    1.386   .     S
N389   H390    1.046   .     S
N389   H391    1.043   .     S
N392   H394    1.044   .     S
N392   H393    1.046   .     S
N395   H397    1.045   .     S
N395   H396    1.045   .     S
N395   C469    1.438   .     S
N398   H400    1.045   .     S
N398   H399    1.045   .     S
N398   C586    1.438   1_545 S
N401   H403    1.037   .     S
N401   N727    1.385   .     S
N401   H750    1.042   .     S
N404   H406    1.038   .     S
H405   N752    1.042   .     S
C407   O439    1.291   .     A
C407   C411    1.429   .     S
C407   O441    1.299   .     A
C408   O440    1.291   .     A
C408   C412    1.429   .     S
C408   O442    1.299   .     A
C409   C426    1.398   .     A
C409   H435    1.084   .     S
C410   C425    1.398   .     A
C410   H436    1.084   .     S
C410   C370    1.389   1_655 S
C411   C644    1.360   1_545 S
C411   N685    1.438   1_545 S
C412   C527    1.360   .     S
C412   N572    1.438   .     S
C413   O443    1.307   .     A
C413   C418    1.460   .     S
C413   O445    1.299   .     A
C414   O444    1.304   .     A
C414   C417    1.457   .     S
C414   O446    1.299   .     A
C415   C417    1.397   .     A
C415   H431    1.084   .     S
C415   C425    1.387   .     A
C416   H432    1.084   .     S
C416   C418    1.399   .     A
C416   C426    1.389   .     A
C417   C419    1.420   .     A
C418   C420    1.419   .     A
C419   N447    1.446   .     S
C419   C421    1.410   .     A
C420   N450    1.438   .     S
C420   C422    1.403   .     A
C421   C423    1.416   .     A
C421   C427    1.408   .     A
C422   C424    1.415   .     A
C422   C428    1.407   .     A
C423   C425    1.409   .     A
C423   C366    1.406   1_655 S
C424   C426    1.409   .     A
C427   H433    1.082   .     S
C427   C351    1.391   1_655 S
C428   H434    1.083   .     S
Cu429  Cu430   2.709   .     S
Cu429  N438    2.036   .     S
Cu429  O446    1.960   .     S
Cu429  O442    1.974   .     S
Cu429  O443    1.967   .     S
Cu429  O439    1.983   .     S
Cu430  O444    1.967   .     S
Cu430  N437    2.036   .     S
Cu430  O441    1.974   .     S
Cu430  O445    1.960   .     S
Cu430  O440    1.983   .     S
N438   N785    1.294   .     S
N438   N810    1.386   .     S
N447   H448    1.046   .     S
N447   H449    1.043   .     S
N450   H452    1.044   .     S
N450   H451    1.046   .     S
N453   H455    1.045   .     S
N453   H454    1.045   .     S
N453   C527    1.438   .     S
N456   H458    1.045   .     S
N456   H457    1.045   .     S
N456   C644    1.438   1_545 S
N459   H461    1.037   .     S
N459   N785    1.385   .     S
N459   H808    1.042   .     S
N462   H464    1.038   .     S
H463   N810    1.042   .     S
C465   O497    1.291   .     A
C465   C469    1.429   .     S
C465   O499    1.299   .     A
C466   O498    1.291   .     A
C466   C470    1.429   .     S
C466   O500    1.299   .     A
C467   C484    1.398   .     A
C467   H493    1.084   .     S
C467   C543    1.391   1_455 S
C468   C483    1.398   .     A
C468   H494    1.084   .     S
C468   C544    1.389   .     S
C470   C585    1.360   .     S
C470   N630    1.438   .     S
C471   O501    1.307   .     A
C471   C476    1.460   .     S
C471   O503    1.299   .     A
C472   O502    1.304   .     A
C472   C475    1.457   .     S
C472   O504    1.299   .     A
C473   C475    1.397   .     A
C473   H489    1.084   .     S
C473   C483    1.387   .     A
C474   H490    1.084   .     S
C474   C476    1.399   .     A
C474   C484    1.389   .     A
C475   C477    1.420   .     A
C476   C478    1.419   .     A
C477   N505    1.446   .     S
C477   C479    1.410   .     A
C478   N508    1.438   .     S
C478   C480    1.403   .     A
C479   C481    1.416   .     A
C479   C485    1.408   .     A
C480   C482    1.415   .     A
C480   C486    1.407   .     A
C481   C483    1.409   .     A
C481   C540    1.406   .     S
C482   C484    1.409   .     A
C482   C539    1.406   1_455 S
C485   H491    1.082   .     S
C485   C525    1.391   .     S
C486   H492    1.083   .     S
C486   C526    1.389   1_455 S
Cu487  Cu488   2.709   .     S
Cu487  N496    2.036   .     S
Cu487  O504    1.960   .     S
Cu487  O500    1.974   .     S
Cu487  O501    1.967   .     S
Cu487  O497    1.983   .     S
Cu488  O502    1.967   .     S
Cu488  N495    2.036   .     S
Cu488  O499    1.974   .     S
Cu488  O503    1.960   .     S
Cu488  O498    1.983   .     S
N496   N843    1.294   .     S
N496   N868    1.386   .     S
N505   H506    1.046   .     S
N505   H507    1.043   .     S
N508   H510    1.044   .     S
N508   H509    1.046   .     S
N511   H513    1.045   .     S
N511   H512    1.045   .     S
N511   C585    1.438   .     S
N514   H516    1.045   .     S
N514   H515    1.045   .     S
N517   H519    1.037   .     S
N517   N843    1.385   .     S
N517   H866    1.042   .     S
N520   H522    1.038   .     S
H521   N868    1.042   .     S
C523   O555    1.291   .     A
C523   C527    1.429   .     S
C523   O557    1.299   .     A
C524   O556    1.291   .     A
C524   C528    1.429   .     S
C524   O558    1.299   .     A
C525   C542    1.398   .     A
C525   H551    1.084   .     S
C526   C541    1.398   .     A
C526   H552    1.084   .     S
C526   C486    1.389   1_655 S
C528   C643    1.360   .     S
C528   N688    1.438   .     S
C529   O559    1.307   .     A
C529   C534    1.460   .     S
C529   O561    1.299   .     A
C530   O560    1.304   .     A
C530   C533    1.457   .     S
C530   O562    1.299   .     A
C531   C533    1.397   .     A
C531   H547    1.084   .     S
C531   C541    1.387   .     A
C532   H548    1.084   .     S
C532   C534    1.399   .     A
C532   C542    1.389   .     A
C533   C535    1.420   .     A
C534   C536    1.419   .     A
C535   N563    1.446   .     S
C535   C537    1.410   .     A
C536   N566    1.438   .     S
C536   C538    1.403   .     A
C537   C539    1.416   .     A
C537   C543    1.408   .     A
C538   C540    1.415   .     A
C538   C544    1.407   .     A
C539   C541    1.409   .     A
C539   C482    1.406   1_655 S
C540   C542    1.409   .     A
C543   H549    1.082   .     S
C543   C467    1.391   1_655 S
C544   H550    1.083   .     S
Cu545  Cu546   2.709   .     S
Cu545  N554    2.036   .     S
Cu545  O562    1.960   .     S
Cu545  O558    1.974   .     S
Cu545  O559    1.967   .     S
Cu545  O555    1.983   .     S
Cu546  O560    1.967   .     S
Cu546  N553    2.036   .     S
Cu546  O557    1.974   .     S
Cu546  O561    1.960   .     S
Cu546  O556    1.983   .     S
N554   N901    1.294   .     S
N554   N926    1.386   .     S
N563   H564    1.046   .     S
N563   H565    1.043   .     S
N566   H568    1.044   .     S
N566   H567    1.046   .     S
N569   H571    1.045   .     S
N569   H570    1.045   .     S
N569   C643    1.438   .     S
N572   H574    1.045   .     S
N572   H573    1.045   .     S
N575   H577    1.037   .     S
N575   N901    1.385   .     S
N575   H924    1.042   .     S
N578   H580    1.038   .     S
H579   N926    1.042   .     S
C581   O613    1.291   .     A
C581   C585    1.429   .     S
C581   O615    1.299   .     A
C582   O614    1.291   .     A
C582   C586    1.429   .     S
C582   O616    1.299   .     A
C583   C600    1.398   .     A
C583   H609    1.084   .     S
C583   C659    1.391   1_455 S
C584   C599    1.398   .     A
C584   H610    1.084   .     S
C584   C660    1.389   .     S
C586   C353    1.360   1_565 S
C586   N398    1.438   1_565 S
C587   O617    1.307   .     A
C587   C592    1.460   .     S
C587   O619    1.299   .     A
C588   O618    1.304   .     A
C588   C591    1.457   .     S
C588   O620    1.299   .     A
C589   C591    1.397   .     A
C589   H605    1.084   .     S
C589   C599    1.387   .     A
C590   H606    1.084   .     S
C590   C592    1.399   .     A
C590   C600    1.389   .     A
C591   C593    1.420   .     A
C592   C594    1.419   .     A
C593   N621    1.446   .     S
C593   C595    1.410   .     A
C594   N624    1.438   .     S
C594   C596    1.403   .     A
C595   C597    1.416   .     A
C595   C601    1.408   .     A
C596   C598    1.415   .     A
C596   C602    1.407   .     A
C597   C599    1.409   .     A
C597   C656    1.406   .     S
C598   C600    1.409   .     A
C598   C655    1.406   1_455 S
C601   H607    1.082   .     S
C601   C641    1.391   .     S
C602   H608    1.083   .     S
C602   C642    1.389   1_455 S
Cu603  Cu604   2.709   .     S
Cu603  N612    2.036   .     S
Cu603  O620    1.960   .     S
Cu603  O616    1.974   .     S
Cu603  O617    1.967   .     S
Cu603  O613    1.983   .     S
Cu604  O618    1.967   .     S
Cu604  N611    2.036   .     S
Cu604  O615    1.974   .     S
Cu604  O619    1.960   .     S
Cu604  O614    1.983   .     S
N612   N959    1.294   .     S
N612   N984    1.386   .     S
N621   H622    1.046   .     S
N621   H623    1.043   .     S
N624   H626    1.044   .     S
N624   H625    1.046   .     S
N627   H629    1.045   .     S
N627   H628    1.045   .     S
N627   C353    1.438   1_565 S
N630   H632    1.045   .     S
N630   H631    1.045   .     S
N633   H635    1.037   .     S
N633   N959    1.385   .     S
N633   H982    1.042   .     S
N636   H638    1.038   .     S
H637   N984    1.042   .     S
C639   O671    1.291   .     A
C639   C643    1.429   .     S
C639   O673    1.299   .     A
C640   O672    1.291   .     A
C640   C644    1.429   .     S
C640   O674    1.299   .     A
C641   C658    1.398   .     A
C641   H667    1.084   .     S
C642   C657    1.398   .     A
C642   H668    1.084   .     S
C642   C602    1.389   1_655 S
C644   C411    1.360   1_565 S
C644   N456    1.438   1_565 S
C645   O675    1.307   .     A
C645   C650    1.460   .     S
C645   O677    1.299   .     A
C646   O676    1.304   .     A
C646   C649    1.457   .     S
C646   O678    1.299   .     A
C647   C649    1.397   .     A
C647   H663    1.084   .     S
C647   C657    1.387   .     A
C648   H664    1.084   .     S
C648   C650    1.399   .     A
C648   C658    1.389   .     A
C649   C651    1.420   .     A
C650   C652    1.419   .     A
C651   N679    1.446   .     S
C651   C653    1.410   .     A
C652   N682    1.438   .     S
C652   C654    1.403   .     A
C653   C655    1.416   .     A
C653   C659    1.408   .     A
C654   C656    1.415   .     A
C654   C660    1.407   .     A
C655   C657    1.409   .     A
C655   C598    1.406   1_655 S
C656   C658    1.409   .     A
C659   H665    1.082   .     S
C659   C583    1.391   1_655 S
C660   H666    1.083   .     S
Cu661  Cu662   2.709   .     S
Cu661  N670    2.036   .     S
Cu661  O678    1.960   .     S
Cu661  O674    1.974   .     S
Cu661  O675    1.967   .     S
Cu661  O671    1.983   .     S
Cu662  O676    1.967   .     S
Cu662  N669    2.036   .     S
Cu662  O673    1.974   .     S
Cu662  O677    1.960   .     S
Cu662  O672    1.983   .     S
N670   N1017   1.294   .     S
N670   N1042   1.386   .     S
N679   H680    1.046   .     S
N679   H681    1.043   .     S
N682   H684    1.044   .     S
N682   H683    1.046   .     S
N685   H687    1.045   .     S
N685   H686    1.045   .     S
N685   C411    1.438   1_565 S
N688   H690    1.045   .     S
N688   H689    1.045   .     S
N691   H693    1.037   .     S
N691   N1017   1.385   .     S
N691   H1040   1.042   .     S
N694   H696    1.038   .     S
H695   N1042   1.042   .     S
C697   O729    1.291   .     A
C697   C701    1.429   .     S
C697   O731    1.299   .     A
C698   O730    1.291   .     A
C698   C702    1.429   .     S
C698   O732    1.299   .     A
C699   C716    1.398   .     A
C699   H725    1.084   .     S
C699   C775    1.391   1_455 S
C700   C715    1.398   .     A
C700   H726    1.084   .     S
C700   C776    1.389   .     S
C701   C934    1.360   1_545 S
C701   N975    1.438   1_545 S
C702   C817    1.360   .     S
C702   N862    1.438   .     S
C703   O733    1.307   .     A
C703   C708    1.460   .     S
C703   O735    1.299   .     A
C704   O734    1.304   .     A
C704   C707    1.457   .     S
C704   O736    1.299   .     A
C705   C707    1.397   .     A
C705   H721    1.084   .     S
C705   C715    1.387   .     A
C706   H722    1.084   .     S
C706   C708    1.399   .     A
C706   C716    1.389   .     A
C707   C709    1.420   .     A
C708   C710    1.419   .     A
C709   N737    1.446   .     S
C709   C711    1.410   .     A
C710   N740    1.438   .     S
C710   C712    1.403   .     A
C711   C713    1.416   .     A
C711   C717    1.408   .     A
C712   C714    1.415   .     A
C712   C718    1.407   .     A
C713   C715    1.409   .     A
C713   C772    1.406   .     S
C714   C716    1.409   .     A
C714   C771    1.406   1_455 S
C717   H723    1.082   .     S
C717   C757    1.391   .     S
C718   H724    1.083   .     S
C718   C758    1.389   1_455 S
Cu719  Cu720   2.709   .     S
Cu719  N728    2.036   .     S
Cu719  O736    1.960   .     S
Cu719  O732    1.974   .     S
Cu719  O733    1.967   .     S
Cu719  O729    1.983   .     S
Cu720  O734    1.967   .     S
Cu720  N727    2.036   .     S
Cu720  O731    1.974   .     S
Cu720  O735    1.960   .     S
Cu720  O730    1.983   .     S
N728   N31     1.294   1_556 S
N728   N56     1.386   1_556 S
N737   H738    1.046   .     S
N737   H739    1.043   .     S
N740   H742    1.044   .     S
N740   H741    1.046   .     S
N743   H745    1.045   .     S
N743   H744    1.045   .     S
N743   C817    1.438   .     S
N746   H748    1.045   .     S
N746   H747    1.045   .     S
N746   C934    1.438   1_545 S
N749   H751    1.037   .     S
N749   N31     1.385   1_556 S
N749   H54     1.042   1_556 S
N752   H754    1.038   .     S
H753   N56     1.042   1_556 S
C755   O787    1.291   .     A
C755   C759    1.429   .     S
C755   O789    1.299   .     A
C756   O788    1.291   .     A
C756   C760    1.429   .     S
C756   O790    1.299   .     A
C757   C774    1.398   .     A
C757   H783    1.084   .     S
C758   C773    1.398   .     A
C758   H784    1.084   .     S
C758   C718    1.389   1_655 S
C759   C992    1.360   1_545 S
C759   N1033   1.438   1_545 S
C760   C875    1.360   .     S
C760   N920    1.438   .     S
C761   O791    1.307   .     A
C761   C766    1.460   .     S
C761   O793    1.299   .     A
C762   O792    1.304   .     A
C762   C765    1.457   .     S
C762   O794    1.299   .     A
C763   C765    1.397   .     A
C763   H779    1.084   .     S
C763   C773    1.387   .     A
C764   H780    1.084   .     S
C764   C766    1.399   .     A
C764   C774    1.389   .     A
C765   C767    1.420   .     A
C766   C768    1.419   .     A
C767   N795    1.446   .     S
C767   C769    1.410   .     A
C768   N798    1.438   .     S
C768   C770    1.403   .     A
C769   C771    1.416   .     A
C769   C775    1.408   .     A
C770   C772    1.415   .     A
C770   C776    1.407   .     A
C771   C773    1.409   .     A
C771   C714    1.406   1_655 S
C772   C774    1.409   .     A
C775   H781    1.082   .     S
C775   C699    1.391   1_655 S
C776   H782    1.083   .     S
Cu777  Cu778   2.709   .     S
Cu777  N786    2.036   .     S
Cu777  O794    1.960   .     S
Cu777  O790    1.974   .     S
Cu777  O791    1.967   .     S
Cu777  O787    1.983   .     S
Cu778  O792    1.967   .     S
Cu778  N785    2.036   .     S
Cu778  O789    1.974   .     S
Cu778  O793    1.960   .     S
Cu778  O788    1.983   .     S
N786   N89     1.294   1_556 S
N786   N114    1.386   1_556 S
N795   H796    1.046   .     S
N795   H797    1.043   .     S
N798   H800    1.044   .     S
N798   H799    1.046   .     S
N801   H803    1.045   .     S
N801   H802    1.045   .     S
N801   C875    1.438   .     S
N804   H806    1.045   .     S
N804   H805    1.045   .     S
N804   C992    1.438   1_545 S
N807   H809    1.037   .     S
N807   N89     1.385   1_556 S
N807   H112    1.042   1_556 S
N810   H812    1.038   .     S
H811   N114    1.042   1_556 S
C813   O845    1.291   .     A
C813   C817    1.429   .     S
C813   O847    1.299   .     A
C814   O846    1.291   .     A
C814   C818    1.429   .     S
C814   O848    1.299   .     A
C815   C832    1.398   .     A
C815   H841    1.084   .     S
C815   C891    1.391   1_455 S
C816   C831    1.398   .     A
C816   H842    1.084   .     S
C816   C892    1.389   .     S
C818   C933    1.360   .     S
C818   N978    1.438   .     S
C819   O849    1.307   .     A
C819   C824    1.460   .     S
C819   O851    1.299   .     A
C820   O850    1.304   .     A
C820   C823    1.457   .     S
C820   O852    1.299   .     A
C821   C823    1.397   .     A
C821   H837    1.084   .     S
C821   C831    1.387   .     A
C822   H838    1.084   .     S
C822   C824    1.399   .     A
C822   C832    1.389   .     A
C823   C825    1.420   .     A
C824   C826    1.419   .     A
C825   N853    1.446   .     S
C825   C827    1.410   .     A
C826   N856    1.438   .     S
C826   C828    1.403   .     A
C827   C829    1.416   .     A
C827   C833    1.408   .     A
C828   C830    1.415   .     A
C828   C834    1.407   .     A
C829   C831    1.409   .     A
C829   C888    1.406   .     S
C830   C832    1.409   .     A
C830   C887    1.406   1_455 S
C833   H839    1.082   .     S
C833   C873    1.391   .     S
C834   H840    1.083   .     S
C834   C874    1.389   1_455 S
Cu835  Cu836   2.709   .     S
Cu835  N844    2.036   .     S
Cu835  O852    1.960   .     S
Cu835  O848    1.974   .     S
Cu835  O849    1.967   .     S
Cu835  O845    1.983   .     S
Cu836  O850    1.967   .     S
Cu836  N843    2.036   .     S
Cu836  O847    1.974   .     S
Cu836  O851    1.960   .     S
Cu836  O846    1.983   .     S
N844   N147    1.294   1_556 S
N844   N172    1.386   1_556 S
N853   H854    1.046   .     S
N853   H855    1.043   .     S
N856   H858    1.044   .     S
N856   H857    1.046   .     S
N859   H861    1.045   .     S
N859   H860    1.045   .     S
N859   C933    1.438   .     S
N862   H864    1.045   .     S
N862   H863    1.045   .     S
N865   H867    1.037   .     S
N865   N147    1.385   1_556 S
N865   H170    1.042   1_556 S
N868   H870    1.038   .     S
H869   N172    1.042   1_556 S
C871   O903    1.291   .     A
C871   C875    1.429   .     S
C871   O905    1.299   .     A
C872   O904    1.291   .     A
C872   C876    1.429   .     S
C872   O906    1.299   .     A
C873   C890    1.398   .     A
C873   H899    1.084   .     S
C874   C889    1.398   .     A
C874   H900    1.084   .     S
C874   C834    1.389   1_655 S
C876   C991    1.360   .     S
C876   N1036   1.438   .     S
C877   O907    1.307   .     A
C877   C882    1.460   .     S
C877   O909    1.299   .     A
C878   O908    1.304   .     A
C878   C881    1.457   .     S
C878   O910    1.299   .     A
C879   C881    1.397   .     A
C879   H895    1.084   .     S
C879   C889    1.387   .     A
C880   H896    1.084   .     S
C880   C882    1.399   .     A
C880   C890    1.389   .     A
C881   C883    1.420   .     A
C882   C884    1.419   .     A
C883   N911    1.446   .     S
C883   C885    1.410   .     A
C884   N914    1.438   .     S
C884   C886    1.403   .     A
C885   C887    1.416   .     A
C885   C891    1.408   .     A
C886   C888    1.415   .     A
C886   C892    1.407   .     A
C887   C889    1.409   .     A
C887   C830    1.406   1_655 S
C888   C890    1.409   .     A
C891   H897    1.082   .     S
C891   C815    1.391   1_655 S
C892   H898    1.083   .     S
Cu893  Cu894   2.709   .     S
Cu893  N902    2.036   .     S
Cu893  O910    1.960   .     S
Cu893  O906    1.974   .     S
Cu893  O907    1.967   .     S
Cu893  O903    1.983   .     S
Cu894  O908    1.967   .     S
Cu894  N901    2.036   .     S
Cu894  O905    1.974   .     S
Cu894  O909    1.960   .     S
Cu894  O904    1.983   .     S
N902   N205    1.294   1_556 S
N902   N230    1.386   1_556 S
N911   H912    1.046   .     S
N911   H913    1.043   .     S
N914   H916    1.044   .     S
N914   H915    1.046   .     S
N917   H919    1.045   .     S
N917   H918    1.045   .     S
N917   C991    1.438   .     S
N920   H922    1.045   .     S
N920   H921    1.045   .     S
N923   H925    1.037   .     S
N923   N205    1.385   1_556 S
N923   H228    1.042   1_556 S
N926   H928    1.038   .     S
H927   N230    1.042   1_556 S
C929   O961    1.291   .     A
C929   C933    1.429   .     S
C929   O963    1.299   .     A
C930   O962    1.291   .     A
C930   C934    1.429   .     S
C930   O964    1.299   .     A
C931   C948    1.398   .     A
C931   H957    1.084   .     S
C931   C1007   1.391   1_455 S
C932   C947    1.398   .     A
C932   H958    1.084   .     S
C932   C1008   1.389   .     S
C934   C701    1.360   1_565 S
C934   N746    1.438   1_565 S
C935   O965    1.307   .     A
C935   C940    1.460   .     S
C935   O967    1.299   .     A
C936   O966    1.304   .     A
C936   C939    1.457   .     S
C936   O968    1.299   .     A
C937   C939    1.397   .     A
C937   H953    1.084   .     S
C937   C947    1.387   .     A
C938   H954    1.084   .     S
C938   C940    1.399   .     A
C938   C948    1.389   .     A
C939   C941    1.420   .     A
C940   C942    1.419   .     A
C941   N969    1.446   .     S
C941   C943    1.410   .     A
C942   N972    1.438   .     S
C942   C944    1.403   .     A
C943   C945    1.416   .     A
C943   C949    1.408   .     A
C944   C946    1.415   .     A
C944   C950    1.407   .     A
C945   C947    1.409   .     A
C945   C1004   1.406   .     S
C946   C948    1.409   .     A
C946   C1003   1.406   1_455 S
C949   H955    1.082   .     S
C949   C989    1.391   .     S
C950   H956    1.083   .     S
C950   C990    1.389   1_455 S
Cu951  Cu952   2.709   .     S
Cu951  N960    2.036   .     S
Cu951  O968    1.960   .     S
Cu951  O964    1.974   .     S
Cu951  O965    1.967   .     S
Cu951  O961    1.983   .     S
Cu952  O966    1.967   .     S
Cu952  N959    2.036   .     S
Cu952  O963    1.974   .     S
Cu952  O967    1.960   .     S
Cu952  O962    1.983   .     S
N960   N263    1.294   1_556 S
N960   N288    1.386   1_556 S
N969   H970    1.046   .     S
N969   H971    1.043   .     S
N972   H974    1.044   .     S
N972   H973    1.046   .     S
N975   H977    1.045   .     S
N975   H976    1.045   .     S
N975   C701    1.438   1_565 S
N978   H980    1.045   .     S
N978   H979    1.045   .     S
N981   H983    1.037   .     S
N981   N263    1.385   1_556 S
N981   H286    1.042   1_556 S
N984   H986    1.038   .     S
H985   N288    1.042   1_556 S
C987   O1019   1.291   .     A
C987   C991    1.429   .     S
C987   O1021   1.299   .     A
C988   O1020   1.291   .     A
C988   C992    1.429   .     S
C988   O1022   1.299   .     A
C989   C1006   1.398   .     A
C989   H1015   1.084   .     S
C990   C1005   1.398   .     A
C990   H1016   1.084   .     S
C990   C950    1.389   1_655 S
C992   C759    1.360   1_565 S
C992   N804    1.438   1_565 S
C993   O1023   1.307   .     A
C993   C998    1.460   .     S
C993   O1025   1.299   .     A
C994   O1024   1.304   .     A
C994   C997    1.457   .     S
C994   O1026   1.299   .     A
C995   C997    1.397   .     A
C995   H1011   1.084   .     S
C995   C1005   1.387   .     A
C996   H1012   1.084   .     S
C996   C998    1.399   .     A
C996   C1006   1.389   .     A
C997   C999    1.420   .     A
C998   C1000   1.419   .     A
C999   N1027   1.446   .     S
C999   C1001   1.410   .     A
C1000  N1030   1.438   .     S
C1000  C1002   1.403   .     A
C1001  C1003   1.416   .     A
C1001  C1007   1.408   .     A
C1002  C1004   1.415   .     A
C1002  C1008   1.407   .     A
C1003  C1005   1.409   .     A
C1003  C946    1.406   1_655 S
C1004  C1006   1.409   .     A
C1007  H1013   1.082   .     S
C1007  C931    1.391   1_655 S
C1008  H1014   1.083   .     S
Cu1009 Cu1010  2.709   .     S
Cu1009 N1018   2.036   .     S
Cu1009 O1026   1.960   .     S
Cu1009 O1022   1.974   .     S
Cu1009 O1023   1.967   .     S
Cu1009 O1019   1.983   .     S
Cu1010 O1024   1.967   .     S
Cu1010 N1017   2.036   .     S
Cu1010 O1021   1.974   .     S
Cu1010 O1025   1.960   .     S
Cu1010 O1020   1.983   .     S
N1018  N321    1.294   1_556 S
N1018  N346    1.386   1_556 S
N1027  H1028   1.046   .     S
N1027  H1029   1.043   .     S
N1030  H1032   1.044   .     S
N1030  H1031   1.046   .     S
N1033  H1035   1.045   .     S
N1033  H1034   1.045   .     S
N1033  C759    1.438   1_565 S
N1036  H1038   1.045   .     S
N1036  H1037   1.045   .     S
N1039  H1041   1.037   .     S
N1039  N321    1.385   1_556 S
N1039  H344    1.042   1_556 S
N1042  H1044   1.038   .     S
H1043  N346    1.042   1_556 S
