data_str_m2_o1_o5_pcu_sym.3
_audit_creation_date              2020-01-03
_audit_creation_method            'Materials Studio'
_symmetry_space_group_name_H-M    'P1'
_symmetry_Int_Tables_number       1
_symmetry_cell_setting            triclinic
loop_
_symmetry_equiv_pos_as_xyz
  x,y,z
_cell_length_a                    32.2489
_cell_length_b                    29.2476
_cell_length_c                    27.0863
_cell_angle_alpha                 88.9918
_cell_angle_beta                  94.5407
_cell_angle_gamma                 92.3821
loop_
_atom_site_label
_atom_site_type_symbol
_atom_site_fract_x
_atom_site_fract_y
_atom_site_fract_z
_atom_site_U_iso_or_equiv
_atom_site_adp_type
_atom_site_occupancy
C1     C     0.08768   0.16587   0.16572   0.00000  Uiso   1.00
C2     C     0.01896   0.18010   0.12281   0.00000  Uiso   1.00
C3     C     0.29056   0.16879   0.16792   0.00000  Uiso   1.00
C4     C     0.04275   0.16406   0.16510   0.00000  Uiso   1.00
C5     C     0.13794   0.02388   0.13644   0.00000  Uiso   1.00
C6     C     0.19756   0.31043   0.19275   0.00000  Uiso   1.00
C7     C     0.19330   0.02513   0.19872   0.00000  Uiso   1.00
C8     C     0.13939   0.30794   0.13456   0.00000  Uiso   1.00
C9     C     0.05084   0.13185   0.25135   0.00000  Uiso   1.00
C10    C     0.28235   0.19729   0.07971   0.00000  Uiso   1.00
C11    C     0.29462   0.13825   0.25641   0.00000  Uiso   1.00
C12    C     0.24565   0.16740   0.16740   0.00000  Uiso   1.00
C13    C     0.03901   0.19382   0.07685   0.00000  Uiso   1.00
C14    C     0.10103   0.04648   0.10840   0.00000  Uiso   1.00
C15    C     0.06109   0.03860   0.13582   0.00000  Uiso   1.00
C16    C     0.02266   0.05366   0.10414   0.00000  Uiso   1.00
C17    C     0.24238   0.29552   0.19915   0.00000  Uiso   1.00
C18    C     0.25399   0.27175   0.24912   0.00000  Uiso   1.00
C19    C     0.30099   0.26674   0.25750   0.00000  Uiso   1.00
C20    C     0.21655   0.04749   0.24385   0.00000  Uiso   1.00
C21    C     0.19297   0.03853   0.29041   0.00000  Uiso   1.00
C22    C     0.21772   0.05750   0.00320   0.00000  Uiso   1.00
C23    C     0.16667   0.16690   0.07379   0.00000  Uiso   1.00
C24    C     0.11475   0.28403   0.09117   0.00000  Uiso   1.00
C25    C     0.13587   0.29215   0.04243   0.00000  Uiso   1.00
C26    C     0.10904   0.27251   0.33153   0.00000  Uiso   1.00
C27    C     0.16680   0.16644   0.25955   0.00000  Uiso   1.00
C28    C     0.16677   0.16701   0.02194   0.00000  Uiso   1.00
C29    C     0.16680   0.16638   0.31142   0.00000  Uiso   1.00
C30    C     0.02412   0.14822   0.20782   0.00000  Uiso   1.00
C31    C     0.30903   0.18263   0.12428   0.00000  Uiso   1.00
C32    C     0.31426   0.15118   0.20975   0.00000  Uiso   1.00
Cu33   Cu    0.16667   0.21355   0.16667   0.00000  Uiso   1.00
Cu34   Cu    0.16667   0.11978   0.16667   0.00000  Uiso   1.00
H35    H     0.07749   0.15281   0.26562   0.00000  Uiso   1.00
H36    H     0.10674   0.08273   0.10064   0.00000  Uiso   1.00
H37    H     0.09534   0.03383   0.07020   0.00000  Uiso   1.00
H38    H     0.31286   0.24863   0.22618   0.00000  Uiso   1.00
H39    H     0.31710   0.30098   0.26095   0.00000  Uiso   1.00
H40    H     0.30834   0.24692   0.29221   0.00000  Uiso   1.00
H41    H     0.24384   0.29168   0.28008   0.00000  Uiso   1.00
H42    H     0.23831   0.23765   0.25082   0.00000  Uiso   1.00
H43    H     0.25068   0.27719   0.16651   0.00000  Uiso   1.00
H44    H     0.26416   0.32556   0.19519   0.00000  Uiso   1.00
H45    H     0.24711   0.03915   0.01051   0.00000  Uiso   1.00
H46    H     0.25599   0.21839   0.08358   0.00000  Uiso   1.00
H47    H     0.22536   0.09455   0.33161   0.00000  Uiso   1.00
H48    H     0.19914   0.05283   0.03584   0.00000  Uiso   1.00
H49    H     0.16211   0.05420   0.28611   0.00000  Uiso   1.00
H50    H     0.18732   0.00117   0.29590   0.00000  Uiso   1.00
H51    H     0.24841   0.03533   0.25158   0.00000  Uiso   1.00
H52    H     0.22262   0.08396   0.23825   0.00000  Uiso   1.00
H53    H     0.10308   0.23519   0.00337   0.00000  Uiso   1.00
H54    H     0.07883   0.28963   0.32701   0.00000  Uiso   1.00
H55    H     0.12535   0.27822   0.29722   0.00000  Uiso   1.00
H56    H     0.14180   0.32913   0.03532   0.00000  Uiso   1.00
H57    H     0.30700   0.11162   0.28086   0.00000  Uiso   1.00
H58    H     0.16670   0.27642   0.04480   0.00000  Uiso   1.00
H59    H     0.11004   0.24760   0.09695   0.00000  Uiso   1.00
H60    H     0.08218   0.29482   0.08667   0.00000  Uiso   1.00
H61    H     0.02819   0.22298   0.05488   0.00000  Uiso   1.00
H62    H     0.02700   0.08963   0.09143   0.00000  Uiso   1.00
H63    H     0.01686   0.03144   0.07126   0.00000  Uiso   1.00
H64    H     0.32837   0.05087   0.12620   0.00000  Uiso   1.00
H65    H     0.05620   0.00193   0.14588   0.00000  Uiso   1.00
H66    H     0.06374   0.05739   0.17118   0.00000  Uiso   1.00
N67    N     0.16667   0.28402   0.16667   0.00000  Uiso   1.00
N68    N     0.16667   0.04931   0.16667   0.00000  Uiso   1.00
O69    O     0.10655   0.20625   0.16666   0.00000  Uiso   1.00
O70    O     0.28865   0.18452   0.03842   0.00000  Uiso   1.00
O71    O     0.26467   0.15801   0.26887   0.00000  Uiso   1.00
O72    O     0.06680   0.17171   0.06226   0.00000  Uiso   1.00
O73    O     0.22679   0.12709   0.16667   0.00000  Uiso   1.00
O74    O     0.22679   0.20625   0.16667   0.00000  Uiso   1.00
O75    O     0.10655   0.12709   0.16666   0.00000  Uiso   1.00
O76    O     0.16667   0.20625   0.09613   0.00000  Uiso   1.00
O77    O     0.16667   0.12708   0.23720   0.00000  Uiso   1.00
O78    O     0.16667   0.20625   0.23720   0.00000  Uiso   1.00
O79    O     0.16667   0.12708   0.09613   0.00000  Uiso   1.00
O80    O     0.04459   0.09405   0.26975   0.00000  Uiso   1.00
C81    C     0.42102   0.16587   0.16572   0.00000  Uiso   1.00
C82    C     0.35229   0.18010   0.12281   0.00000  Uiso   1.00
C83    C     0.62389   0.16879   0.16792   0.00000  Uiso   1.00
C84    C     0.37609   0.16406   0.16510   0.00000  Uiso   1.00
C85    C     0.47127   0.02388   0.13644   0.00000  Uiso   1.00
C86    C     0.53089   0.31043   0.19275   0.00000  Uiso   1.00
C87    C     0.52663   0.02513   0.19872   0.00000  Uiso   1.00
C88    C     0.47272   0.30794   0.13456   0.00000  Uiso   1.00
C89    C     0.38418   0.13185   0.25135   0.00000  Uiso   1.00
C90    C     0.61568   0.19729   0.07971   0.00000  Uiso   1.00
C91    C     0.62796   0.13825   0.25641   0.00000  Uiso   1.00
C92    C     0.57898   0.16740   0.16740   0.00000  Uiso   1.00
C93    C     0.37234   0.19382   0.07685   0.00000  Uiso   1.00
C94    C     0.43436   0.04648   0.10840   0.00000  Uiso   1.00
C95    C     0.39442   0.03860   0.13582   0.00000  Uiso   1.00
C96    C     0.35599   0.05366   0.10414   0.00000  Uiso   1.00
C97    C     0.57571   0.29552   0.19915   0.00000  Uiso   1.00
C98    C     0.58732   0.27175   0.24912   0.00000  Uiso   1.00
C99    C     0.63433   0.26674   0.25750   0.00000  Uiso   1.00
C100   C     0.54989   0.04749   0.24385   0.00000  Uiso   1.00
C101   C     0.52630   0.03853   0.29041   0.00000  Uiso   1.00
C102   C     0.55105   0.05750   0.00320   0.00000  Uiso   1.00
C103   C     0.50000   0.16690   0.07379   0.00000  Uiso   1.00
C104   C     0.44808   0.28403   0.09117   0.00000  Uiso   1.00
C105   C     0.46921   0.29215   0.04243   0.00000  Uiso   1.00
C106   C     0.44237   0.27251   0.33153   0.00000  Uiso   1.00
C107   C     0.50014   0.16644   0.25955   0.00000  Uiso   1.00
C108   C     0.50010   0.16701   0.02194   0.00000  Uiso   1.00
C109   C     0.50013   0.16638   0.31142   0.00000  Uiso   1.00
C110   C     0.35745   0.14822   0.20782   0.00000  Uiso   1.00
C111   C     0.64237   0.18263   0.12428   0.00000  Uiso   1.00
C112   C     0.64760   0.15118   0.20975   0.00000  Uiso   1.00
Cu113  Cu    0.50000   0.21355   0.16667   0.00000  Uiso   1.00
Cu114  Cu    0.50000   0.11978   0.16667   0.00000  Uiso   1.00
H115   H     0.41083   0.15281   0.26562   0.00000  Uiso   1.00
H116   H     0.44007   0.08273   0.10064   0.00000  Uiso   1.00
H117   H     0.42868   0.03383   0.07020   0.00000  Uiso   1.00
H118   H     0.64619   0.24863   0.22618   0.00000  Uiso   1.00
H119   H     0.65044   0.30098   0.26095   0.00000  Uiso   1.00
H120   H     0.64168   0.24692   0.29221   0.00000  Uiso   1.00
H121   H     0.57717   0.29168   0.28008   0.00000  Uiso   1.00
H122   H     0.57165   0.23765   0.25082   0.00000  Uiso   1.00
H123   H     0.58401   0.27719   0.16651   0.00000  Uiso   1.00
H124   H     0.59749   0.32556   0.19519   0.00000  Uiso   1.00
H125   H     0.58044   0.03915   0.01051   0.00000  Uiso   1.00
H126   H     0.58932   0.21839   0.08358   0.00000  Uiso   1.00
H127   H     0.55869   0.09455   0.33161   0.00000  Uiso   1.00
H128   H     0.53248   0.05283   0.03584   0.00000  Uiso   1.00
H129   H     0.49544   0.05420   0.28611   0.00000  Uiso   1.00
H130   H     0.52065   0.00117   0.29590   0.00000  Uiso   1.00
H131   H     0.58174   0.03533   0.25158   0.00000  Uiso   1.00
H132   H     0.55596   0.08396   0.23825   0.00000  Uiso   1.00
H133   H     0.43641   0.23519   0.00337   0.00000  Uiso   1.00
H134   H     0.41216   0.28963   0.32701   0.00000  Uiso   1.00
H135   H     0.45868   0.27822   0.29722   0.00000  Uiso   1.00
H136   H     0.47514   0.32913   0.03532   0.00000  Uiso   1.00
H137   H     0.64033   0.11162   0.28086   0.00000  Uiso   1.00
H138   H     0.50003   0.27642   0.04480   0.00000  Uiso   1.00
H139   H     0.44337   0.24760   0.09695   0.00000  Uiso   1.00
H140   H     0.41552   0.29482   0.08667   0.00000  Uiso   1.00
H141   H     0.36152   0.22298   0.05488   0.00000  Uiso   1.00
H142   H     0.36033   0.08963   0.09143   0.00000  Uiso   1.00
H143   H     0.35019   0.03144   0.07126   0.00000  Uiso   1.00
H144   H     0.66170   0.05087   0.12620   0.00000  Uiso   1.00
H145   H     0.38954   0.00193   0.14588   0.00000  Uiso   1.00
H146   H     0.39708   0.05739   0.17118   0.00000  Uiso   1.00
N147   N     0.50000   0.28402   0.16667   0.00000  Uiso   1.00
N148   N     0.50000   0.04931   0.16667   0.00000  Uiso   1.00
O149   O     0.43988   0.20625   0.16666   0.00000  Uiso   1.00
O150   O     0.62198   0.18452   0.03842   0.00000  Uiso   1.00
O151   O     0.59800   0.15801   0.26887   0.00000  Uiso   1.00
O152   O     0.40013   0.17171   0.06226   0.00000  Uiso   1.00
O153   O     0.56012   0.12709   0.16667   0.00000  Uiso   1.00
O154   O     0.56012   0.20625   0.16667   0.00000  Uiso   1.00
O155   O     0.43988   0.12709   0.16666   0.00000  Uiso   1.00
O156   O     0.50000   0.20625   0.09613   0.00000  Uiso   1.00
O157   O     0.50000   0.12708   0.23720   0.00000  Uiso   1.00
O158   O     0.50000   0.20625   0.23720   0.00000  Uiso   1.00
O159   O     0.50000   0.12708   0.09613   0.00000  Uiso   1.00
O160   O     0.37792   0.09405   0.26975   0.00000  Uiso   1.00
C161   C     0.75435   0.16587   0.16572   0.00000  Uiso   1.00
C162   C     0.68562   0.18010   0.12281   0.00000  Uiso   1.00
C163   C     0.95723   0.16879   0.16792   0.00000  Uiso   1.00
C164   C     0.70942   0.16406   0.16510   0.00000  Uiso   1.00
C165   C     0.80461   0.02388   0.13644   0.00000  Uiso   1.00
C166   C     0.86423   0.31043   0.19275   0.00000  Uiso   1.00
C167   C     0.85996   0.02513   0.19872   0.00000  Uiso   1.00
C168   C     0.80605   0.30794   0.13456   0.00000  Uiso   1.00
C169   C     0.71751   0.13185   0.25135   0.00000  Uiso   1.00
C170   C     0.94902   0.19729   0.07971   0.00000  Uiso   1.00
C171   C     0.96129   0.13825   0.25641   0.00000  Uiso   1.00
C172   C     0.91231   0.16740   0.16740   0.00000  Uiso   1.00
C173   C     0.70568   0.19382   0.07685   0.00000  Uiso   1.00
C174   C     0.76770   0.04648   0.10840   0.00000  Uiso   1.00
C175   C     0.72776   0.03860   0.13582   0.00000  Uiso   1.00
C176   C     0.68933   0.05366   0.10414   0.00000  Uiso   1.00
C177   C     0.90905   0.29552   0.19915   0.00000  Uiso   1.00
C178   C     0.92066   0.27175   0.24912   0.00000  Uiso   1.00
C179   C     0.96766   0.26674   0.25750   0.00000  Uiso   1.00
C180   C     0.88322   0.04749   0.24385   0.00000  Uiso   1.00
C181   C     0.85964   0.03853   0.29041   0.00000  Uiso   1.00
C182   C     0.88439   0.05750   0.00320   0.00000  Uiso   1.00
C183   C     0.83333   0.16690   0.07379   0.00000  Uiso   1.00
C184   C     0.78141   0.28403   0.09117   0.00000  Uiso   1.00
C185   C     0.80254   0.29215   0.04243   0.00000  Uiso   1.00
C186   C     0.77571   0.27251   0.33153   0.00000  Uiso   1.00
C187   C     0.83347   0.16644   0.25955   0.00000  Uiso   1.00
C188   C     0.83344   0.16701   0.02194   0.00000  Uiso   1.00
C189   C     0.83347   0.16638   0.31142   0.00000  Uiso   1.00
C190   C     0.69078   0.14822   0.20782   0.00000  Uiso   1.00
C191   C     0.97570   0.18263   0.12428   0.00000  Uiso   1.00
C192   C     0.98093   0.15118   0.20975   0.00000  Uiso   1.00
Cu193  Cu    0.83333   0.21355   0.16667   0.00000  Uiso   1.00
Cu194  Cu    0.83333   0.11978   0.16667   0.00000  Uiso   1.00
H195   H     0.74416   0.15281   0.26562   0.00000  Uiso   1.00
H196   H     0.77340   0.08273   0.10064   0.00000  Uiso   1.00
H197   H     0.76201   0.03383   0.07020   0.00000  Uiso   1.00
H198   H     0.97953   0.24863   0.22618   0.00000  Uiso   1.00
H199   H     0.98377   0.30098   0.26095   0.00000  Uiso   1.00
H200   H     0.97501   0.24692   0.29221   0.00000  Uiso   1.00
H201   H     0.91051   0.29168   0.28008   0.00000  Uiso   1.00
H202   H     0.90498   0.23765   0.25082   0.00000  Uiso   1.00
H203   H     0.91735   0.27719   0.16651   0.00000  Uiso   1.00
H204   H     0.93083   0.32556   0.19519   0.00000  Uiso   1.00
H205   H     0.91377   0.03915   0.01051   0.00000  Uiso   1.00
H206   H     0.92265   0.21839   0.08358   0.00000  Uiso   1.00
H207   H     0.89203   0.09455   0.33161   0.00000  Uiso   1.00
H208   H     0.86581   0.05283   0.03584   0.00000  Uiso   1.00
H209   H     0.82877   0.05420   0.28611   0.00000  Uiso   1.00
H210   H     0.85399   0.00117   0.29590   0.00000  Uiso   1.00
H211   H     0.91508   0.03533   0.25158   0.00000  Uiso   1.00
H212   H     0.88929   0.08396   0.23825   0.00000  Uiso   1.00
H213   H     0.76975   0.23519   0.00337   0.00000  Uiso   1.00
H214   H     0.74550   0.28963   0.32701   0.00000  Uiso   1.00
H215   H     0.79202   0.27822   0.29722   0.00000  Uiso   1.00
H216   H     0.80847   0.32913   0.03532   0.00000  Uiso   1.00
H217   H     0.97367   0.11162   0.28086   0.00000  Uiso   1.00
H218   H     0.83336   0.27642   0.04480   0.00000  Uiso   1.00
H219   H     0.77671   0.24760   0.09695   0.00000  Uiso   1.00
H220   H     0.74885   0.29482   0.08667   0.00000  Uiso   1.00
H221   H     0.69485   0.22298   0.05488   0.00000  Uiso   1.00
H222   H     0.69367   0.08963   0.09143   0.00000  Uiso   1.00
H223   H     0.68352   0.03144   0.07126   0.00000  Uiso   1.00
H224   H     0.99503   0.05087   0.12620   0.00000  Uiso   1.00
H225   H     0.72287   0.00193   0.14588   0.00000  Uiso   1.00
H226   H     0.73041   0.05739   0.17118   0.00000  Uiso   1.00
N227   N     0.83333   0.28402   0.16667   0.00000  Uiso   1.00
N228   N     0.83333   0.04931   0.16667   0.00000  Uiso   1.00
O229   O     0.77321   0.20625   0.16666   0.00000  Uiso   1.00
O230   O     0.95532   0.18452   0.03842   0.00000  Uiso   1.00
O231   O     0.93134   0.15801   0.26887   0.00000  Uiso   1.00
O232   O     0.73346   0.17171   0.06226   0.00000  Uiso   1.00
O233   O     0.89345   0.12709   0.16667   0.00000  Uiso   1.00
O234   O     0.89345   0.20625   0.16667   0.00000  Uiso   1.00
O235   O     0.77321   0.12709   0.16666   0.00000  Uiso   1.00
O236   O     0.83333   0.20625   0.09613   0.00000  Uiso   1.00
O237   O     0.83333   0.12708   0.23720   0.00000  Uiso   1.00
O238   O     0.83333   0.20625   0.23720   0.00000  Uiso   1.00
O239   O     0.83333   0.12708   0.09613   0.00000  Uiso   1.00
O240   O     0.71125   0.09405   0.26975   0.00000  Uiso   1.00
C241   C     0.08768   0.49920   0.16572   0.00000  Uiso   1.00
C242   C     0.01896   0.51344   0.12281   0.00000  Uiso   1.00
C243   C     0.29056   0.50213   0.16792   0.00000  Uiso   1.00
C244   C     0.04275   0.49739   0.16510   0.00000  Uiso   1.00
C245   C     0.13794   0.35721   0.13644   0.00000  Uiso   1.00
C246   C     0.19756   0.64377   0.19275   0.00000  Uiso   1.00
C247   C     0.19330   0.35847   0.19872   0.00000  Uiso   1.00
C248   C     0.13939   0.64128   0.13456   0.00000  Uiso   1.00
C249   C     0.05084   0.46519   0.25135   0.00000  Uiso   1.00
C250   C     0.28235   0.53063   0.07971   0.00000  Uiso   1.00
C251   C     0.29462   0.47158   0.25641   0.00000  Uiso   1.00
C252   C     0.24565   0.50074   0.16740   0.00000  Uiso   1.00
C253   C     0.03901   0.52715   0.07685   0.00000  Uiso   1.00
C254   C     0.10103   0.37981   0.10840   0.00000  Uiso   1.00
C255   C     0.06109   0.37194   0.13582   0.00000  Uiso   1.00
C256   C     0.02266   0.38699   0.10414   0.00000  Uiso   1.00
C257   C     0.24238   0.62885   0.19915   0.00000  Uiso   1.00
C258   C     0.25399   0.60508   0.24912   0.00000  Uiso   1.00
C259   C     0.30099   0.60007   0.25750   0.00000  Uiso   1.00
C260   C     0.21655   0.38083   0.24385   0.00000  Uiso   1.00
C261   C     0.19297   0.37186   0.29041   0.00000  Uiso   1.00
C262   C     0.21772   0.39083   0.00320   0.00000  Uiso   1.00
C263   C     0.16667   0.50024   0.07379   0.00000  Uiso   1.00
C264   C     0.11475   0.61736   0.09117   0.00000  Uiso   1.00
C265   C     0.13587   0.62548   0.04243   0.00000  Uiso   1.00
C266   C     0.10904   0.60585   0.33153   0.00000  Uiso   1.00
C267   C     0.16680   0.49978   0.25955   0.00000  Uiso   1.00
C268   C     0.16677   0.50034   0.02194   0.00000  Uiso   1.00
C269   C     0.16680   0.49971   0.31142   0.00000  Uiso   1.00
C270   C     0.02412   0.48156   0.20782   0.00000  Uiso   1.00
C271   C     0.30903   0.51597   0.12428   0.00000  Uiso   1.00
C272   C     0.31426   0.48451   0.20975   0.00000  Uiso   1.00
Cu273  Cu    0.16667   0.54689   0.16667   0.00000  Uiso   1.00
Cu274  Cu    0.16667   0.45311   0.16667   0.00000  Uiso   1.00
H275   H     0.07749   0.48614   0.26562   0.00000  Uiso   1.00
H276   H     0.10674   0.41607   0.10064   0.00000  Uiso   1.00
H277   H     0.09534   0.36716   0.07020   0.00000  Uiso   1.00
H278   H     0.31286   0.58196   0.22618   0.00000  Uiso   1.00
H279   H     0.31710   0.63432   0.26095   0.00000  Uiso   1.00
H280   H     0.30834   0.58026   0.29221   0.00000  Uiso   1.00
H281   H     0.24384   0.62501   0.28008   0.00000  Uiso   1.00
H282   H     0.23831   0.57098   0.25082   0.00000  Uiso   1.00
H283   H     0.25068   0.61052   0.16651   0.00000  Uiso   1.00
H284   H     0.26416   0.65889   0.19519   0.00000  Uiso   1.00
H285   H     0.24711   0.37249   0.01051   0.00000  Uiso   1.00
H286   H     0.25599   0.55172   0.08358   0.00000  Uiso   1.00
H287   H     0.22536   0.42788   0.33161   0.00000  Uiso   1.00
H288   H     0.19914   0.38616   0.03584   0.00000  Uiso   1.00
H289   H     0.16211   0.38753   0.28611   0.00000  Uiso   1.00
H290   H     0.18732   0.33450   0.29590   0.00000  Uiso   1.00
H291   H     0.24841   0.36866   0.25158   0.00000  Uiso   1.00
H292   H     0.22262   0.41729   0.23825   0.00000  Uiso   1.00
H293   H     0.10308   0.56852   0.00337   0.00000  Uiso   1.00
H294   H     0.07883   0.62296   0.32701   0.00000  Uiso   1.00
H295   H     0.12535   0.61156   0.29722   0.00000  Uiso   1.00
H296   H     0.14180   0.66246   0.03532   0.00000  Uiso   1.00
H297   H     0.30700   0.44495   0.28086   0.00000  Uiso   1.00
H298   H     0.16670   0.60975   0.04480   0.00000  Uiso   1.00
H299   H     0.11004   0.58093   0.09695   0.00000  Uiso   1.00
H300   H     0.08218   0.62815   0.08667   0.00000  Uiso   1.00
H301   H     0.02819   0.55631   0.05488   0.00000  Uiso   1.00
H302   H     0.02700   0.42296   0.09143   0.00000  Uiso   1.00
H303   H     0.01686   0.36477   0.07126   0.00000  Uiso   1.00
H304   H     0.32837   0.38420   0.12620   0.00000  Uiso   1.00
H305   H     0.05620   0.33526   0.14588   0.00000  Uiso   1.00
H306   H     0.06374   0.39072   0.17118   0.00000  Uiso   1.00
N307   N     0.16667   0.61736   0.16667   0.00000  Uiso   1.00
N308   N     0.16667   0.38264   0.16667   0.00000  Uiso   1.00
O309   O     0.10655   0.53958   0.16666   0.00000  Uiso   1.00
O310   O     0.28865   0.51785   0.03842   0.00000  Uiso   1.00
O311   O     0.26467   0.49135   0.26887   0.00000  Uiso   1.00
O312   O     0.06680   0.50504   0.06226   0.00000  Uiso   1.00
O313   O     0.22679   0.46042   0.16667   0.00000  Uiso   1.00
O314   O     0.22679   0.53958   0.16667   0.00000  Uiso   1.00
O315   O     0.10655   0.46042   0.16666   0.00000  Uiso   1.00
O316   O     0.16667   0.53959   0.09613   0.00000  Uiso   1.00
O317   O     0.16667   0.46041   0.23720   0.00000  Uiso   1.00
O318   O     0.16667   0.53959   0.23720   0.00000  Uiso   1.00
O319   O     0.16667   0.46041   0.09613   0.00000  Uiso   1.00
O320   O     0.04459   0.42738   0.26975   0.00000  Uiso   1.00
C321   C     0.42102   0.49920   0.16572   0.00000  Uiso   1.00
C322   C     0.35229   0.51344   0.12281   0.00000  Uiso   1.00
C323   C     0.62389   0.50213   0.16792   0.00000  Uiso   1.00
C324   C     0.37609   0.49739   0.16510   0.00000  Uiso   1.00
C325   C     0.47127   0.35721   0.13644   0.00000  Uiso   1.00
C326   C     0.53089   0.64377   0.19275   0.00000  Uiso   1.00
C327   C     0.52663   0.35847   0.19872   0.00000  Uiso   1.00
C328   C     0.47272   0.64128   0.13456   0.00000  Uiso   1.00
C329   C     0.38418   0.46519   0.25135   0.00000  Uiso   1.00
C330   C     0.61568   0.53063   0.07971   0.00000  Uiso   1.00
C331   C     0.62796   0.47158   0.25641   0.00000  Uiso   1.00
C332   C     0.57898   0.50074   0.16740   0.00000  Uiso   1.00
C333   C     0.37234   0.52715   0.07685   0.00000  Uiso   1.00
C334   C     0.43436   0.37981   0.10840   0.00000  Uiso   1.00
C335   C     0.39442   0.37194   0.13582   0.00000  Uiso   1.00
C336   C     0.35599   0.38699   0.10414   0.00000  Uiso   1.00
C337   C     0.57571   0.62885   0.19915   0.00000  Uiso   1.00
C338   C     0.58732   0.60508   0.24912   0.00000  Uiso   1.00
C339   C     0.63433   0.60007   0.25750   0.00000  Uiso   1.00
C340   C     0.54989   0.38083   0.24385   0.00000  Uiso   1.00
C341   C     0.52630   0.37186   0.29041   0.00000  Uiso   1.00
C342   C     0.55105   0.39083   0.00320   0.00000  Uiso   1.00
C343   C     0.50000   0.50024   0.07379   0.00000  Uiso   1.00
C344   C     0.44808   0.61736   0.09117   0.00000  Uiso   1.00
C345   C     0.46921   0.62548   0.04243   0.00000  Uiso   1.00
C346   C     0.44237   0.60585   0.33153   0.00000  Uiso   1.00
C347   C     0.50014   0.49978   0.25955   0.00000  Uiso   1.00
C348   C     0.50010   0.50034   0.02194   0.00000  Uiso   1.00
C349   C     0.50013   0.49971   0.31142   0.00000  Uiso   1.00
C350   C     0.35745   0.48156   0.20782   0.00000  Uiso   1.00
C351   C     0.64237   0.51597   0.12428   0.00000  Uiso   1.00
C352   C     0.64760   0.48451   0.20975   0.00000  Uiso   1.00
Cu353  Cu    0.50000   0.54689   0.16667   0.00000  Uiso   1.00
Cu354  Cu    0.50000   0.45311   0.16667   0.00000  Uiso   1.00
H355   H     0.41083   0.48614   0.26562   0.00000  Uiso   1.00
H356   H     0.44007   0.41607   0.10064   0.00000  Uiso   1.00
H357   H     0.42868   0.36716   0.07020   0.00000  Uiso   1.00
H358   H     0.64619   0.58196   0.22618   0.00000  Uiso   1.00
H359   H     0.65044   0.63432   0.26095   0.00000  Uiso   1.00
H360   H     0.64168   0.58026   0.29221   0.00000  Uiso   1.00
H361   H     0.57717   0.62501   0.28008   0.00000  Uiso   1.00
H362   H     0.57165   0.57098   0.25082   0.00000  Uiso   1.00
H363   H     0.58401   0.61052   0.16651   0.00000  Uiso   1.00
H364   H     0.59749   0.65889   0.19519   0.00000  Uiso   1.00
H365   H     0.58044   0.37249   0.01051   0.00000  Uiso   1.00
H366   H     0.58932   0.55172   0.08358   0.00000  Uiso   1.00
H367   H     0.55869   0.42788   0.33161   0.00000  Uiso   1.00
H368   H     0.53248   0.38616   0.03584   0.00000  Uiso   1.00
H369   H     0.49544   0.38753   0.28611   0.00000  Uiso   1.00
H370   H     0.52065   0.33450   0.29590   0.00000  Uiso   1.00
H371   H     0.58174   0.36866   0.25158   0.00000  Uiso   1.00
H372   H     0.55596   0.41729   0.23825   0.00000  Uiso   1.00
H373   H     0.43641   0.56852   0.00337   0.00000  Uiso   1.00
H374   H     0.41216   0.62296   0.32701   0.00000  Uiso   1.00
H375   H     0.45868   0.61156   0.29722   0.00000  Uiso   1.00
H376   H     0.47514   0.66246   0.03532   0.00000  Uiso   1.00
H377   H     0.64033   0.44495   0.28086   0.00000  Uiso   1.00
H378   H     0.50003   0.60975   0.04480   0.00000  Uiso   1.00
H379   H     0.44337   0.58093   0.09695   0.00000  Uiso   1.00
H380   H     0.41552   0.62815   0.08667   0.00000  Uiso   1.00
H381   H     0.36152   0.55631   0.05488   0.00000  Uiso   1.00
H382   H     0.36033   0.42296   0.09143   0.00000  Uiso   1.00
H383   H     0.35019   0.36477   0.07126   0.00000  Uiso   1.00
H384   H     0.66170   0.38420   0.12620   0.00000  Uiso   1.00
H385   H     0.38954   0.33526   0.14588   0.00000  Uiso   1.00
H386   H     0.39708   0.39072   0.17118   0.00000  Uiso   1.00
N387   N     0.50000   0.61736   0.16667   0.00000  Uiso   1.00
N388   N     0.50000   0.38264   0.16667   0.00000  Uiso   1.00
O389   O     0.43988   0.53958   0.16666   0.00000  Uiso   1.00
O390   O     0.62198   0.51785   0.03842   0.00000  Uiso   1.00
O391   O     0.59800   0.49135   0.26887   0.00000  Uiso   1.00
O392   O     0.40013   0.50504   0.06226   0.00000  Uiso   1.00
O393   O     0.56012   0.46042   0.16667   0.00000  Uiso   1.00
O394   O     0.56012   0.53958   0.16667   0.00000  Uiso   1.00
O395   O     0.43988   0.46042   0.16666   0.00000  Uiso   1.00
O396   O     0.50000   0.53959   0.09613   0.00000  Uiso   1.00
O397   O     0.50000   0.46041   0.23720   0.00000  Uiso   1.00
O398   O     0.50000   0.53959   0.23720   0.00000  Uiso   1.00
O399   O     0.50000   0.46041   0.09613   0.00000  Uiso   1.00
O400   O     0.37792   0.42738   0.26975   0.00000  Uiso   1.00
C401   C     0.75435   0.49920   0.16572   0.00000  Uiso   1.00
C402   C     0.68562   0.51344   0.12281   0.00000  Uiso   1.00
C403   C     0.95723   0.50213   0.16792   0.00000  Uiso   1.00
C404   C     0.70942   0.49739   0.16510   0.00000  Uiso   1.00
C405   C     0.80461   0.35721   0.13644   0.00000  Uiso   1.00
C406   C     0.86423   0.64377   0.19275   0.00000  Uiso   1.00
C407   C     0.85996   0.35847   0.19872   0.00000  Uiso   1.00
C408   C     0.80605   0.64128   0.13456   0.00000  Uiso   1.00
C409   C     0.71751   0.46519   0.25135   0.00000  Uiso   1.00
C410   C     0.94902   0.53063   0.07971   0.00000  Uiso   1.00
C411   C     0.96129   0.47158   0.25641   0.00000  Uiso   1.00
C412   C     0.91231   0.50074   0.16740   0.00000  Uiso   1.00
C413   C     0.70568   0.52715   0.07685   0.00000  Uiso   1.00
C414   C     0.76770   0.37981   0.10840   0.00000  Uiso   1.00
C415   C     0.72776   0.37194   0.13582   0.00000  Uiso   1.00
C416   C     0.68933   0.38699   0.10414   0.00000  Uiso   1.00
C417   C     0.90905   0.62885   0.19915   0.00000  Uiso   1.00
C418   C     0.92066   0.60508   0.24912   0.00000  Uiso   1.00
C419   C     0.96766   0.60007   0.25750   0.00000  Uiso   1.00
C420   C     0.88322   0.38083   0.24385   0.00000  Uiso   1.00
C421   C     0.85964   0.37186   0.29041   0.00000  Uiso   1.00
C422   C     0.88439   0.39083   0.00320   0.00000  Uiso   1.00
C423   C     0.83333   0.50024   0.07379   0.00000  Uiso   1.00
C424   C     0.78141   0.61736   0.09117   0.00000  Uiso   1.00
C425   C     0.80254   0.62548   0.04243   0.00000  Uiso   1.00
C426   C     0.77571   0.60585   0.33153   0.00000  Uiso   1.00
C427   C     0.83347   0.49978   0.25955   0.00000  Uiso   1.00
C428   C     0.83344   0.50034   0.02194   0.00000  Uiso   1.00
C429   C     0.83347   0.49971   0.31142   0.00000  Uiso   1.00
C430   C     0.69078   0.48156   0.20782   0.00000  Uiso   1.00
C431   C     0.97570   0.51597   0.12428   0.00000  Uiso   1.00
C432   C     0.98093   0.48451   0.20975   0.00000  Uiso   1.00
Cu433  Cu    0.83333   0.54689   0.16667   0.00000  Uiso   1.00
Cu434  Cu    0.83333   0.45311   0.16667   0.00000  Uiso   1.00
H435   H     0.74416   0.48614   0.26562   0.00000  Uiso   1.00
H436   H     0.77340   0.41607   0.10064   0.00000  Uiso   1.00
H437   H     0.76201   0.36716   0.07020   0.00000  Uiso   1.00
H438   H     0.97953   0.58196   0.22618   0.00000  Uiso   1.00
H439   H     0.98377   0.63432   0.26095   0.00000  Uiso   1.00
H440   H     0.97501   0.58026   0.29221   0.00000  Uiso   1.00
H441   H     0.91051   0.62501   0.28008   0.00000  Uiso   1.00
H442   H     0.90498   0.57098   0.25082   0.00000  Uiso   1.00
H443   H     0.91735   0.61052   0.16651   0.00000  Uiso   1.00
H444   H     0.93083   0.65889   0.19519   0.00000  Uiso   1.00
H445   H     0.91377   0.37249   0.01051   0.00000  Uiso   1.00
H446   H     0.92265   0.55172   0.08358   0.00000  Uiso   1.00
H447   H     0.89203   0.42788   0.33161   0.00000  Uiso   1.00
H448   H     0.86581   0.38616   0.03584   0.00000  Uiso   1.00
H449   H     0.82877   0.38753   0.28611   0.00000  Uiso   1.00
H450   H     0.85399   0.33450   0.29590   0.00000  Uiso   1.00
H451   H     0.91508   0.36866   0.25158   0.00000  Uiso   1.00
H452   H     0.88929   0.41729   0.23825   0.00000  Uiso   1.00
H453   H     0.76975   0.56852   0.00337   0.00000  Uiso   1.00
H454   H     0.74550   0.62296   0.32701   0.00000  Uiso   1.00
H455   H     0.79202   0.61156   0.29722   0.00000  Uiso   1.00
H456   H     0.80847   0.66246   0.03532   0.00000  Uiso   1.00
H457   H     0.97367   0.44495   0.28086   0.00000  Uiso   1.00
H458   H     0.83336   0.60975   0.04480   0.00000  Uiso   1.00
H459   H     0.77671   0.58093   0.09695   0.00000  Uiso   1.00
H460   H     0.74885   0.62815   0.08667   0.00000  Uiso   1.00
H461   H     0.69485   0.55631   0.05488   0.00000  Uiso   1.00
H462   H     0.69367   0.42296   0.09143   0.00000  Uiso   1.00
H463   H     0.68352   0.36477   0.07126   0.00000  Uiso   1.00
H464   H     0.99503   0.38420   0.12620   0.00000  Uiso   1.00
H465   H     0.72287   0.33526   0.14588   0.00000  Uiso   1.00
H466   H     0.73041   0.39072   0.17118   0.00000  Uiso   1.00
N467   N     0.83333   0.61736   0.16667   0.00000  Uiso   1.00
N468   N     0.83333   0.38264   0.16667   0.00000  Uiso   1.00
O469   O     0.77321   0.53958   0.16666   0.00000  Uiso   1.00
O470   O     0.95532   0.51785   0.03842   0.00000  Uiso   1.00
O471   O     0.93134   0.49135   0.26887   0.00000  Uiso   1.00
O472   O     0.73346   0.50504   0.06226   0.00000  Uiso   1.00
O473   O     0.89345   0.46042   0.16667   0.00000  Uiso   1.00
O474   O     0.89345   0.53958   0.16667   0.00000  Uiso   1.00
O475   O     0.77321   0.46042   0.16666   0.00000  Uiso   1.00
O476   O     0.83333   0.53959   0.09613   0.00000  Uiso   1.00
O477   O     0.83333   0.46041   0.23720   0.00000  Uiso   1.00
O478   O     0.83333   0.53959   0.23720   0.00000  Uiso   1.00
O479   O     0.83333   0.46041   0.09613   0.00000  Uiso   1.00
O480   O     0.71125   0.42738   0.26975   0.00000  Uiso   1.00
C481   C     0.08768   0.83253   0.16572   0.00000  Uiso   1.00
C482   C     0.01896   0.84677   0.12281   0.00000  Uiso   1.00
C483   C     0.29056   0.83546   0.16792   0.00000  Uiso   1.00
C484   C     0.04275   0.83073   0.16510   0.00000  Uiso   1.00
C485   C     0.13794   0.69054   0.13644   0.00000  Uiso   1.00
C486   C     0.19756   0.97710   0.19275   0.00000  Uiso   1.00
C487   C     0.19330   0.69180   0.19872   0.00000  Uiso   1.00
C488   C     0.13939   0.97461   0.13456   0.00000  Uiso   1.00
C489   C     0.05084   0.79852   0.25135   0.00000  Uiso   1.00
C490   C     0.28235   0.86396   0.07971   0.00000  Uiso   1.00
C491   C     0.29462   0.80491   0.25641   0.00000  Uiso   1.00
C492   C     0.24565   0.83407   0.16740   0.00000  Uiso   1.00
C493   C     0.03901   0.86048   0.07685   0.00000  Uiso   1.00
C494   C     0.10103   0.71314   0.10840   0.00000  Uiso   1.00
C495   C     0.06109   0.70527   0.13582   0.00000  Uiso   1.00
C496   C     0.02266   0.72032   0.10414   0.00000  Uiso   1.00
C497   C     0.24238   0.96218   0.19915   0.00000  Uiso   1.00
C498   C     0.25399   0.93841   0.24912   0.00000  Uiso   1.00
C499   C     0.30099   0.93340   0.25750   0.00000  Uiso   1.00
C500   C     0.21655   0.71416   0.24385   0.00000  Uiso   1.00
C501   C     0.19297   0.70519   0.29041   0.00000  Uiso   1.00
C502   C     0.21772   0.72417   0.00320   0.00000  Uiso   1.00
C503   C     0.16667   0.83357   0.07379   0.00000  Uiso   1.00
C504   C     0.11475   0.95069   0.09117   0.00000  Uiso   1.00
C505   C     0.13587   0.95881   0.04243   0.00000  Uiso   1.00
C506   C     0.10904   0.93918   0.33153   0.00000  Uiso   1.00
C507   C     0.16680   0.83311   0.25955   0.00000  Uiso   1.00
C508   C     0.16677   0.83368   0.02194   0.00000  Uiso   1.00
C509   C     0.16680   0.83305   0.31142   0.00000  Uiso   1.00
C510   C     0.02412   0.81489   0.20782   0.00000  Uiso   1.00
C511   C     0.30903   0.84930   0.12428   0.00000  Uiso   1.00
C512   C     0.31426   0.81784   0.20975   0.00000  Uiso   1.00
Cu513  Cu    0.16667   0.88022   0.16667   0.00000  Uiso   1.00
Cu514  Cu    0.16667   0.78645   0.16667   0.00000  Uiso   1.00
H515   H     0.07749   0.81947   0.26562   0.00000  Uiso   1.00
H516   H     0.10674   0.74940   0.10064   0.00000  Uiso   1.00
H517   H     0.09534   0.70050   0.07020   0.00000  Uiso   1.00
H518   H     0.31286   0.91529   0.22618   0.00000  Uiso   1.00
H519   H     0.31710   0.96765   0.26095   0.00000  Uiso   1.00
H520   H     0.30834   0.91359   0.29221   0.00000  Uiso   1.00
H521   H     0.24384   0.95835   0.28008   0.00000  Uiso   1.00
H522   H     0.23831   0.90431   0.25082   0.00000  Uiso   1.00
H523   H     0.25068   0.94386   0.16651   0.00000  Uiso   1.00
H524   H     0.26416   0.99222   0.19519   0.00000  Uiso   1.00
H525   H     0.24711   0.70582   0.01051   0.00000  Uiso   1.00
H526   H     0.25599   0.88506   0.08358   0.00000  Uiso   1.00
H527   H     0.22536   0.76121   0.33161   0.00000  Uiso   1.00
H528   H     0.19914   0.71950   0.03584   0.00000  Uiso   1.00
H529   H     0.16211   0.72087   0.28611   0.00000  Uiso   1.00
H530   H     0.18732   0.66784   0.29590   0.00000  Uiso   1.00
H531   H     0.24841   0.70200   0.25158   0.00000  Uiso   1.00
H532   H     0.22262   0.75062   0.23825   0.00000  Uiso   1.00
H533   H     0.10308   0.90186   0.00337   0.00000  Uiso   1.00
H534   H     0.07883   0.95629   0.32701   0.00000  Uiso   1.00
H535   H     0.12535   0.94489   0.29722   0.00000  Uiso   1.00
H536   H     0.14180   0.99579   0.03532   0.00000  Uiso   1.00
H537   H     0.30700   0.77829   0.28086   0.00000  Uiso   1.00
H538   H     0.16670   0.94308   0.04480   0.00000  Uiso   1.00
H539   H     0.11004   0.91426   0.09695   0.00000  Uiso   1.00
H540   H     0.08218   0.96148   0.08667   0.00000  Uiso   1.00
H541   H     0.02819   0.88964   0.05488   0.00000  Uiso   1.00
H542   H     0.02700   0.75629   0.09143   0.00000  Uiso   1.00
H543   H     0.01686   0.69811   0.07126   0.00000  Uiso   1.00
H544   H     0.32837   0.71753   0.12620   0.00000  Uiso   1.00
H545   H     0.05620   0.66859   0.14588   0.00000  Uiso   1.00
H546   H     0.06374   0.72405   0.17118   0.00000  Uiso   1.00
N547   N     0.16667   0.95069   0.16667   0.00000  Uiso   1.00
N548   N     0.16667   0.71598   0.16667   0.00000  Uiso   1.00
O549   O     0.10655   0.87291   0.16666   0.00000  Uiso   1.00
O550   O     0.28865   0.85118   0.03842   0.00000  Uiso   1.00
O551   O     0.26467   0.82468   0.26887   0.00000  Uiso   1.00
O552   O     0.06680   0.83837   0.06226   0.00000  Uiso   1.00
O553   O     0.22679   0.79375   0.16667   0.00000  Uiso   1.00
O554   O     0.22679   0.87291   0.16667   0.00000  Uiso   1.00
O555   O     0.10655   0.79375   0.16666   0.00000  Uiso   1.00
O556   O     0.16667   0.87292   0.09613   0.00000  Uiso   1.00
O557   O     0.16667   0.79375   0.23720   0.00000  Uiso   1.00
O558   O     0.16667   0.87292   0.23720   0.00000  Uiso   1.00
O559   O     0.16667   0.79375   0.09613   0.00000  Uiso   1.00
O560   O     0.04459   0.76071   0.26975   0.00000  Uiso   1.00
C561   C     0.42102   0.83253   0.16572   0.00000  Uiso   1.00
C562   C     0.35229   0.84677   0.12281   0.00000  Uiso   1.00
C563   C     0.62389   0.83546   0.16792   0.00000  Uiso   1.00
C564   C     0.37609   0.83073   0.16510   0.00000  Uiso   1.00
C565   C     0.47127   0.69054   0.13644   0.00000  Uiso   1.00
C566   C     0.53089   0.97710   0.19275   0.00000  Uiso   1.00
C567   C     0.52663   0.69180   0.19872   0.00000  Uiso   1.00
C568   C     0.47272   0.97461   0.13456   0.00000  Uiso   1.00
C569   C     0.38418   0.79852   0.25135   0.00000  Uiso   1.00
C570   C     0.61568   0.86396   0.07971   0.00000  Uiso   1.00
C571   C     0.62796   0.80491   0.25641   0.00000  Uiso   1.00
C572   C     0.57898   0.83407   0.16740   0.00000  Uiso   1.00
C573   C     0.37234   0.86048   0.07685   0.00000  Uiso   1.00
C574   C     0.43436   0.71314   0.10840   0.00000  Uiso   1.00
C575   C     0.39442   0.70527   0.13582   0.00000  Uiso   1.00
C576   C     0.35599   0.72032   0.10414   0.00000  Uiso   1.00
C577   C     0.57571   0.96218   0.19915   0.00000  Uiso   1.00
C578   C     0.58732   0.93841   0.24912   0.00000  Uiso   1.00
C579   C     0.63433   0.93340   0.25750   0.00000  Uiso   1.00
C580   C     0.54989   0.71416   0.24385   0.00000  Uiso   1.00
C581   C     0.52630   0.70519   0.29041   0.00000  Uiso   1.00
C582   C     0.55105   0.72417   0.00320   0.00000  Uiso   1.00
C583   C     0.50000   0.83357   0.07379   0.00000  Uiso   1.00
C584   C     0.44808   0.95069   0.09117   0.00000  Uiso   1.00
C585   C     0.46921   0.95881   0.04243   0.00000  Uiso   1.00
C586   C     0.44237   0.93918   0.33153   0.00000  Uiso   1.00
C587   C     0.50014   0.83311   0.25955   0.00000  Uiso   1.00
C588   C     0.50010   0.83368   0.02194   0.00000  Uiso   1.00
C589   C     0.50013   0.83305   0.31142   0.00000  Uiso   1.00
C590   C     0.35745   0.81489   0.20782   0.00000  Uiso   1.00
C591   C     0.64237   0.84930   0.12428   0.00000  Uiso   1.00
C592   C     0.64760   0.81784   0.20975   0.00000  Uiso   1.00
Cu593  Cu    0.50000   0.88022   0.16667   0.00000  Uiso   1.00
Cu594  Cu    0.50000   0.78645   0.16667   0.00000  Uiso   1.00
H595   H     0.41083   0.81947   0.26562   0.00000  Uiso   1.00
H596   H     0.44007   0.74940   0.10064   0.00000  Uiso   1.00
H597   H     0.42868   0.70050   0.07020   0.00000  Uiso   1.00
H598   H     0.64619   0.91529   0.22618   0.00000  Uiso   1.00
H599   H     0.65044   0.96765   0.26095   0.00000  Uiso   1.00
H600   H     0.64168   0.91359   0.29221   0.00000  Uiso   1.00
H601   H     0.57717   0.95835   0.28008   0.00000  Uiso   1.00
H602   H     0.57165   0.90431   0.25082   0.00000  Uiso   1.00
H603   H     0.58401   0.94386   0.16651   0.00000  Uiso   1.00
H604   H     0.59749   0.99222   0.19519   0.00000  Uiso   1.00
H605   H     0.58044   0.70582   0.01051   0.00000  Uiso   1.00
H606   H     0.58932   0.88506   0.08358   0.00000  Uiso   1.00
H607   H     0.55869   0.76121   0.33161   0.00000  Uiso   1.00
H608   H     0.53248   0.71950   0.03584   0.00000  Uiso   1.00
H609   H     0.49544   0.72087   0.28611   0.00000  Uiso   1.00
H610   H     0.52065   0.66784   0.29590   0.00000  Uiso   1.00
H611   H     0.58174   0.70200   0.25158   0.00000  Uiso   1.00
H612   H     0.55596   0.75062   0.23825   0.00000  Uiso   1.00
H613   H     0.43641   0.90186   0.00337   0.00000  Uiso   1.00
H614   H     0.41216   0.95629   0.32701   0.00000  Uiso   1.00
H615   H     0.45868   0.94489   0.29722   0.00000  Uiso   1.00
H616   H     0.47514   0.99579   0.03532   0.00000  Uiso   1.00
H617   H     0.64033   0.77829   0.28086   0.00000  Uiso   1.00
H618   H     0.50003   0.94308   0.04480   0.00000  Uiso   1.00
H619   H     0.44337   0.91426   0.09695   0.00000  Uiso   1.00
H620   H     0.41552   0.96148   0.08667   0.00000  Uiso   1.00
H621   H     0.36152   0.88964   0.05488   0.00000  Uiso   1.00
H622   H     0.36033   0.75629   0.09143   0.00000  Uiso   1.00
H623   H     0.35019   0.69811   0.07126   0.00000  Uiso   1.00
H624   H     0.66170   0.71753   0.12620   0.00000  Uiso   1.00
H625   H     0.38954   0.66859   0.14588   0.00000  Uiso   1.00
H626   H     0.39708   0.72405   0.17118   0.00000  Uiso   1.00
N627   N     0.50000   0.95069   0.16667   0.00000  Uiso   1.00
N628   N     0.50000   0.71598   0.16667   0.00000  Uiso   1.00
O629   O     0.43988   0.87291   0.16666   0.00000  Uiso   1.00
O630   O     0.62198   0.85118   0.03842   0.00000  Uiso   1.00
O631   O     0.59800   0.82468   0.26887   0.00000  Uiso   1.00
O632   O     0.40013   0.83837   0.06226   0.00000  Uiso   1.00
O633   O     0.56012   0.79375   0.16667   0.00000  Uiso   1.00
O634   O     0.56012   0.87291   0.16667   0.00000  Uiso   1.00
O635   O     0.43988   0.79375   0.16666   0.00000  Uiso   1.00
O636   O     0.50000   0.87292   0.09613   0.00000  Uiso   1.00
O637   O     0.50000   0.79375   0.23720   0.00000  Uiso   1.00
O638   O     0.50000   0.87292   0.23720   0.00000  Uiso   1.00
O639   O     0.50000   0.79375   0.09613   0.00000  Uiso   1.00
O640   O     0.37792   0.76071   0.26975   0.00000  Uiso   1.00
C641   C     0.75435   0.83253   0.16572   0.00000  Uiso   1.00
C642   C     0.68562   0.84677   0.12281   0.00000  Uiso   1.00
C643   C     0.95723   0.83546   0.16792   0.00000  Uiso   1.00
C644   C     0.70942   0.83073   0.16510   0.00000  Uiso   1.00
C645   C     0.80461   0.69054   0.13644   0.00000  Uiso   1.00
C646   C     0.86423   0.97710   0.19275   0.00000  Uiso   1.00
C647   C     0.85996   0.69180   0.19872   0.00000  Uiso   1.00
C648   C     0.80605   0.97461   0.13456   0.00000  Uiso   1.00
C649   C     0.71751   0.79852   0.25135   0.00000  Uiso   1.00
C650   C     0.94902   0.86396   0.07971   0.00000  Uiso   1.00
C651   C     0.96129   0.80491   0.25641   0.00000  Uiso   1.00
C652   C     0.91231   0.83407   0.16740   0.00000  Uiso   1.00
C653   C     0.70568   0.86048   0.07685   0.00000  Uiso   1.00
C654   C     0.76770   0.71314   0.10840   0.00000  Uiso   1.00
C655   C     0.72776   0.70527   0.13582   0.00000  Uiso   1.00
C656   C     0.68933   0.72032   0.10414   0.00000  Uiso   1.00
C657   C     0.90905   0.96218   0.19915   0.00000  Uiso   1.00
C658   C     0.92066   0.93841   0.24912   0.00000  Uiso   1.00
C659   C     0.96766   0.93340   0.25750   0.00000  Uiso   1.00
C660   C     0.88322   0.71416   0.24385   0.00000  Uiso   1.00
C661   C     0.85964   0.70519   0.29041   0.00000  Uiso   1.00
C662   C     0.88439   0.72417   0.00320   0.00000  Uiso   1.00
C663   C     0.83333   0.83357   0.07379   0.00000  Uiso   1.00
C664   C     0.78141   0.95069   0.09117   0.00000  Uiso   1.00
C665   C     0.80254   0.95881   0.04243   0.00000  Uiso   1.00
C666   C     0.77571   0.93918   0.33153   0.00000  Uiso   1.00
C667   C     0.83347   0.83311   0.25955   0.00000  Uiso   1.00
C668   C     0.83344   0.83368   0.02194   0.00000  Uiso   1.00
C669   C     0.83347   0.83305   0.31142   0.00000  Uiso   1.00
C670   C     0.69078   0.81489   0.20782   0.00000  Uiso   1.00
C671   C     0.97570   0.84930   0.12428   0.00000  Uiso   1.00
C672   C     0.98093   0.81784   0.20975   0.00000  Uiso   1.00
Cu673  Cu    0.83333   0.88022   0.16667   0.00000  Uiso   1.00
Cu674  Cu    0.83333   0.78645   0.16667   0.00000  Uiso   1.00
H675   H     0.74416   0.81947   0.26562   0.00000  Uiso   1.00
H676   H     0.77340   0.74940   0.10064   0.00000  Uiso   1.00
H677   H     0.76201   0.70050   0.07020   0.00000  Uiso   1.00
H678   H     0.97953   0.91529   0.22618   0.00000  Uiso   1.00
H679   H     0.98377   0.96765   0.26095   0.00000  Uiso   1.00
H680   H     0.97501   0.91359   0.29221   0.00000  Uiso   1.00
H681   H     0.91051   0.95835   0.28008   0.00000  Uiso   1.00
H682   H     0.90498   0.90431   0.25082   0.00000  Uiso   1.00
H683   H     0.91735   0.94386   0.16651   0.00000  Uiso   1.00
H684   H     0.93083   0.99222   0.19519   0.00000  Uiso   1.00
H685   H     0.91377   0.70582   0.01051   0.00000  Uiso   1.00
H686   H     0.92265   0.88506   0.08358   0.00000  Uiso   1.00
H687   H     0.89203   0.76121   0.33161   0.00000  Uiso   1.00
H688   H     0.86581   0.71950   0.03584   0.00000  Uiso   1.00
H689   H     0.82877   0.72087   0.28611   0.00000  Uiso   1.00
H690   H     0.85399   0.66784   0.29590   0.00000  Uiso   1.00
H691   H     0.91508   0.70200   0.25158   0.00000  Uiso   1.00
H692   H     0.88929   0.75062   0.23825   0.00000  Uiso   1.00
H693   H     0.76975   0.90186   0.00337   0.00000  Uiso   1.00
H694   H     0.74550   0.95629   0.32701   0.00000  Uiso   1.00
H695   H     0.79202   0.94489   0.29722   0.00000  Uiso   1.00
H696   H     0.80847   0.99579   0.03532   0.00000  Uiso   1.00
H697   H     0.97367   0.77829   0.28086   0.00000  Uiso   1.00
H698   H     0.83336   0.94308   0.04480   0.00000  Uiso   1.00
H699   H     0.77671   0.91426   0.09695   0.00000  Uiso   1.00
H700   H     0.74885   0.96148   0.08667   0.00000  Uiso   1.00
H701   H     0.69485   0.88964   0.05488   0.00000  Uiso   1.00
H702   H     0.69367   0.75629   0.09143   0.00000  Uiso   1.00
H703   H     0.68352   0.69811   0.07126   0.00000  Uiso   1.00
H704   H     0.99503   0.71753   0.12620   0.00000  Uiso   1.00
H705   H     0.72287   0.66859   0.14588   0.00000  Uiso   1.00
H706   H     0.73041   0.72405   0.17118   0.00000  Uiso   1.00
N707   N     0.83333   0.95069   0.16667   0.00000  Uiso   1.00
N708   N     0.83333   0.71598   0.16667   0.00000  Uiso   1.00
O709   O     0.77321   0.87291   0.16666   0.00000  Uiso   1.00
O710   O     0.95532   0.85118   0.03842   0.00000  Uiso   1.00
O711   O     0.93134   0.82468   0.26887   0.00000  Uiso   1.00
O712   O     0.73346   0.83837   0.06226   0.00000  Uiso   1.00
O713   O     0.89345   0.79375   0.16667   0.00000  Uiso   1.00
O714   O     0.89345   0.87291   0.16667   0.00000  Uiso   1.00
O715   O     0.77321   0.79375   0.16666   0.00000  Uiso   1.00
O716   O     0.83333   0.87292   0.09613   0.00000  Uiso   1.00
O717   O     0.83333   0.79375   0.23720   0.00000  Uiso   1.00
O718   O     0.83333   0.87292   0.23720   0.00000  Uiso   1.00
O719   O     0.83333   0.79375   0.09613   0.00000  Uiso   1.00
O720   O     0.71125   0.76071   0.26975   0.00000  Uiso   1.00
C721   C     0.08768   0.16587   0.49906   0.00000  Uiso   1.00
C722   C     0.01896   0.18010   0.45614   0.00000  Uiso   1.00
C723   C     0.29056   0.16879   0.50125   0.00000  Uiso   1.00
C724   C     0.04275   0.16406   0.49844   0.00000  Uiso   1.00
C725   C     0.13794   0.02388   0.46978   0.00000  Uiso   1.00
C726   C     0.19756   0.31043   0.52608   0.00000  Uiso   1.00
C727   C     0.19330   0.02513   0.53205   0.00000  Uiso   1.00
C728   C     0.13939   0.30794   0.46790   0.00000  Uiso   1.00
C729   C     0.05084   0.13185   0.58468   0.00000  Uiso   1.00
C730   C     0.28235   0.19729   0.41305   0.00000  Uiso   1.00
C731   C     0.29462   0.13825   0.58975   0.00000  Uiso   1.00
C732   C     0.24565   0.16740   0.50073   0.00000  Uiso   1.00
C733   C     0.03901   0.19382   0.41018   0.00000  Uiso   1.00
C734   C     0.10103   0.04648   0.44173   0.00000  Uiso   1.00
C735   C     0.06109   0.03860   0.46916   0.00000  Uiso   1.00
C736   C     0.02266   0.05366   0.43747   0.00000  Uiso   1.00
C737   C     0.24238   0.29552   0.53248   0.00000  Uiso   1.00
C738   C     0.25399   0.27175   0.58245   0.00000  Uiso   1.00
C739   C     0.30099   0.26674   0.59083   0.00000  Uiso   1.00
C740   C     0.21655   0.04749   0.57718   0.00000  Uiso   1.00
C741   C     0.19297   0.03853   0.62374   0.00000  Uiso   1.00
C742   C     0.21772   0.05750   0.33654   0.00000  Uiso   1.00
C743   C     0.16667   0.16690   0.40713   0.00000  Uiso   1.00
C744   C     0.11475   0.28403   0.42451   0.00000  Uiso   1.00
C745   C     0.13587   0.29215   0.37576   0.00000  Uiso   1.00
C746   C     0.10904   0.27251   0.66487   0.00000  Uiso   1.00
C747   C     0.16680   0.16644   0.59288   0.00000  Uiso   1.00
C748   C     0.16677   0.16701   0.35527   0.00000  Uiso   1.00
C749   C     0.16680   0.16638   0.64476   0.00000  Uiso   1.00
C750   C     0.02412   0.14822   0.54115   0.00000  Uiso   1.00
C751   C     0.30903   0.18263   0.45762   0.00000  Uiso   1.00
C752   C     0.31426   0.15118   0.54308   0.00000  Uiso   1.00
Cu753  Cu    0.16667   0.21355   0.50000   0.00000  Uiso   1.00
Cu754  Cu    0.16667   0.11978   0.50000   0.00000  Uiso   1.00
H755   H     0.07749   0.15281   0.59895   0.00000  Uiso   1.00
H756   H     0.10674   0.08273   0.43397   0.00000  Uiso   1.00
H757   H     0.09534   0.03383   0.40353   0.00000  Uiso   1.00
H758   H     0.31286   0.24863   0.55951   0.00000  Uiso   1.00
H759   H     0.31710   0.30098   0.59429   0.00000  Uiso   1.00
H760   H     0.30834   0.24692   0.62554   0.00000  Uiso   1.00
H761   H     0.24384   0.29168   0.61341   0.00000  Uiso   1.00
H762   H     0.23831   0.23765   0.58415   0.00000  Uiso   1.00
H763   H     0.25068   0.27719   0.49984   0.00000  Uiso   1.00
H764   H     0.26416   0.32556   0.52853   0.00000  Uiso   1.00
H765   H     0.24711   0.03915   0.34384   0.00000  Uiso   1.00
H766   H     0.25599   0.21839   0.41692   0.00000  Uiso   1.00
H767   H     0.22536   0.09455   0.66494   0.00000  Uiso   1.00
H768   H     0.19914   0.05283   0.36917   0.00000  Uiso   1.00
H769   H     0.16211   0.05420   0.61944   0.00000  Uiso   1.00
H770   H     0.18732   0.00117   0.62923   0.00000  Uiso   1.00
H771   H     0.24841   0.03533   0.58491   0.00000  Uiso   1.00
H772   H     0.22262   0.08396   0.57158   0.00000  Uiso   1.00
H773   H     0.10308   0.23519   0.33671   0.00000  Uiso   1.00
H774   H     0.07883   0.28963   0.66034   0.00000  Uiso   1.00
H775   H     0.12535   0.27822   0.63055   0.00000  Uiso   1.00
H776   H     0.14180   0.32913   0.36865   0.00000  Uiso   1.00
H777   H     0.30700   0.11162   0.61419   0.00000  Uiso   1.00
H778   H     0.16670   0.27642   0.37813   0.00000  Uiso   1.00
H779   H     0.11004   0.24760   0.43028   0.00000  Uiso   1.00
H780   H     0.08218   0.29482   0.42001   0.00000  Uiso   1.00
H781   H     0.02819   0.22298   0.38821   0.00000  Uiso   1.00
H782   H     0.02700   0.08963   0.42476   0.00000  Uiso   1.00
H783   H     0.01686   0.03144   0.40460   0.00000  Uiso   1.00
H784   H     0.32837   0.05087   0.45953   0.00000  Uiso   1.00
H785   H     0.05620   0.00193   0.47921   0.00000  Uiso   1.00
H786   H     0.06374   0.05739   0.50451   0.00000  Uiso   1.00
N787   N     0.16667   0.28402   0.50000   0.00000  Uiso   1.00
N788   N     0.16667   0.04931   0.50000   0.00000  Uiso   1.00
O789   O     0.10655   0.20625   0.50000   0.00000  Uiso   1.00
O790   O     0.28865   0.18452   0.37175   0.00000  Uiso   1.00
O791   O     0.26467   0.15801   0.60221   0.00000  Uiso   1.00
O792   O     0.06680   0.17171   0.39559   0.00000  Uiso   1.00
O793   O     0.22679   0.12709   0.50000   0.00000  Uiso   1.00
O794   O     0.22679   0.20625   0.50000   0.00000  Uiso   1.00
O795   O     0.10655   0.12709   0.50000   0.00000  Uiso   1.00
O796   O     0.16667   0.20625   0.42946   0.00000  Uiso   1.00
O797   O     0.16667   0.12708   0.57054   0.00000  Uiso   1.00
O798   O     0.16667   0.20625   0.57054   0.00000  Uiso   1.00
O799   O     0.16667   0.12708   0.42946   0.00000  Uiso   1.00
O800   O     0.04459   0.09405   0.60308   0.00000  Uiso   1.00
C801   C     0.42102   0.16587   0.49906   0.00000  Uiso   1.00
C802   C     0.35229   0.18010   0.45614   0.00000  Uiso   1.00
C803   C     0.62389   0.16879   0.50125   0.00000  Uiso   1.00
C804   C     0.37609   0.16406   0.49844   0.00000  Uiso   1.00
C805   C     0.47127   0.02388   0.46978   0.00000  Uiso   1.00
C806   C     0.53089   0.31043   0.52608   0.00000  Uiso   1.00
C807   C     0.52663   0.02513   0.53205   0.00000  Uiso   1.00
C808   C     0.47272   0.30794   0.46790   0.00000  Uiso   1.00
C809   C     0.38418   0.13185   0.58468   0.00000  Uiso   1.00
C810   C     0.61568   0.19729   0.41305   0.00000  Uiso   1.00
C811   C     0.62796   0.13825   0.58975   0.00000  Uiso   1.00
C812   C     0.57898   0.16740   0.50073   0.00000  Uiso   1.00
C813   C     0.37234   0.19382   0.41018   0.00000  Uiso   1.00
C814   C     0.43436   0.04648   0.44173   0.00000  Uiso   1.00
C815   C     0.39442   0.03860   0.46916   0.00000  Uiso   1.00
C816   C     0.35599   0.05366   0.43747   0.00000  Uiso   1.00
C817   C     0.57571   0.29552   0.53248   0.00000  Uiso   1.00
C818   C     0.58732   0.27175   0.58245   0.00000  Uiso   1.00
C819   C     0.63433   0.26674   0.59083   0.00000  Uiso   1.00
C820   C     0.54989   0.04749   0.57718   0.00000  Uiso   1.00
C821   C     0.52630   0.03853   0.62374   0.00000  Uiso   1.00
C822   C     0.55105   0.05750   0.33654   0.00000  Uiso   1.00
C823   C     0.50000   0.16690   0.40713   0.00000  Uiso   1.00
C824   C     0.44808   0.28403   0.42451   0.00000  Uiso   1.00
C825   C     0.46921   0.29215   0.37576   0.00000  Uiso   1.00
C826   C     0.44237   0.27251   0.66487   0.00000  Uiso   1.00
C827   C     0.50014   0.16644   0.59288   0.00000  Uiso   1.00
C828   C     0.50010   0.16701   0.35527   0.00000  Uiso   1.00
C829   C     0.50013   0.16638   0.64476   0.00000  Uiso   1.00
C830   C     0.35745   0.14822   0.54115   0.00000  Uiso   1.00
C831   C     0.64237   0.18263   0.45762   0.00000  Uiso   1.00
C832   C     0.64760   0.15118   0.54308   0.00000  Uiso   1.00
Cu833  Cu    0.50000   0.21355   0.50000   0.00000  Uiso   1.00
Cu834  Cu    0.50000   0.11978   0.50000   0.00000  Uiso   1.00
H835   H     0.41083   0.15281   0.59895   0.00000  Uiso   1.00
H836   H     0.44007   0.08273   0.43397   0.00000  Uiso   1.00
H837   H     0.42868   0.03383   0.40353   0.00000  Uiso   1.00
H838   H     0.64619   0.24863   0.55951   0.00000  Uiso   1.00
H839   H     0.65044   0.30098   0.59429   0.00000  Uiso   1.00
H840   H     0.64168   0.24692   0.62554   0.00000  Uiso   1.00
H841   H     0.57717   0.29168   0.61341   0.00000  Uiso   1.00
H842   H     0.57165   0.23765   0.58415   0.00000  Uiso   1.00
H843   H     0.58401   0.27719   0.49984   0.00000  Uiso   1.00
H844   H     0.59749   0.32556   0.52853   0.00000  Uiso   1.00
H845   H     0.58044   0.03915   0.34384   0.00000  Uiso   1.00
H846   H     0.58932   0.21839   0.41692   0.00000  Uiso   1.00
H847   H     0.55869   0.09455   0.66494   0.00000  Uiso   1.00
H848   H     0.53248   0.05283   0.36917   0.00000  Uiso   1.00
H849   H     0.49544   0.05420   0.61944   0.00000  Uiso   1.00
H850   H     0.52065   0.00117   0.62923   0.00000  Uiso   1.00
H851   H     0.58174   0.03533   0.58491   0.00000  Uiso   1.00
H852   H     0.55596   0.08396   0.57158   0.00000  Uiso   1.00
H853   H     0.43641   0.23519   0.33671   0.00000  Uiso   1.00
H854   H     0.41216   0.28963   0.66034   0.00000  Uiso   1.00
H855   H     0.45868   0.27822   0.63055   0.00000  Uiso   1.00
H856   H     0.47514   0.32913   0.36865   0.00000  Uiso   1.00
H857   H     0.64033   0.11162   0.61419   0.00000  Uiso   1.00
H858   H     0.50003   0.27642   0.37813   0.00000  Uiso   1.00
H859   H     0.44337   0.24760   0.43028   0.00000  Uiso   1.00
H860   H     0.41552   0.29482   0.42001   0.00000  Uiso   1.00
H861   H     0.36152   0.22298   0.38821   0.00000  Uiso   1.00
H862   H     0.36033   0.08963   0.42476   0.00000  Uiso   1.00
H863   H     0.35019   0.03144   0.40460   0.00000  Uiso   1.00
H864   H     0.66170   0.05087   0.45953   0.00000  Uiso   1.00
H865   H     0.38954   0.00193   0.47921   0.00000  Uiso   1.00
H866   H     0.39708   0.05739   0.50451   0.00000  Uiso   1.00
N867   N     0.50000   0.28402   0.50000   0.00000  Uiso   1.00
N868   N     0.50000   0.04931   0.50000   0.00000  Uiso   1.00
O869   O     0.43988   0.20625   0.50000   0.00000  Uiso   1.00
O870   O     0.62198   0.18452   0.37175   0.00000  Uiso   1.00
O871   O     0.59800   0.15801   0.60221   0.00000  Uiso   1.00
O872   O     0.40013   0.17171   0.39559   0.00000  Uiso   1.00
O873   O     0.56012   0.12709   0.50000   0.00000  Uiso   1.00
O874   O     0.56012   0.20625   0.50000   0.00000  Uiso   1.00
O875   O     0.43988   0.12709   0.50000   0.00000  Uiso   1.00
O876   O     0.50000   0.20625   0.42946   0.00000  Uiso   1.00
O877   O     0.50000   0.12708   0.57054   0.00000  Uiso   1.00
O878   O     0.50000   0.20625   0.57054   0.00000  Uiso   1.00
O879   O     0.50000   0.12708   0.42946   0.00000  Uiso   1.00
O880   O     0.37792   0.09405   0.60308   0.00000  Uiso   1.00
C881   C     0.75435   0.16587   0.49906   0.00000  Uiso   1.00
C882   C     0.68562   0.18010   0.45614   0.00000  Uiso   1.00
C883   C     0.95723   0.16879   0.50125   0.00000  Uiso   1.00
C884   C     0.70942   0.16406   0.49844   0.00000  Uiso   1.00
C885   C     0.80461   0.02388   0.46978   0.00000  Uiso   1.00
C886   C     0.86423   0.31043   0.52608   0.00000  Uiso   1.00
C887   C     0.85996   0.02513   0.53205   0.00000  Uiso   1.00
C888   C     0.80605   0.30794   0.46790   0.00000  Uiso   1.00
C889   C     0.71751   0.13185   0.58468   0.00000  Uiso   1.00
C890   C     0.94902   0.19729   0.41305   0.00000  Uiso   1.00
C891   C     0.96129   0.13825   0.58975   0.00000  Uiso   1.00
C892   C     0.91231   0.16740   0.50073   0.00000  Uiso   1.00
C893   C     0.70568   0.19382   0.41018   0.00000  Uiso   1.00
C894   C     0.76770   0.04648   0.44173   0.00000  Uiso   1.00
C895   C     0.72776   0.03860   0.46916   0.00000  Uiso   1.00
C896   C     0.68933   0.05366   0.43747   0.00000  Uiso   1.00
C897   C     0.90905   0.29552   0.53248   0.00000  Uiso   1.00
C898   C     0.92066   0.27175   0.58245   0.00000  Uiso   1.00
C899   C     0.96766   0.26674   0.59083   0.00000  Uiso   1.00
C900   C     0.88322   0.04749   0.57718   0.00000  Uiso   1.00
C901   C     0.85964   0.03853   0.62374   0.00000  Uiso   1.00
C902   C     0.88439   0.05750   0.33654   0.00000  Uiso   1.00
C903   C     0.83333   0.16690   0.40713   0.00000  Uiso   1.00
C904   C     0.78141   0.28403   0.42451   0.00000  Uiso   1.00
C905   C     0.80254   0.29215   0.37576   0.00000  Uiso   1.00
C906   C     0.77571   0.27251   0.66487   0.00000  Uiso   1.00
C907   C     0.83347   0.16644   0.59288   0.00000  Uiso   1.00
C908   C     0.83344   0.16701   0.35527   0.00000  Uiso   1.00
C909   C     0.83347   0.16638   0.64476   0.00000  Uiso   1.00
C910   C     0.69078   0.14822   0.54115   0.00000  Uiso   1.00
C911   C     0.97570   0.18263   0.45762   0.00000  Uiso   1.00
C912   C     0.98093   0.15118   0.54308   0.00000  Uiso   1.00
Cu913  Cu    0.83333   0.21355   0.50000   0.00000  Uiso   1.00
Cu914  Cu    0.83333   0.11978   0.50000   0.00000  Uiso   1.00
H915   H     0.74416   0.15281   0.59895   0.00000  Uiso   1.00
H916   H     0.77340   0.08273   0.43397   0.00000  Uiso   1.00
H917   H     0.76201   0.03383   0.40353   0.00000  Uiso   1.00
H918   H     0.97953   0.24863   0.55951   0.00000  Uiso   1.00
H919   H     0.98377   0.30098   0.59429   0.00000  Uiso   1.00
H920   H     0.97501   0.24692   0.62554   0.00000  Uiso   1.00
H921   H     0.91051   0.29168   0.61341   0.00000  Uiso   1.00
H922   H     0.90498   0.23765   0.58415   0.00000  Uiso   1.00
H923   H     0.91735   0.27719   0.49984   0.00000  Uiso   1.00
H924   H     0.93083   0.32556   0.52853   0.00000  Uiso   1.00
H925   H     0.91377   0.03915   0.34384   0.00000  Uiso   1.00
H926   H     0.92265   0.21839   0.41692   0.00000  Uiso   1.00
H927   H     0.89203   0.09455   0.66494   0.00000  Uiso   1.00
H928   H     0.86581   0.05283   0.36917   0.00000  Uiso   1.00
H929   H     0.82877   0.05420   0.61944   0.00000  Uiso   1.00
H930   H     0.85399   0.00117   0.62923   0.00000  Uiso   1.00
H931   H     0.91508   0.03533   0.58491   0.00000  Uiso   1.00
H932   H     0.88929   0.08396   0.57158   0.00000  Uiso   1.00
H933   H     0.76975   0.23519   0.33671   0.00000  Uiso   1.00
H934   H     0.74550   0.28963   0.66034   0.00000  Uiso   1.00
H935   H     0.79202   0.27822   0.63055   0.00000  Uiso   1.00
H936   H     0.80847   0.32913   0.36865   0.00000  Uiso   1.00
H937   H     0.97367   0.11162   0.61419   0.00000  Uiso   1.00
H938   H     0.83336   0.27642   0.37813   0.00000  Uiso   1.00
H939   H     0.77671   0.24760   0.43028   0.00000  Uiso   1.00
H940   H     0.74885   0.29482   0.42001   0.00000  Uiso   1.00
H941   H     0.69485   0.22298   0.38821   0.00000  Uiso   1.00
H942   H     0.69367   0.08963   0.42476   0.00000  Uiso   1.00
H943   H     0.68352   0.03144   0.40460   0.00000  Uiso   1.00
H944   H     0.99503   0.05087   0.45953   0.00000  Uiso   1.00
H945   H     0.72287   0.00193   0.47921   0.00000  Uiso   1.00
H946   H     0.73041   0.05739   0.50451   0.00000  Uiso   1.00
N947   N     0.83333   0.28402   0.50000   0.00000  Uiso   1.00
N948   N     0.83333   0.04931   0.50000   0.00000  Uiso   1.00
O949   O     0.77321   0.20625   0.50000   0.00000  Uiso   1.00
O950   O     0.95532   0.18452   0.37175   0.00000  Uiso   1.00
O951   O     0.93134   0.15801   0.60221   0.00000  Uiso   1.00
O952   O     0.73346   0.17171   0.39559   0.00000  Uiso   1.00
O953   O     0.89345   0.12709   0.50000   0.00000  Uiso   1.00
O954   O     0.89345   0.20625   0.50000   0.00000  Uiso   1.00
O955   O     0.77321   0.12709   0.50000   0.00000  Uiso   1.00
O956   O     0.83333   0.20625   0.42946   0.00000  Uiso   1.00
O957   O     0.83333   0.12708   0.57054   0.00000  Uiso   1.00
O958   O     0.83333   0.20625   0.57054   0.00000  Uiso   1.00
O959   O     0.83333   0.12708   0.42946   0.00000  Uiso   1.00
O960   O     0.71125   0.09405   0.60308   0.00000  Uiso   1.00
C961   C     0.08768   0.49920   0.49906   0.00000  Uiso   1.00
C962   C     0.01896   0.51344   0.45614   0.00000  Uiso   1.00
C963   C     0.29056   0.50213   0.50125   0.00000  Uiso   1.00
C964   C     0.04275   0.49739   0.49844   0.00000  Uiso   1.00
C965   C     0.13794   0.35721   0.46978   0.00000  Uiso   1.00
C966   C     0.19756   0.64377   0.52608   0.00000  Uiso   1.00
C967   C     0.19330   0.35847   0.53205   0.00000  Uiso   1.00
C968   C     0.13939   0.64128   0.46790   0.00000  Uiso   1.00
C969   C     0.05084   0.46519   0.58468   0.00000  Uiso   1.00
C970   C     0.28235   0.53063   0.41305   0.00000  Uiso   1.00
C971   C     0.29462   0.47158   0.58975   0.00000  Uiso   1.00
C972   C     0.24565   0.50074   0.50073   0.00000  Uiso   1.00
C973   C     0.03901   0.52715   0.41018   0.00000  Uiso   1.00
C974   C     0.10103   0.37981   0.44173   0.00000  Uiso   1.00
C975   C     0.06109   0.37194   0.46916   0.00000  Uiso   1.00
C976   C     0.02266   0.38699   0.43747   0.00000  Uiso   1.00
C977   C     0.24238   0.62885   0.53248   0.00000  Uiso   1.00
C978   C     0.25399   0.60508   0.58245   0.00000  Uiso   1.00
C979   C     0.30099   0.60007   0.59083   0.00000  Uiso   1.00
C980   C     0.21655   0.38083   0.57718   0.00000  Uiso   1.00
C981   C     0.19297   0.37186   0.62374   0.00000  Uiso   1.00
C982   C     0.21772   0.39083   0.33654   0.00000  Uiso   1.00
C983   C     0.16667   0.50024   0.40713   0.00000  Uiso   1.00
C984   C     0.11475   0.61736   0.42451   0.00000  Uiso   1.00
C985   C     0.13587   0.62548   0.37576   0.00000  Uiso   1.00
C986   C     0.10904   0.60585   0.66487   0.00000  Uiso   1.00
C987   C     0.16680   0.49978   0.59288   0.00000  Uiso   1.00
C988   C     0.16677   0.50034   0.35527   0.00000  Uiso   1.00
C989   C     0.16680   0.49971   0.64476   0.00000  Uiso   1.00
C990   C     0.02412   0.48156   0.54115   0.00000  Uiso   1.00
C991   C     0.30903   0.51597   0.45762   0.00000  Uiso   1.00
C992   C     0.31426   0.48451   0.54308   0.00000  Uiso   1.00
Cu993  Cu    0.16667   0.54689   0.50000   0.00000  Uiso   1.00
Cu994  Cu    0.16667   0.45311   0.50000   0.00000  Uiso   1.00
H995   H     0.07749   0.48614   0.59895   0.00000  Uiso   1.00
H996   H     0.10674   0.41607   0.43397   0.00000  Uiso   1.00
H997   H     0.09534   0.36716   0.40353   0.00000  Uiso   1.00
H998   H     0.31286   0.58196   0.55951   0.00000  Uiso   1.00
H999   H     0.31710   0.63432   0.59429   0.00000  Uiso   1.00
H1000  H     0.30834   0.58026   0.62554   0.00000  Uiso   1.00
H1001  H     0.24384   0.62501   0.61341   0.00000  Uiso   1.00
H1002  H     0.23831   0.57098   0.58415   0.00000  Uiso   1.00
H1003  H     0.25068   0.61052   0.49984   0.00000  Uiso   1.00
H1004  H     0.26416   0.65889   0.52853   0.00000  Uiso   1.00
H1005  H     0.24711   0.37249   0.34384   0.00000  Uiso   1.00
H1006  H     0.25599   0.55172   0.41692   0.00000  Uiso   1.00
H1007  H     0.22536   0.42788   0.66494   0.00000  Uiso   1.00
H1008  H     0.19914   0.38616   0.36917   0.00000  Uiso   1.00
H1009  H     0.16211   0.38753   0.61944   0.00000  Uiso   1.00
H1010  H     0.18732   0.33450   0.62923   0.00000  Uiso   1.00
H1011  H     0.24841   0.36866   0.58491   0.00000  Uiso   1.00
H1012  H     0.22262   0.41729   0.57158   0.00000  Uiso   1.00
H1013  H     0.10308   0.56852   0.33671   0.00000  Uiso   1.00
H1014  H     0.07883   0.62296   0.66034   0.00000  Uiso   1.00
H1015  H     0.12535   0.61156   0.63055   0.00000  Uiso   1.00
H1016  H     0.14180   0.66246   0.36865   0.00000  Uiso   1.00
H1017  H     0.30700   0.44495   0.61419   0.00000  Uiso   1.00
H1018  H     0.16670   0.60975   0.37813   0.00000  Uiso   1.00
H1019  H     0.11004   0.58093   0.43028   0.00000  Uiso   1.00
H1020  H     0.08218   0.62815   0.42001   0.00000  Uiso   1.00
H1021  H     0.02819   0.55631   0.38821   0.00000  Uiso   1.00
H1022  H     0.02700   0.42296   0.42476   0.00000  Uiso   1.00
H1023  H     0.01686   0.36477   0.40460   0.00000  Uiso   1.00
H1024  H     0.32837   0.38420   0.45953   0.00000  Uiso   1.00
H1025  H     0.05620   0.33526   0.47921   0.00000  Uiso   1.00
H1026  H     0.06374   0.39072   0.50451   0.00000  Uiso   1.00
N1027  N     0.16667   0.61736   0.50000   0.00000  Uiso   1.00
N1028  N     0.16667   0.38264   0.50000   0.00000  Uiso   1.00
O1029  O     0.10655   0.53958   0.50000   0.00000  Uiso   1.00
O1030  O     0.28865   0.51785   0.37175   0.00000  Uiso   1.00
O1031  O     0.26467   0.49135   0.60221   0.00000  Uiso   1.00
O1032  O     0.06680   0.50504   0.39559   0.00000  Uiso   1.00
O1033  O     0.22679   0.46042   0.50000   0.00000  Uiso   1.00
O1034  O     0.22679   0.53958   0.50000   0.00000  Uiso   1.00
O1035  O     0.10655   0.46042   0.50000   0.00000  Uiso   1.00
O1036  O     0.16667   0.53959   0.42946   0.00000  Uiso   1.00
O1037  O     0.16667   0.46041   0.57054   0.00000  Uiso   1.00
O1038  O     0.16667   0.53959   0.57054   0.00000  Uiso   1.00
O1039  O     0.16667   0.46041   0.42946   0.00000  Uiso   1.00
O1040  O     0.04459   0.42738   0.60308   0.00000  Uiso   1.00
C1041  C     0.42102   0.49920   0.49906   0.00000  Uiso   1.00
C1042  C     0.35229   0.51344   0.45614   0.00000  Uiso   1.00
C1043  C     0.62389   0.50213   0.50125   0.00000  Uiso   1.00
C1044  C     0.37609   0.49739   0.49844   0.00000  Uiso   1.00
C1045  C     0.47127   0.35721   0.46978   0.00000  Uiso   1.00
C1046  C     0.53089   0.64377   0.52608   0.00000  Uiso   1.00
C1047  C     0.52663   0.35847   0.53205   0.00000  Uiso   1.00
C1048  C     0.47272   0.64128   0.46790   0.00000  Uiso   1.00
C1049  C     0.38418   0.46519   0.58468   0.00000  Uiso   1.00
C1050  C     0.61568   0.53063   0.41305   0.00000  Uiso   1.00
C1051  C     0.62796   0.47158   0.58975   0.00000  Uiso   1.00
C1052  C     0.57898   0.50074   0.50073   0.00000  Uiso   1.00
C1053  C     0.37234   0.52715   0.41018   0.00000  Uiso   1.00
C1054  C     0.43436   0.37981   0.44173   0.00000  Uiso   1.00
C1055  C     0.39442   0.37194   0.46916   0.00000  Uiso   1.00
C1056  C     0.35599   0.38699   0.43747   0.00000  Uiso   1.00
C1057  C     0.57571   0.62885   0.53248   0.00000  Uiso   1.00
C1058  C     0.58732   0.60508   0.58245   0.00000  Uiso   1.00
C1059  C     0.63433   0.60007   0.59083   0.00000  Uiso   1.00
C1060  C     0.54989   0.38083   0.57718   0.00000  Uiso   1.00
C1061  C     0.52630   0.37186   0.62374   0.00000  Uiso   1.00
C1062  C     0.55105   0.39083   0.33654   0.00000  Uiso   1.00
C1063  C     0.50000   0.50024   0.40713   0.00000  Uiso   1.00
C1064  C     0.44808   0.61736   0.42451   0.00000  Uiso   1.00
C1065  C     0.46921   0.62548   0.37576   0.00000  Uiso   1.00
C1066  C     0.44237   0.60585   0.66487   0.00000  Uiso   1.00
C1067  C     0.50014   0.49978   0.59288   0.00000  Uiso   1.00
C1068  C     0.50010   0.50034   0.35527   0.00000  Uiso   1.00
C1069  C     0.50013   0.49971   0.64476   0.00000  Uiso   1.00
C1070  C     0.35745   0.48156   0.54115   0.00000  Uiso   1.00
C1071  C     0.64237   0.51597   0.45762   0.00000  Uiso   1.00
C1072  C     0.64760   0.48451   0.54308   0.00000  Uiso   1.00
Cu1073 Cu    0.50000   0.54689   0.50000   0.00000  Uiso   1.00
Cu1074 Cu    0.50000   0.45311   0.50000   0.00000  Uiso   1.00
H1075  H     0.41083   0.48614   0.59895   0.00000  Uiso   1.00
H1076  H     0.44007   0.41607   0.43397   0.00000  Uiso   1.00
H1077  H     0.42868   0.36716   0.40353   0.00000  Uiso   1.00
H1078  H     0.64619   0.58196   0.55951   0.00000  Uiso   1.00
H1079  H     0.65044   0.63432   0.59429   0.00000  Uiso   1.00
H1080  H     0.64168   0.58026   0.62554   0.00000  Uiso   1.00
H1081  H     0.57717   0.62501   0.61341   0.00000  Uiso   1.00
H1082  H     0.57165   0.57098   0.58415   0.00000  Uiso   1.00
H1083  H     0.58401   0.61052   0.49984   0.00000  Uiso   1.00
H1084  H     0.59749   0.65889   0.52853   0.00000  Uiso   1.00
H1085  H     0.58044   0.37249   0.34384   0.00000  Uiso   1.00
H1086  H     0.58932   0.55172   0.41692   0.00000  Uiso   1.00
H1087  H     0.55869   0.42788   0.66494   0.00000  Uiso   1.00
H1088  H     0.53248   0.38616   0.36917   0.00000  Uiso   1.00
H1089  H     0.49544   0.38753   0.61944   0.00000  Uiso   1.00
H1090  H     0.52065   0.33450   0.62923   0.00000  Uiso   1.00
H1091  H     0.58174   0.36866   0.58491   0.00000  Uiso   1.00
H1092  H     0.55596   0.41729   0.57158   0.00000  Uiso   1.00
H1093  H     0.43641   0.56852   0.33671   0.00000  Uiso   1.00
H1094  H     0.41216   0.62296   0.66034   0.00000  Uiso   1.00
H1095  H     0.45868   0.61156   0.63055   0.00000  Uiso   1.00
H1096  H     0.47514   0.66246   0.36865   0.00000  Uiso   1.00
H1097  H     0.64033   0.44495   0.61419   0.00000  Uiso   1.00
H1098  H     0.50003   0.60975   0.37813   0.00000  Uiso   1.00
H1099  H     0.44337   0.58093   0.43028   0.00000  Uiso   1.00
H1100  H     0.41552   0.62815   0.42001   0.00000  Uiso   1.00
H1101  H     0.36152   0.55631   0.38821   0.00000  Uiso   1.00
H1102  H     0.36033   0.42296   0.42476   0.00000  Uiso   1.00
H1103  H     0.35019   0.36477   0.40460   0.00000  Uiso   1.00
H1104  H     0.66170   0.38420   0.45953   0.00000  Uiso   1.00
H1105  H     0.38954   0.33526   0.47921   0.00000  Uiso   1.00
H1106  H     0.39708   0.39072   0.50451   0.00000  Uiso   1.00
N1107  N     0.50000   0.61736   0.50000   0.00000  Uiso   1.00
N1108  N     0.50000   0.38264   0.50000   0.00000  Uiso   1.00
O1109  O     0.43988   0.53958   0.50000   0.00000  Uiso   1.00
O1110  O     0.62198   0.51785   0.37175   0.00000  Uiso   1.00
O1111  O     0.59800   0.49135   0.60221   0.00000  Uiso   1.00
O1112  O     0.40013   0.50504   0.39559   0.00000  Uiso   1.00
O1113  O     0.56012   0.46042   0.50000   0.00000  Uiso   1.00
O1114  O     0.56012   0.53958   0.50000   0.00000  Uiso   1.00
O1115  O     0.43988   0.46042   0.50000   0.00000  Uiso   1.00
O1116  O     0.50000   0.53959   0.42946   0.00000  Uiso   1.00
O1117  O     0.50000   0.46041   0.57054   0.00000  Uiso   1.00
O1118  O     0.50000   0.53959   0.57054   0.00000  Uiso   1.00
O1119  O     0.50000   0.46041   0.42946   0.00000  Uiso   1.00
O1120  O     0.37792   0.42738   0.60308   0.00000  Uiso   1.00
C1121  C     0.75435   0.49920   0.49906   0.00000  Uiso   1.00
C1122  C     0.68562   0.51344   0.45614   0.00000  Uiso   1.00
C1123  C     0.95723   0.50213   0.50125   0.00000  Uiso   1.00
C1124  C     0.70942   0.49739   0.49844   0.00000  Uiso   1.00
C1125  C     0.80461   0.35721   0.46978   0.00000  Uiso   1.00
C1126  C     0.86423   0.64377   0.52608   0.00000  Uiso   1.00
C1127  C     0.85996   0.35847   0.53205   0.00000  Uiso   1.00
C1128  C     0.80605   0.64128   0.46790   0.00000  Uiso   1.00
C1129  C     0.71751   0.46519   0.58468   0.00000  Uiso   1.00
C1130  C     0.94902   0.53063   0.41305   0.00000  Uiso   1.00
C1131  C     0.96129   0.47158   0.58975   0.00000  Uiso   1.00
C1132  C     0.91231   0.50074   0.50073   0.00000  Uiso   1.00
C1133  C     0.70568   0.52715   0.41018   0.00000  Uiso   1.00
C1134  C     0.76770   0.37981   0.44173   0.00000  Uiso   1.00
C1135  C     0.72776   0.37194   0.46916   0.00000  Uiso   1.00
C1136  C     0.68933   0.38699   0.43747   0.00000  Uiso   1.00
C1137  C     0.90905   0.62885   0.53248   0.00000  Uiso   1.00
C1138  C     0.92066   0.60508   0.58245   0.00000  Uiso   1.00
C1139  C     0.96766   0.60007   0.59083   0.00000  Uiso   1.00
C1140  C     0.88322   0.38083   0.57718   0.00000  Uiso   1.00
C1141  C     0.85964   0.37186   0.62374   0.00000  Uiso   1.00
C1142  C     0.88439   0.39083   0.33654   0.00000  Uiso   1.00
C1143  C     0.83333   0.50024   0.40713   0.00000  Uiso   1.00
C1144  C     0.78141   0.61736   0.42451   0.00000  Uiso   1.00
C1145  C     0.80254   0.62548   0.37576   0.00000  Uiso   1.00
C1146  C     0.77571   0.60585   0.66487   0.00000  Uiso   1.00
C1147  C     0.83347   0.49978   0.59288   0.00000  Uiso   1.00
C1148  C     0.83344   0.50034   0.35527   0.00000  Uiso   1.00
C1149  C     0.83347   0.49971   0.64476   0.00000  Uiso   1.00
C1150  C     0.69078   0.48156   0.54115   0.00000  Uiso   1.00
C1151  C     0.97570   0.51597   0.45762   0.00000  Uiso   1.00
C1152  C     0.98093   0.48451   0.54308   0.00000  Uiso   1.00
Cu1153 Cu    0.83333   0.54689   0.50000   0.00000  Uiso   1.00
Cu1154 Cu    0.83333   0.45311   0.50000   0.00000  Uiso   1.00
H1155  H     0.74416   0.48614   0.59895   0.00000  Uiso   1.00
H1156  H     0.77340   0.41607   0.43397   0.00000  Uiso   1.00
H1157  H     0.76201   0.36716   0.40353   0.00000  Uiso   1.00
H1158  H     0.97953   0.58196   0.55951   0.00000  Uiso   1.00
H1159  H     0.98377   0.63432   0.59429   0.00000  Uiso   1.00
H1160  H     0.97501   0.58026   0.62554   0.00000  Uiso   1.00
H1161  H     0.91051   0.62501   0.61341   0.00000  Uiso   1.00
H1162  H     0.90498   0.57098   0.58415   0.00000  Uiso   1.00
H1163  H     0.91735   0.61052   0.49984   0.00000  Uiso   1.00
H1164  H     0.93083   0.65889   0.52853   0.00000  Uiso   1.00
H1165  H     0.91377   0.37249   0.34384   0.00000  Uiso   1.00
H1166  H     0.92265   0.55172   0.41692   0.00000  Uiso   1.00
H1167  H     0.89203   0.42788   0.66494   0.00000  Uiso   1.00
H1168  H     0.86581   0.38616   0.36917   0.00000  Uiso   1.00
H1169  H     0.82877   0.38753   0.61944   0.00000  Uiso   1.00
H1170  H     0.85399   0.33450   0.62923   0.00000  Uiso   1.00
H1171  H     0.91508   0.36866   0.58491   0.00000  Uiso   1.00
H1172  H     0.88929   0.41729   0.57158   0.00000  Uiso   1.00
H1173  H     0.76975   0.56852   0.33671   0.00000  Uiso   1.00
H1174  H     0.74550   0.62296   0.66034   0.00000  Uiso   1.00
H1175  H     0.79202   0.61156   0.63055   0.00000  Uiso   1.00
H1176  H     0.80847   0.66246   0.36865   0.00000  Uiso   1.00
H1177  H     0.97367   0.44495   0.61419   0.00000  Uiso   1.00
H1178  H     0.83336   0.60975   0.37813   0.00000  Uiso   1.00
H1179  H     0.77671   0.58093   0.43028   0.00000  Uiso   1.00
H1180  H     0.74885   0.62815   0.42001   0.00000  Uiso   1.00
H1181  H     0.69485   0.55631   0.38821   0.00000  Uiso   1.00
H1182  H     0.69367   0.42296   0.42476   0.00000  Uiso   1.00
H1183  H     0.68352   0.36477   0.40460   0.00000  Uiso   1.00
H1184  H     0.99503   0.38420   0.45953   0.00000  Uiso   1.00
H1185  H     0.72287   0.33526   0.47921   0.00000  Uiso   1.00
H1186  H     0.73041   0.39072   0.50451   0.00000  Uiso   1.00
N1187  N     0.83333   0.61736   0.50000   0.00000  Uiso   1.00
N1188  N     0.83333   0.38264   0.50000   0.00000  Uiso   1.00
O1189  O     0.77321   0.53958   0.50000   0.00000  Uiso   1.00
O1190  O     0.95532   0.51785   0.37175   0.00000  Uiso   1.00
O1191  O     0.93134   0.49135   0.60221   0.00000  Uiso   1.00
O1192  O     0.73346   0.50504   0.39559   0.00000  Uiso   1.00
O1193  O     0.89345   0.46042   0.50000   0.00000  Uiso   1.00
O1194  O     0.89345   0.53958   0.50000   0.00000  Uiso   1.00
O1195  O     0.77321   0.46042   0.50000   0.00000  Uiso   1.00
O1196  O     0.83333   0.53959   0.42946   0.00000  Uiso   1.00
O1197  O     0.83333   0.46041   0.57054   0.00000  Uiso   1.00
O1198  O     0.83333   0.53959   0.57054   0.00000  Uiso   1.00
O1199  O     0.83333   0.46041   0.42946   0.00000  Uiso   1.00
O1200  O     0.71125   0.42738   0.60308   0.00000  Uiso   1.00
C1201  C     0.08768   0.83253   0.49906   0.00000  Uiso   1.00
C1202  C     0.01896   0.84677   0.45614   0.00000  Uiso   1.00
C1203  C     0.29056   0.83546   0.50125   0.00000  Uiso   1.00
C1204  C     0.04275   0.83073   0.49844   0.00000  Uiso   1.00
C1205  C     0.13794   0.69054   0.46978   0.00000  Uiso   1.00
C1206  C     0.19756   0.97710   0.52608   0.00000  Uiso   1.00
C1207  C     0.19330   0.69180   0.53205   0.00000  Uiso   1.00
C1208  C     0.13939   0.97461   0.46790   0.00000  Uiso   1.00
C1209  C     0.05084   0.79852   0.58468   0.00000  Uiso   1.00
C1210  C     0.28235   0.86396   0.41305   0.00000  Uiso   1.00
C1211  C     0.29462   0.80491   0.58975   0.00000  Uiso   1.00
C1212  C     0.24565   0.83407   0.50073   0.00000  Uiso   1.00
C1213  C     0.03901   0.86048   0.41018   0.00000  Uiso   1.00
C1214  C     0.10103   0.71314   0.44173   0.00000  Uiso   1.00
C1215  C     0.06109   0.70527   0.46916   0.00000  Uiso   1.00
C1216  C     0.02266   0.72032   0.43747   0.00000  Uiso   1.00
C1217  C     0.24238   0.96218   0.53248   0.00000  Uiso   1.00
C1218  C     0.25399   0.93841   0.58245   0.00000  Uiso   1.00
C1219  C     0.30099   0.93340   0.59083   0.00000  Uiso   1.00
C1220  C     0.21655   0.71416   0.57718   0.00000  Uiso   1.00
C1221  C     0.19297   0.70519   0.62374   0.00000  Uiso   1.00
C1222  C     0.21772   0.72417   0.33654   0.00000  Uiso   1.00
C1223  C     0.16667   0.83357   0.40713   0.00000  Uiso   1.00
C1224  C     0.11475   0.95069   0.42451   0.00000  Uiso   1.00
C1225  C     0.13587   0.95881   0.37576   0.00000  Uiso   1.00
C1226  C     0.10904   0.93918   0.66487   0.00000  Uiso   1.00
C1227  C     0.16680   0.83311   0.59288   0.00000  Uiso   1.00
C1228  C     0.16677   0.83368   0.35527   0.00000  Uiso   1.00
C1229  C     0.16680   0.83305   0.64476   0.00000  Uiso   1.00
C1230  C     0.02412   0.81489   0.54115   0.00000  Uiso   1.00
C1231  C     0.30903   0.84930   0.45762   0.00000  Uiso   1.00
C1232  C     0.31426   0.81784   0.54308   0.00000  Uiso   1.00
Cu1233 Cu    0.16667   0.88022   0.50000   0.00000  Uiso   1.00
Cu1234 Cu    0.16667   0.78645   0.50000   0.00000  Uiso   1.00
H1235  H     0.07749   0.81947   0.59895   0.00000  Uiso   1.00
H1236  H     0.10674   0.74940   0.43397   0.00000  Uiso   1.00
H1237  H     0.09534   0.70050   0.40353   0.00000  Uiso   1.00
H1238  H     0.31286   0.91529   0.55951   0.00000  Uiso   1.00
H1239  H     0.31710   0.96765   0.59429   0.00000  Uiso   1.00
H1240  H     0.30834   0.91359   0.62554   0.00000  Uiso   1.00
H1241  H     0.24384   0.95835   0.61341   0.00000  Uiso   1.00
H1242  H     0.23831   0.90431   0.58415   0.00000  Uiso   1.00
H1243  H     0.25068   0.94386   0.49984   0.00000  Uiso   1.00
H1244  H     0.26416   0.99222   0.52853   0.00000  Uiso   1.00
H1245  H     0.24711   0.70582   0.34384   0.00000  Uiso   1.00
H1246  H     0.25599   0.88506   0.41692   0.00000  Uiso   1.00
H1247  H     0.22536   0.76121   0.66494   0.00000  Uiso   1.00
H1248  H     0.19914   0.71950   0.36917   0.00000  Uiso   1.00
H1249  H     0.16211   0.72087   0.61944   0.00000  Uiso   1.00
H1250  H     0.18732   0.66784   0.62923   0.00000  Uiso   1.00
H1251  H     0.24841   0.70200   0.58491   0.00000  Uiso   1.00
H1252  H     0.22262   0.75062   0.57158   0.00000  Uiso   1.00
H1253  H     0.10308   0.90186   0.33671   0.00000  Uiso   1.00
H1254  H     0.07883   0.95629   0.66034   0.00000  Uiso   1.00
H1255  H     0.12535   0.94489   0.63055   0.00000  Uiso   1.00
H1256  H     0.14180   0.99579   0.36865   0.00000  Uiso   1.00
H1257  H     0.30700   0.77829   0.61419   0.00000  Uiso   1.00
H1258  H     0.16670   0.94308   0.37813   0.00000  Uiso   1.00
H1259  H     0.11004   0.91426   0.43028   0.00000  Uiso   1.00
H1260  H     0.08218   0.96148   0.42001   0.00000  Uiso   1.00
H1261  H     0.02819   0.88964   0.38821   0.00000  Uiso   1.00
H1262  H     0.02700   0.75629   0.42476   0.00000  Uiso   1.00
H1263  H     0.01686   0.69811   0.40460   0.00000  Uiso   1.00
H1264  H     0.32837   0.71753   0.45953   0.00000  Uiso   1.00
H1265  H     0.05620   0.66859   0.47921   0.00000  Uiso   1.00
H1266  H     0.06374   0.72405   0.50451   0.00000  Uiso   1.00
N1267  N     0.16667   0.95069   0.50000   0.00000  Uiso   1.00
N1268  N     0.16667   0.71598   0.50000   0.00000  Uiso   1.00
O1269  O     0.10655   0.87291   0.50000   0.00000  Uiso   1.00
O1270  O     0.28865   0.85118   0.37175   0.00000  Uiso   1.00
O1271  O     0.26467   0.82468   0.60221   0.00000  Uiso   1.00
O1272  O     0.06680   0.83837   0.39559   0.00000  Uiso   1.00
O1273  O     0.22679   0.79375   0.50000   0.00000  Uiso   1.00
O1274  O     0.22679   0.87291   0.50000   0.00000  Uiso   1.00
O1275  O     0.10655   0.79375   0.50000   0.00000  Uiso   1.00
O1276  O     0.16667   0.87292   0.42946   0.00000  Uiso   1.00
O1277  O     0.16667   0.79375   0.57054   0.00000  Uiso   1.00
O1278  O     0.16667   0.87292   0.57054   0.00000  Uiso   1.00
O1279  O     0.16667   0.79375   0.42946   0.00000  Uiso   1.00
O1280  O     0.04459   0.76071   0.60308   0.00000  Uiso   1.00
C1281  C     0.42102   0.83253   0.49906   0.00000  Uiso   1.00
C1282  C     0.35229   0.84677   0.45614   0.00000  Uiso   1.00
C1283  C     0.62389   0.83546   0.50125   0.00000  Uiso   1.00
C1284  C     0.37609   0.83073   0.49844   0.00000  Uiso   1.00
C1285  C     0.47127   0.69054   0.46978   0.00000  Uiso   1.00
C1286  C     0.53089   0.97710   0.52608   0.00000  Uiso   1.00
C1287  C     0.52663   0.69180   0.53205   0.00000  Uiso   1.00
C1288  C     0.47272   0.97461   0.46790   0.00000  Uiso   1.00
C1289  C     0.38418   0.79852   0.58468   0.00000  Uiso   1.00
C1290  C     0.61568   0.86396   0.41305   0.00000  Uiso   1.00
C1291  C     0.62796   0.80491   0.58975   0.00000  Uiso   1.00
C1292  C     0.57898   0.83407   0.50073   0.00000  Uiso   1.00
C1293  C     0.37234   0.86048   0.41018   0.00000  Uiso   1.00
C1294  C     0.43436   0.71314   0.44173   0.00000  Uiso   1.00
C1295  C     0.39442   0.70527   0.46916   0.00000  Uiso   1.00
C1296  C     0.35599   0.72032   0.43747   0.00000  Uiso   1.00
C1297  C     0.57571   0.96218   0.53248   0.00000  Uiso   1.00
C1298  C     0.58732   0.93841   0.58245   0.00000  Uiso   1.00
C1299  C     0.63433   0.93340   0.59083   0.00000  Uiso   1.00
C1300  C     0.54989   0.71416   0.57718   0.00000  Uiso   1.00
C1301  C     0.52630   0.70519   0.62374   0.00000  Uiso   1.00
C1302  C     0.55105   0.72417   0.33654   0.00000  Uiso   1.00
C1303  C     0.50000   0.83357   0.40713   0.00000  Uiso   1.00
C1304  C     0.44808   0.95069   0.42451   0.00000  Uiso   1.00
C1305  C     0.46921   0.95881   0.37576   0.00000  Uiso   1.00
C1306  C     0.44237   0.93918   0.66487   0.00000  Uiso   1.00
C1307  C     0.50014   0.83311   0.59288   0.00000  Uiso   1.00
C1308  C     0.50010   0.83368   0.35527   0.00000  Uiso   1.00
C1309  C     0.50013   0.83305   0.64476   0.00000  Uiso   1.00
C1310  C     0.35745   0.81489   0.54115   0.00000  Uiso   1.00
C1311  C     0.64237   0.84930   0.45762   0.00000  Uiso   1.00
C1312  C     0.64760   0.81784   0.54308   0.00000  Uiso   1.00
Cu1313 Cu    0.50000   0.88022   0.50000   0.00000  Uiso   1.00
Cu1314 Cu    0.50000   0.78645   0.50000   0.00000  Uiso   1.00
H1315  H     0.41083   0.81947   0.59895   0.00000  Uiso   1.00
H1316  H     0.44007   0.74940   0.43397   0.00000  Uiso   1.00
H1317  H     0.42868   0.70050   0.40353   0.00000  Uiso   1.00
H1318  H     0.64619   0.91529   0.55951   0.00000  Uiso   1.00
H1319  H     0.65044   0.96765   0.59429   0.00000  Uiso   1.00
H1320  H     0.64168   0.91359   0.62554   0.00000  Uiso   1.00
H1321  H     0.57717   0.95835   0.61341   0.00000  Uiso   1.00
H1322  H     0.57165   0.90431   0.58415   0.00000  Uiso   1.00
H1323  H     0.58401   0.94386   0.49984   0.00000  Uiso   1.00
H1324  H     0.59749   0.99222   0.52853   0.00000  Uiso   1.00
H1325  H     0.58044   0.70582   0.34384   0.00000  Uiso   1.00
H1326  H     0.58932   0.88506   0.41692   0.00000  Uiso   1.00
H1327  H     0.55869   0.76121   0.66494   0.00000  Uiso   1.00
H1328  H     0.53248   0.71950   0.36917   0.00000  Uiso   1.00
H1329  H     0.49544   0.72087   0.61944   0.00000  Uiso   1.00
H1330  H     0.52065   0.66784   0.62923   0.00000  Uiso   1.00
H1331  H     0.58174   0.70200   0.58491   0.00000  Uiso   1.00
H1332  H     0.55596   0.75062   0.57158   0.00000  Uiso   1.00
H1333  H     0.43641   0.90186   0.33671   0.00000  Uiso   1.00
H1334  H     0.41216   0.95629   0.66034   0.00000  Uiso   1.00
H1335  H     0.45868   0.94489   0.63055   0.00000  Uiso   1.00
H1336  H     0.47514   0.99579   0.36865   0.00000  Uiso   1.00
H1337  H     0.64033   0.77829   0.61419   0.00000  Uiso   1.00
H1338  H     0.50003   0.94308   0.37813   0.00000  Uiso   1.00
H1339  H     0.44337   0.91426   0.43028   0.00000  Uiso   1.00
H1340  H     0.41552   0.96148   0.42001   0.00000  Uiso   1.00
H1341  H     0.36152   0.88964   0.38821   0.00000  Uiso   1.00
H1342  H     0.36033   0.75629   0.42476   0.00000  Uiso   1.00
H1343  H     0.35019   0.69811   0.40460   0.00000  Uiso   1.00
H1344  H     0.66170   0.71753   0.45953   0.00000  Uiso   1.00
H1345  H     0.38954   0.66859   0.47921   0.00000  Uiso   1.00
H1346  H     0.39708   0.72405   0.50451   0.00000  Uiso   1.00
N1347  N     0.50000   0.95069   0.50000   0.00000  Uiso   1.00
N1348  N     0.50000   0.71598   0.50000   0.00000  Uiso   1.00
O1349  O     0.43988   0.87291   0.50000   0.00000  Uiso   1.00
O1350  O     0.62198   0.85118   0.37175   0.00000  Uiso   1.00
O1351  O     0.59800   0.82468   0.60221   0.00000  Uiso   1.00
O1352  O     0.40013   0.83837   0.39559   0.00000  Uiso   1.00
O1353  O     0.56012   0.79375   0.50000   0.00000  Uiso   1.00
O1354  O     0.56012   0.87291   0.50000   0.00000  Uiso   1.00
O1355  O     0.43988   0.79375   0.50000   0.00000  Uiso   1.00
O1356  O     0.50000   0.87292   0.42946   0.00000  Uiso   1.00
O1357  O     0.50000   0.79375   0.57054   0.00000  Uiso   1.00
O1358  O     0.50000   0.87292   0.57054   0.00000  Uiso   1.00
O1359  O     0.50000   0.79375   0.42946   0.00000  Uiso   1.00
O1360  O     0.37792   0.76071   0.60308   0.00000  Uiso   1.00
C1361  C     0.75435   0.83253   0.49906   0.00000  Uiso   1.00
C1362  C     0.68562   0.84677   0.45614   0.00000  Uiso   1.00
C1363  C     0.95723   0.83546   0.50125   0.00000  Uiso   1.00
C1364  C     0.70942   0.83073   0.49844   0.00000  Uiso   1.00
C1365  C     0.80461   0.69054   0.46978   0.00000  Uiso   1.00
C1366  C     0.86423   0.97710   0.52608   0.00000  Uiso   1.00
C1367  C     0.85996   0.69180   0.53205   0.00000  Uiso   1.00
C1368  C     0.80605   0.97461   0.46790   0.00000  Uiso   1.00
C1369  C     0.71751   0.79852   0.58468   0.00000  Uiso   1.00
C1370  C     0.94902   0.86396   0.41305   0.00000  Uiso   1.00
C1371  C     0.96129   0.80491   0.58975   0.00000  Uiso   1.00
C1372  C     0.91231   0.83407   0.50073   0.00000  Uiso   1.00
C1373  C     0.70568   0.86048   0.41018   0.00000  Uiso   1.00
C1374  C     0.76770   0.71314   0.44173   0.00000  Uiso   1.00
C1375  C     0.72776   0.70527   0.46916   0.00000  Uiso   1.00
C1376  C     0.68933   0.72032   0.43747   0.00000  Uiso   1.00
C1377  C     0.90905   0.96218   0.53248   0.00000  Uiso   1.00
C1378  C     0.92066   0.93841   0.58245   0.00000  Uiso   1.00
C1379  C     0.96766   0.93340   0.59083   0.00000  Uiso   1.00
C1380  C     0.88322   0.71416   0.57718   0.00000  Uiso   1.00
C1381  C     0.85964   0.70519   0.62374   0.00000  Uiso   1.00
C1382  C     0.88439   0.72417   0.33654   0.00000  Uiso   1.00
C1383  C     0.83333   0.83357   0.40713   0.00000  Uiso   1.00
C1384  C     0.78141   0.95069   0.42451   0.00000  Uiso   1.00
C1385  C     0.80254   0.95881   0.37576   0.00000  Uiso   1.00
C1386  C     0.77571   0.93918   0.66487   0.00000  Uiso   1.00
C1387  C     0.83347   0.83311   0.59288   0.00000  Uiso   1.00
C1388  C     0.83344   0.83368   0.35527   0.00000  Uiso   1.00
C1389  C     0.83347   0.83305   0.64476   0.00000  Uiso   1.00
C1390  C     0.69078   0.81489   0.54115   0.00000  Uiso   1.00
C1391  C     0.97570   0.84930   0.45762   0.00000  Uiso   1.00
C1392  C     0.98093   0.81784   0.54308   0.00000  Uiso   1.00
Cu1393 Cu    0.83333   0.88022   0.50000   0.00000  Uiso   1.00
Cu1394 Cu    0.83333   0.78645   0.50000   0.00000  Uiso   1.00
H1395  H     0.74416   0.81947   0.59895   0.00000  Uiso   1.00
H1396  H     0.77340   0.74940   0.43397   0.00000  Uiso   1.00
H1397  H     0.76201   0.70050   0.40353   0.00000  Uiso   1.00
H1398  H     0.97953   0.91529   0.55951   0.00000  Uiso   1.00
H1399  H     0.98377   0.96765   0.59429   0.00000  Uiso   1.00
H1400  H     0.97501   0.91359   0.62554   0.00000  Uiso   1.00
H1401  H     0.91051   0.95835   0.61341   0.00000  Uiso   1.00
H1402  H     0.90498   0.90431   0.58415   0.00000  Uiso   1.00
H1403  H     0.91735   0.94386   0.49984   0.00000  Uiso   1.00
H1404  H     0.93083   0.99222   0.52853   0.00000  Uiso   1.00
H1405  H     0.91377   0.70582   0.34384   0.00000  Uiso   1.00
H1406  H     0.92265   0.88506   0.41692   0.00000  Uiso   1.00
H1407  H     0.89203   0.76121   0.66494   0.00000  Uiso   1.00
H1408  H     0.86581   0.71950   0.36917   0.00000  Uiso   1.00
H1409  H     0.82877   0.72087   0.61944   0.00000  Uiso   1.00
H1410  H     0.85399   0.66784   0.62923   0.00000  Uiso   1.00
H1411  H     0.91508   0.70200   0.58491   0.00000  Uiso   1.00
H1412  H     0.88929   0.75062   0.57158   0.00000  Uiso   1.00
H1413  H     0.76975   0.90186   0.33671   0.00000  Uiso   1.00
H1414  H     0.74550   0.95629   0.66034   0.00000  Uiso   1.00
H1415  H     0.79202   0.94489   0.63055   0.00000  Uiso   1.00
H1416  H     0.80847   0.99579   0.36865   0.00000  Uiso   1.00
H1417  H     0.97367   0.77829   0.61419   0.00000  Uiso   1.00
H1418  H     0.83336   0.94308   0.37813   0.00000  Uiso   1.00
H1419  H     0.77671   0.91426   0.43028   0.00000  Uiso   1.00
H1420  H     0.74885   0.96148   0.42001   0.00000  Uiso   1.00
H1421  H     0.69485   0.88964   0.38821   0.00000  Uiso   1.00
H1422  H     0.69367   0.75629   0.42476   0.00000  Uiso   1.00
H1423  H     0.68352   0.69811   0.40460   0.00000  Uiso   1.00
H1424  H     0.99503   0.71753   0.45953   0.00000  Uiso   1.00
H1425  H     0.72287   0.66859   0.47921   0.00000  Uiso   1.00
H1426  H     0.73041   0.72405   0.50451   0.00000  Uiso   1.00
N1427  N     0.83333   0.95069   0.50000   0.00000  Uiso   1.00
N1428  N     0.83333   0.71598   0.50000   0.00000  Uiso   1.00
O1429  O     0.77321   0.87291   0.50000   0.00000  Uiso   1.00
O1430  O     0.95532   0.85118   0.37175   0.00000  Uiso   1.00
O1431  O     0.93134   0.82468   0.60221   0.00000  Uiso   1.00
O1432  O     0.73346   0.83837   0.39559   0.00000  Uiso   1.00
O1433  O     0.89345   0.79375   0.50000   0.00000  Uiso   1.00
O1434  O     0.89345   0.87291   0.50000   0.00000  Uiso   1.00
O1435  O     0.77321   0.79375   0.50000   0.00000  Uiso   1.00
O1436  O     0.83333   0.87292   0.42946   0.00000  Uiso   1.00
O1437  O     0.83333   0.79375   0.57054   0.00000  Uiso   1.00
O1438  O     0.83333   0.87292   0.57054   0.00000  Uiso   1.00
O1439  O     0.83333   0.79375   0.42946   0.00000  Uiso   1.00
O1440  O     0.71125   0.76071   0.60308   0.00000  Uiso   1.00
C1441  C     0.08768   0.16587   0.83239   0.00000  Uiso   1.00
C1442  C     0.01896   0.18010   0.78947   0.00000  Uiso   1.00
C1443  C     0.29056   0.16879   0.83459   0.00000  Uiso   1.00
C1444  C     0.04275   0.16406   0.83177   0.00000  Uiso   1.00
C1445  C     0.13794   0.02388   0.80311   0.00000  Uiso   1.00
C1446  C     0.19756   0.31043   0.85941   0.00000  Uiso   1.00
C1447  C     0.19330   0.02513   0.86539   0.00000  Uiso   1.00
C1448  C     0.13939   0.30794   0.80123   0.00000  Uiso   1.00
C1449  C     0.05084   0.13185   0.91802   0.00000  Uiso   1.00
C1450  C     0.28235   0.19729   0.74638   0.00000  Uiso   1.00
C1451  C     0.29462   0.13825   0.92308   0.00000  Uiso   1.00
C1452  C     0.24565   0.16740   0.83406   0.00000  Uiso   1.00
C1453  C     0.03901   0.19382   0.74352   0.00000  Uiso   1.00
C1454  C     0.10103   0.04648   0.77507   0.00000  Uiso   1.00
C1455  C     0.06109   0.03860   0.80249   0.00000  Uiso   1.00
C1456  C     0.02266   0.05366   0.77081   0.00000  Uiso   1.00
C1457  C     0.24238   0.29552   0.86582   0.00000  Uiso   1.00
C1458  C     0.25399   0.27175   0.91578   0.00000  Uiso   1.00
C1459  C     0.30099   0.26674   0.92417   0.00000  Uiso   1.00
C1460  C     0.21655   0.04749   0.91051   0.00000  Uiso   1.00
C1461  C     0.19297   0.03853   0.95707   0.00000  Uiso   1.00
C1462  C     0.21772   0.05750   0.66987   0.00000  Uiso   1.00
C1463  C     0.16667   0.16690   0.74046   0.00000  Uiso   1.00
C1464  C     0.11475   0.28403   0.75784   0.00000  Uiso   1.00
C1465  C     0.13587   0.29215   0.70910   0.00000  Uiso   1.00
C1466  C     0.10904   0.27251   0.99820   0.00000  Uiso   1.00
C1467  C     0.16680   0.16644   0.92622   0.00000  Uiso   1.00
C1468  C     0.16677   0.16701   0.68860   0.00000  Uiso   1.00
C1469  C     0.16680   0.16638   0.97809   0.00000  Uiso   1.00
C1470  C     0.02412   0.14822   0.87448   0.00000  Uiso   1.00
C1471  C     0.30903   0.18263   0.79095   0.00000  Uiso   1.00
C1472  C     0.31426   0.15118   0.87641   0.00000  Uiso   1.00
Cu1473 Cu    0.16667   0.21355   0.83333   0.00000  Uiso   1.00
Cu1474 Cu    0.16667   0.11978   0.83333   0.00000  Uiso   1.00
H1475  H     0.07749   0.15281   0.93229   0.00000  Uiso   1.00
H1476  H     0.10674   0.08273   0.76730   0.00000  Uiso   1.00
H1477  H     0.09534   0.03383   0.73687   0.00000  Uiso   1.00
H1478  H     0.31286   0.24863   0.89285   0.00000  Uiso   1.00
H1479  H     0.31710   0.30098   0.92762   0.00000  Uiso   1.00
H1480  H     0.30834   0.24692   0.95887   0.00000  Uiso   1.00
H1481  H     0.24384   0.29168   0.94674   0.00000  Uiso   1.00
H1482  H     0.23831   0.23765   0.91748   0.00000  Uiso   1.00
H1483  H     0.25068   0.27719   0.83318   0.00000  Uiso   1.00
H1484  H     0.26416   0.32556   0.86186   0.00000  Uiso   1.00
H1485  H     0.24711   0.03915   0.67718   0.00000  Uiso   1.00
H1486  H     0.25599   0.21839   0.75025   0.00000  Uiso   1.00
H1487  H     0.22536   0.09455   0.99828   0.00000  Uiso   1.00
H1488  H     0.19914   0.05283   0.70251   0.00000  Uiso   1.00
H1489  H     0.16211   0.05420   0.95278   0.00000  Uiso   1.00
H1490  H     0.18732   0.00117   0.96257   0.00000  Uiso   1.00
H1491  H     0.24841   0.03533   0.91825   0.00000  Uiso   1.00
H1492  H     0.22262   0.08396   0.90492   0.00000  Uiso   1.00
H1493  H     0.10308   0.23519   0.67004   0.00000  Uiso   1.00
H1494  H     0.07883   0.28963   0.99367   0.00000  Uiso   1.00
H1495  H     0.12535   0.27822   0.96389   0.00000  Uiso   1.00
H1496  H     0.14180   0.32913   0.70198   0.00000  Uiso   1.00
H1497  H     0.30700   0.11162   0.94752   0.00000  Uiso   1.00
H1498  H     0.16670   0.27642   0.71147   0.00000  Uiso   1.00
H1499  H     0.11004   0.24760   0.76361   0.00000  Uiso   1.00
H1500  H     0.08218   0.29482   0.75334   0.00000  Uiso   1.00
H1501  H     0.02819   0.22298   0.72154   0.00000  Uiso   1.00
H1502  H     0.02700   0.08963   0.75809   0.00000  Uiso   1.00
H1503  H     0.01686   0.03144   0.73793   0.00000  Uiso   1.00
H1504  H     0.32837   0.05087   0.79286   0.00000  Uiso   1.00
H1505  H     0.05620   0.00193   0.81255   0.00000  Uiso   1.00
H1506  H     0.06374   0.05739   0.83784   0.00000  Uiso   1.00
N1507  N     0.16667   0.28402   0.83333   0.00000  Uiso   1.00
N1508  N     0.16667   0.04931   0.83333   0.00000  Uiso   1.00
O1509  O     0.10655   0.20625   0.83333   0.00000  Uiso   1.00
O1510  O     0.28865   0.18452   0.70509   0.00000  Uiso   1.00
O1511  O     0.26467   0.15801   0.93554   0.00000  Uiso   1.00
O1512  O     0.06680   0.17171   0.72892   0.00000  Uiso   1.00
O1513  O     0.22679   0.12709   0.83334   0.00000  Uiso   1.00
O1514  O     0.22679   0.20625   0.83334   0.00000  Uiso   1.00
O1515  O     0.10655   0.12709   0.83333   0.00000  Uiso   1.00
O1516  O     0.16667   0.20625   0.76280   0.00000  Uiso   1.00
O1517  O     0.16667   0.12708   0.90387   0.00000  Uiso   1.00
O1518  O     0.16667   0.20625   0.90387   0.00000  Uiso   1.00
O1519  O     0.16667   0.12708   0.76280   0.00000  Uiso   1.00
O1520  O     0.04459   0.09405   0.93642   0.00000  Uiso   1.00
C1521  C     0.42102   0.16587   0.83239   0.00000  Uiso   1.00
C1522  C     0.35229   0.18010   0.78947   0.00000  Uiso   1.00
C1523  C     0.62389   0.16879   0.83459   0.00000  Uiso   1.00
C1524  C     0.37609   0.16406   0.83177   0.00000  Uiso   1.00
C1525  C     0.47127   0.02388   0.80311   0.00000  Uiso   1.00
C1526  C     0.53089   0.31043   0.85941   0.00000  Uiso   1.00
C1527  C     0.52663   0.02513   0.86539   0.00000  Uiso   1.00
C1528  C     0.47272   0.30794   0.80123   0.00000  Uiso   1.00
C1529  C     0.38418   0.13185   0.91802   0.00000  Uiso   1.00
C1530  C     0.61568   0.19729   0.74638   0.00000  Uiso   1.00
C1531  C     0.62796   0.13825   0.92308   0.00000  Uiso   1.00
C1532  C     0.57898   0.16740   0.83406   0.00000  Uiso   1.00
C1533  C     0.37234   0.19382   0.74352   0.00000  Uiso   1.00
C1534  C     0.43436   0.04648   0.77507   0.00000  Uiso   1.00
C1535  C     0.39442   0.03860   0.80249   0.00000  Uiso   1.00
C1536  C     0.35599   0.05366   0.77081   0.00000  Uiso   1.00
C1537  C     0.57571   0.29552   0.86582   0.00000  Uiso   1.00
C1538  C     0.58732   0.27175   0.91578   0.00000  Uiso   1.00
C1539  C     0.63433   0.26674   0.92417   0.00000  Uiso   1.00
C1540  C     0.54989   0.04749   0.91051   0.00000  Uiso   1.00
C1541  C     0.52630   0.03853   0.95707   0.00000  Uiso   1.00
C1542  C     0.55105   0.05750   0.66987   0.00000  Uiso   1.00
C1543  C     0.50000   0.16690   0.74046   0.00000  Uiso   1.00
C1544  C     0.44808   0.28403   0.75784   0.00000  Uiso   1.00
C1545  C     0.46921   0.29215   0.70910   0.00000  Uiso   1.00
C1546  C     0.44237   0.27251   0.99820   0.00000  Uiso   1.00
C1547  C     0.50014   0.16644   0.92622   0.00000  Uiso   1.00
C1548  C     0.50010   0.16701   0.68860   0.00000  Uiso   1.00
C1549  C     0.50013   0.16638   0.97809   0.00000  Uiso   1.00
C1550  C     0.35745   0.14822   0.87448   0.00000  Uiso   1.00
C1551  C     0.64237   0.18263   0.79095   0.00000  Uiso   1.00
C1552  C     0.64760   0.15118   0.87641   0.00000  Uiso   1.00
Cu1553 Cu    0.50000   0.21355   0.83333   0.00000  Uiso   1.00
Cu1554 Cu    0.50000   0.11978   0.83333   0.00000  Uiso   1.00
H1555  H     0.41083   0.15281   0.93229   0.00000  Uiso   1.00
H1556  H     0.44007   0.08273   0.76730   0.00000  Uiso   1.00
H1557  H     0.42868   0.03383   0.73687   0.00000  Uiso   1.00
H1558  H     0.64619   0.24863   0.89285   0.00000  Uiso   1.00
H1559  H     0.65044   0.30098   0.92762   0.00000  Uiso   1.00
H1560  H     0.64168   0.24692   0.95887   0.00000  Uiso   1.00
H1561  H     0.57717   0.29168   0.94674   0.00000  Uiso   1.00
H1562  H     0.57165   0.23765   0.91748   0.00000  Uiso   1.00
H1563  H     0.58401   0.27719   0.83318   0.00000  Uiso   1.00
H1564  H     0.59749   0.32556   0.86186   0.00000  Uiso   1.00
H1565  H     0.58044   0.03915   0.67718   0.00000  Uiso   1.00
H1566  H     0.58932   0.21839   0.75025   0.00000  Uiso   1.00
H1567  H     0.55869   0.09455   0.99828   0.00000  Uiso   1.00
H1568  H     0.53248   0.05283   0.70251   0.00000  Uiso   1.00
H1569  H     0.49544   0.05420   0.95278   0.00000  Uiso   1.00
H1570  H     0.52065   0.00117   0.96257   0.00000  Uiso   1.00
H1571  H     0.58174   0.03533   0.91825   0.00000  Uiso   1.00
H1572  H     0.55596   0.08396   0.90492   0.00000  Uiso   1.00
H1573  H     0.43641   0.23519   0.67004   0.00000  Uiso   1.00
H1574  H     0.41216   0.28963   0.99367   0.00000  Uiso   1.00
H1575  H     0.45868   0.27822   0.96389   0.00000  Uiso   1.00
H1576  H     0.47514   0.32913   0.70198   0.00000  Uiso   1.00
H1577  H     0.64033   0.11162   0.94752   0.00000  Uiso   1.00
H1578  H     0.50003   0.27642   0.71147   0.00000  Uiso   1.00
H1579  H     0.44337   0.24760   0.76361   0.00000  Uiso   1.00
H1580  H     0.41552   0.29482   0.75334   0.00000  Uiso   1.00
H1581  H     0.36152   0.22298   0.72154   0.00000  Uiso   1.00
H1582  H     0.36033   0.08963   0.75809   0.00000  Uiso   1.00
H1583  H     0.35019   0.03144   0.73793   0.00000  Uiso   1.00
H1584  H     0.66170   0.05087   0.79286   0.00000  Uiso   1.00
H1585  H     0.38954   0.00193   0.81255   0.00000  Uiso   1.00
H1586  H     0.39708   0.05739   0.83784   0.00000  Uiso   1.00
N1587  N     0.50000   0.28402   0.83333   0.00000  Uiso   1.00
N1588  N     0.50000   0.04931   0.83333   0.00000  Uiso   1.00
O1589  O     0.43988   0.20625   0.83333   0.00000  Uiso   1.00
O1590  O     0.62198   0.18452   0.70509   0.00000  Uiso   1.00
O1591  O     0.59800   0.15801   0.93554   0.00000  Uiso   1.00
O1592  O     0.40013   0.17171   0.72892   0.00000  Uiso   1.00
O1593  O     0.56012   0.12709   0.83334   0.00000  Uiso   1.00
O1594  O     0.56012   0.20625   0.83334   0.00000  Uiso   1.00
O1595  O     0.43988   0.12709   0.83333   0.00000  Uiso   1.00
O1596  O     0.50000   0.20625   0.76280   0.00000  Uiso   1.00
O1597  O     0.50000   0.12708   0.90387   0.00000  Uiso   1.00
O1598  O     0.50000   0.20625   0.90387   0.00000  Uiso   1.00
O1599  O     0.50000   0.12708   0.76280   0.00000  Uiso   1.00
O1600  O     0.37792   0.09405   0.93642   0.00000  Uiso   1.00
C1601  C     0.75435   0.16587   0.83239   0.00000  Uiso   1.00
C1602  C     0.68562   0.18010   0.78947   0.00000  Uiso   1.00
C1603  C     0.95723   0.16879   0.83459   0.00000  Uiso   1.00
C1604  C     0.70942   0.16406   0.83177   0.00000  Uiso   1.00
C1605  C     0.80461   0.02388   0.80311   0.00000  Uiso   1.00
C1606  C     0.86423   0.31043   0.85941   0.00000  Uiso   1.00
C1607  C     0.85996   0.02513   0.86539   0.00000  Uiso   1.00
C1608  C     0.80605   0.30794   0.80123   0.00000  Uiso   1.00
C1609  C     0.71751   0.13185   0.91802   0.00000  Uiso   1.00
C1610  C     0.94902   0.19729   0.74638   0.00000  Uiso   1.00
C1611  C     0.96129   0.13825   0.92308   0.00000  Uiso   1.00
C1612  C     0.91231   0.16740   0.83406   0.00000  Uiso   1.00
C1613  C     0.70568   0.19382   0.74352   0.00000  Uiso   1.00
C1614  C     0.76770   0.04648   0.77507   0.00000  Uiso   1.00
C1615  C     0.72776   0.03860   0.80249   0.00000  Uiso   1.00
C1616  C     0.68933   0.05366   0.77081   0.00000  Uiso   1.00
C1617  C     0.90905   0.29552   0.86582   0.00000  Uiso   1.00
C1618  C     0.92066   0.27175   0.91578   0.00000  Uiso   1.00
C1619  C     0.96766   0.26674   0.92417   0.00000  Uiso   1.00
C1620  C     0.88322   0.04749   0.91051   0.00000  Uiso   1.00
C1621  C     0.85964   0.03853   0.95707   0.00000  Uiso   1.00
C1622  C     0.88439   0.05750   0.66987   0.00000  Uiso   1.00
C1623  C     0.83333   0.16690   0.74046   0.00000  Uiso   1.00
C1624  C     0.78141   0.28403   0.75784   0.00000  Uiso   1.00
C1625  C     0.80254   0.29215   0.70910   0.00000  Uiso   1.00
C1626  C     0.77571   0.27251   0.99820   0.00000  Uiso   1.00
C1627  C     0.83347   0.16644   0.92622   0.00000  Uiso   1.00
C1628  C     0.83344   0.16701   0.68860   0.00000  Uiso   1.00
C1629  C     0.83347   0.16638   0.97809   0.00000  Uiso   1.00
C1630  C     0.69078   0.14822   0.87448   0.00000  Uiso   1.00
C1631  C     0.97570   0.18263   0.79095   0.00000  Uiso   1.00
C1632  C     0.98093   0.15118   0.87641   0.00000  Uiso   1.00
Cu1633 Cu    0.83333   0.21355   0.83333   0.00000  Uiso   1.00
Cu1634 Cu    0.83333   0.11978   0.83333   0.00000  Uiso   1.00
H1635  H     0.74416   0.15281   0.93229   0.00000  Uiso   1.00
H1636  H     0.77340   0.08273   0.76730   0.00000  Uiso   1.00
H1637  H     0.76201   0.03383   0.73687   0.00000  Uiso   1.00
H1638  H     0.97953   0.24863   0.89285   0.00000  Uiso   1.00
H1639  H     0.98377   0.30098   0.92762   0.00000  Uiso   1.00
H1640  H     0.97501   0.24692   0.95887   0.00000  Uiso   1.00
H1641  H     0.91051   0.29168   0.94674   0.00000  Uiso   1.00
H1642  H     0.90498   0.23765   0.91748   0.00000  Uiso   1.00
H1643  H     0.91735   0.27719   0.83318   0.00000  Uiso   1.00
H1644  H     0.93083   0.32556   0.86186   0.00000  Uiso   1.00
H1645  H     0.91377   0.03915   0.67718   0.00000  Uiso   1.00
H1646  H     0.92265   0.21839   0.75025   0.00000  Uiso   1.00
H1647  H     0.89203   0.09455   0.99828   0.00000  Uiso   1.00
H1648  H     0.86581   0.05283   0.70251   0.00000  Uiso   1.00
H1649  H     0.82877   0.05420   0.95278   0.00000  Uiso   1.00
H1650  H     0.85399   0.00117   0.96257   0.00000  Uiso   1.00
H1651  H     0.91508   0.03533   0.91825   0.00000  Uiso   1.00
H1652  H     0.88929   0.08396   0.90492   0.00000  Uiso   1.00
H1653  H     0.76975   0.23519   0.67004   0.00000  Uiso   1.00
H1654  H     0.74550   0.28963   0.99367   0.00000  Uiso   1.00
H1655  H     0.79202   0.27822   0.96389   0.00000  Uiso   1.00
H1656  H     0.80847   0.32913   0.70198   0.00000  Uiso   1.00
H1657  H     0.97367   0.11162   0.94752   0.00000  Uiso   1.00
H1658  H     0.83336   0.27642   0.71147   0.00000  Uiso   1.00
H1659  H     0.77671   0.24760   0.76361   0.00000  Uiso   1.00
H1660  H     0.74885   0.29482   0.75334   0.00000  Uiso   1.00
H1661  H     0.69485   0.22298   0.72154   0.00000  Uiso   1.00
H1662  H     0.69367   0.08963   0.75809   0.00000  Uiso   1.00
H1663  H     0.68352   0.03144   0.73793   0.00000  Uiso   1.00
H1664  H     0.99503   0.05087   0.79286   0.00000  Uiso   1.00
H1665  H     0.72287   0.00193   0.81255   0.00000  Uiso   1.00
H1666  H     0.73041   0.05739   0.83784   0.00000  Uiso   1.00
N1667  N     0.83333   0.28402   0.83333   0.00000  Uiso   1.00
N1668  N     0.83333   0.04931   0.83333   0.00000  Uiso   1.00
O1669  O     0.77321   0.20625   0.83333   0.00000  Uiso   1.00
O1670  O     0.95532   0.18452   0.70509   0.00000  Uiso   1.00
O1671  O     0.93134   0.15801   0.93554   0.00000  Uiso   1.00
O1672  O     0.73346   0.17171   0.72892   0.00000  Uiso   1.00
O1673  O     0.89345   0.12709   0.83334   0.00000  Uiso   1.00
O1674  O     0.89345   0.20625   0.83334   0.00000  Uiso   1.00
O1675  O     0.77321   0.12709   0.83333   0.00000  Uiso   1.00
O1676  O     0.83333   0.20625   0.76280   0.00000  Uiso   1.00
O1677  O     0.83333   0.12708   0.90387   0.00000  Uiso   1.00
O1678  O     0.83333   0.20625   0.90387   0.00000  Uiso   1.00
O1679  O     0.83333   0.12708   0.76280   0.00000  Uiso   1.00
O1680  O     0.71125   0.09405   0.93642   0.00000  Uiso   1.00
C1681  C     0.08768   0.49920   0.83239   0.00000  Uiso   1.00
C1682  C     0.01896   0.51344   0.78947   0.00000  Uiso   1.00
C1683  C     0.29056   0.50213   0.83459   0.00000  Uiso   1.00
C1684  C     0.04275   0.49739   0.83177   0.00000  Uiso   1.00
C1685  C     0.13794   0.35721   0.80311   0.00000  Uiso   1.00
C1686  C     0.19756   0.64377   0.85941   0.00000  Uiso   1.00
C1687  C     0.19330   0.35847   0.86539   0.00000  Uiso   1.00
C1688  C     0.13939   0.64128   0.80123   0.00000  Uiso   1.00
C1689  C     0.05084   0.46519   0.91802   0.00000  Uiso   1.00
C1690  C     0.28235   0.53063   0.74638   0.00000  Uiso   1.00
C1691  C     0.29462   0.47158   0.92308   0.00000  Uiso   1.00
C1692  C     0.24565   0.50074   0.83406   0.00000  Uiso   1.00
C1693  C     0.03901   0.52715   0.74352   0.00000  Uiso   1.00
C1694  C     0.10103   0.37981   0.77507   0.00000  Uiso   1.00
C1695  C     0.06109   0.37194   0.80249   0.00000  Uiso   1.00
C1696  C     0.02266   0.38699   0.77081   0.00000  Uiso   1.00
C1697  C     0.24238   0.62885   0.86582   0.00000  Uiso   1.00
C1698  C     0.25399   0.60508   0.91578   0.00000  Uiso   1.00
C1699  C     0.30099   0.60007   0.92417   0.00000  Uiso   1.00
C1700  C     0.21655   0.38083   0.91051   0.00000  Uiso   1.00
C1701  C     0.19297   0.37186   0.95707   0.00000  Uiso   1.00
C1702  C     0.21772   0.39083   0.66987   0.00000  Uiso   1.00
C1703  C     0.16667   0.50024   0.74046   0.00000  Uiso   1.00
C1704  C     0.11475   0.61736   0.75784   0.00000  Uiso   1.00
C1705  C     0.13587   0.62548   0.70910   0.00000  Uiso   1.00
C1706  C     0.10904   0.60585   0.99820   0.00000  Uiso   1.00
C1707  C     0.16680   0.49978   0.92622   0.00000  Uiso   1.00
C1708  C     0.16677   0.50034   0.68860   0.00000  Uiso   1.00
C1709  C     0.16680   0.49971   0.97809   0.00000  Uiso   1.00
C1710  C     0.02412   0.48156   0.87448   0.00000  Uiso   1.00
C1711  C     0.30903   0.51597   0.79095   0.00000  Uiso   1.00
C1712  C     0.31426   0.48451   0.87641   0.00000  Uiso   1.00
Cu1713 Cu    0.16667   0.54689   0.83333   0.00000  Uiso   1.00
Cu1714 Cu    0.16667   0.45311   0.83333   0.00000  Uiso   1.00
H1715  H     0.07749   0.48614   0.93229   0.00000  Uiso   1.00
H1716  H     0.10674   0.41607   0.76730   0.00000  Uiso   1.00
H1717  H     0.09534   0.36716   0.73687   0.00000  Uiso   1.00
H1718  H     0.31286   0.58196   0.89285   0.00000  Uiso   1.00
H1719  H     0.31710   0.63432   0.92762   0.00000  Uiso   1.00
H1720  H     0.30834   0.58026   0.95887   0.00000  Uiso   1.00
H1721  H     0.24384   0.62501   0.94674   0.00000  Uiso   1.00
H1722  H     0.23831   0.57098   0.91748   0.00000  Uiso   1.00
H1723  H     0.25068   0.61052   0.83318   0.00000  Uiso   1.00
H1724  H     0.26416   0.65889   0.86186   0.00000  Uiso   1.00
H1725  H     0.24711   0.37249   0.67718   0.00000  Uiso   1.00
H1726  H     0.25599   0.55172   0.75025   0.00000  Uiso   1.00
H1727  H     0.22536   0.42788   0.99828   0.00000  Uiso   1.00
H1728  H     0.19914   0.38616   0.70251   0.00000  Uiso   1.00
H1729  H     0.16211   0.38753   0.95278   0.00000  Uiso   1.00
H1730  H     0.18732   0.33450   0.96257   0.00000  Uiso   1.00
H1731  H     0.24841   0.36866   0.91825   0.00000  Uiso   1.00
H1732  H     0.22262   0.41729   0.90492   0.00000  Uiso   1.00
H1733  H     0.10308   0.56852   0.67004   0.00000  Uiso   1.00
H1734  H     0.07883   0.62296   0.99367   0.00000  Uiso   1.00
H1735  H     0.12535   0.61156   0.96389   0.00000  Uiso   1.00
H1736  H     0.14180   0.66246   0.70198   0.00000  Uiso   1.00
H1737  H     0.30700   0.44495   0.94752   0.00000  Uiso   1.00
H1738  H     0.16670   0.60975   0.71147   0.00000  Uiso   1.00
H1739  H     0.11004   0.58093   0.76361   0.00000  Uiso   1.00
H1740  H     0.08218   0.62815   0.75334   0.00000  Uiso   1.00
H1741  H     0.02819   0.55631   0.72154   0.00000  Uiso   1.00
H1742  H     0.02700   0.42296   0.75809   0.00000  Uiso   1.00
H1743  H     0.01686   0.36477   0.73793   0.00000  Uiso   1.00
H1744  H     0.32837   0.38420   0.79286   0.00000  Uiso   1.00
H1745  H     0.05620   0.33526   0.81255   0.00000  Uiso   1.00
H1746  H     0.06374   0.39072   0.83784   0.00000  Uiso   1.00
N1747  N     0.16667   0.61736   0.83333   0.00000  Uiso   1.00
N1748  N     0.16667   0.38264   0.83333   0.00000  Uiso   1.00
O1749  O     0.10655   0.53958   0.83333   0.00000  Uiso   1.00
O1750  O     0.28865   0.51785   0.70509   0.00000  Uiso   1.00
O1751  O     0.26467   0.49135   0.93554   0.00000  Uiso   1.00
O1752  O     0.06680   0.50504   0.72892   0.00000  Uiso   1.00
O1753  O     0.22679   0.46042   0.83334   0.00000  Uiso   1.00
O1754  O     0.22679   0.53958   0.83334   0.00000  Uiso   1.00
O1755  O     0.10655   0.46042   0.83333   0.00000  Uiso   1.00
O1756  O     0.16667   0.53959   0.76280   0.00000  Uiso   1.00
O1757  O     0.16667   0.46041   0.90387   0.00000  Uiso   1.00
O1758  O     0.16667   0.53959   0.90387   0.00000  Uiso   1.00
O1759  O     0.16667   0.46041   0.76280   0.00000  Uiso   1.00
O1760  O     0.04459   0.42738   0.93642   0.00000  Uiso   1.00
C1761  C     0.42102   0.49920   0.83239   0.00000  Uiso   1.00
C1762  C     0.35229   0.51344   0.78947   0.00000  Uiso   1.00
C1763  C     0.62389   0.50213   0.83459   0.00000  Uiso   1.00
C1764  C     0.37609   0.49739   0.83177   0.00000  Uiso   1.00
C1765  C     0.47127   0.35721   0.80311   0.00000  Uiso   1.00
C1766  C     0.53089   0.64377   0.85941   0.00000  Uiso   1.00
C1767  C     0.52663   0.35847   0.86539   0.00000  Uiso   1.00
C1768  C     0.47272   0.64128   0.80123   0.00000  Uiso   1.00
C1769  C     0.38418   0.46519   0.91802   0.00000  Uiso   1.00
C1770  C     0.61568   0.53063   0.74638   0.00000  Uiso   1.00
C1771  C     0.62796   0.47158   0.92308   0.00000  Uiso   1.00
C1772  C     0.57898   0.50074   0.83406   0.00000  Uiso   1.00
C1773  C     0.37234   0.52715   0.74352   0.00000  Uiso   1.00
C1774  C     0.43436   0.37981   0.77507   0.00000  Uiso   1.00
C1775  C     0.39442   0.37194   0.80249   0.00000  Uiso   1.00
C1776  C     0.35599   0.38699   0.77081   0.00000  Uiso   1.00
C1777  C     0.57571   0.62885   0.86582   0.00000  Uiso   1.00
C1778  C     0.58732   0.60508   0.91578   0.00000  Uiso   1.00
C1779  C     0.63433   0.60007   0.92417   0.00000  Uiso   1.00
C1780  C     0.54989   0.38083   0.91051   0.00000  Uiso   1.00
C1781  C     0.52630   0.37186   0.95707   0.00000  Uiso   1.00
C1782  C     0.55105   0.39083   0.66987   0.00000  Uiso   1.00
C1783  C     0.50000   0.50024   0.74046   0.00000  Uiso   1.00
C1784  C     0.44808   0.61736   0.75784   0.00000  Uiso   1.00
C1785  C     0.46921   0.62548   0.70910   0.00000  Uiso   1.00
C1786  C     0.44237   0.60585   0.99820   0.00000  Uiso   1.00
C1787  C     0.50014   0.49978   0.92622   0.00000  Uiso   1.00
C1788  C     0.50010   0.50034   0.68860   0.00000  Uiso   1.00
C1789  C     0.50013   0.49971   0.97809   0.00000  Uiso   1.00
C1790  C     0.35745   0.48156   0.87448   0.00000  Uiso   1.00
C1791  C     0.64237   0.51597   0.79095   0.00000  Uiso   1.00
C1792  C     0.64760   0.48451   0.87641   0.00000  Uiso   1.00
Cu1793 Cu    0.50000   0.54689   0.83333   0.00000  Uiso   1.00
Cu1794 Cu    0.50000   0.45311   0.83333   0.00000  Uiso   1.00
H1795  H     0.41083   0.48614   0.93229   0.00000  Uiso   1.00
H1796  H     0.44007   0.41607   0.76730   0.00000  Uiso   1.00
H1797  H     0.42868   0.36716   0.73687   0.00000  Uiso   1.00
H1798  H     0.64619   0.58196   0.89285   0.00000  Uiso   1.00
H1799  H     0.65044   0.63432   0.92762   0.00000  Uiso   1.00
H1800  H     0.64168   0.58026   0.95887   0.00000  Uiso   1.00
H1801  H     0.57717   0.62501   0.94674   0.00000  Uiso   1.00
H1802  H     0.57165   0.57098   0.91748   0.00000  Uiso   1.00
H1803  H     0.58401   0.61052   0.83318   0.00000  Uiso   1.00
H1804  H     0.59749   0.65889   0.86186   0.00000  Uiso   1.00
H1805  H     0.58044   0.37249   0.67718   0.00000  Uiso   1.00
H1806  H     0.58932   0.55172   0.75025   0.00000  Uiso   1.00
H1807  H     0.55869   0.42788   0.99828   0.00000  Uiso   1.00
H1808  H     0.53248   0.38616   0.70251   0.00000  Uiso   1.00
H1809  H     0.49544   0.38753   0.95278   0.00000  Uiso   1.00
H1810  H     0.52065   0.33450   0.96257   0.00000  Uiso   1.00
H1811  H     0.58174   0.36866   0.91825   0.00000  Uiso   1.00
H1812  H     0.55596   0.41729   0.90492   0.00000  Uiso   1.00
H1813  H     0.43641   0.56852   0.67004   0.00000  Uiso   1.00
H1814  H     0.41216   0.62296   0.99367   0.00000  Uiso   1.00
H1815  H     0.45868   0.61156   0.96389   0.00000  Uiso   1.00
H1816  H     0.47514   0.66246   0.70198   0.00000  Uiso   1.00
H1817  H     0.64033   0.44495   0.94752   0.00000  Uiso   1.00
H1818  H     0.50003   0.60975   0.71147   0.00000  Uiso   1.00
H1819  H     0.44337   0.58093   0.76361   0.00000  Uiso   1.00
H1820  H     0.41552   0.62815   0.75334   0.00000  Uiso   1.00
H1821  H     0.36152   0.55631   0.72154   0.00000  Uiso   1.00
H1822  H     0.36033   0.42296   0.75809   0.00000  Uiso   1.00
H1823  H     0.35019   0.36477   0.73793   0.00000  Uiso   1.00
H1824  H     0.66170   0.38420   0.79286   0.00000  Uiso   1.00
H1825  H     0.38954   0.33526   0.81255   0.00000  Uiso   1.00
H1826  H     0.39708   0.39072   0.83784   0.00000  Uiso   1.00
N1827  N     0.50000   0.61736   0.83333   0.00000  Uiso   1.00
N1828  N     0.50000   0.38264   0.83333   0.00000  Uiso   1.00
O1829  O     0.43988   0.53958   0.83333   0.00000  Uiso   1.00
O1830  O     0.62198   0.51785   0.70509   0.00000  Uiso   1.00
O1831  O     0.59800   0.49135   0.93554   0.00000  Uiso   1.00
O1832  O     0.40013   0.50504   0.72892   0.00000  Uiso   1.00
O1833  O     0.56012   0.46042   0.83334   0.00000  Uiso   1.00
O1834  O     0.56012   0.53958   0.83334   0.00000  Uiso   1.00
O1835  O     0.43988   0.46042   0.83333   0.00000  Uiso   1.00
O1836  O     0.50000   0.53959   0.76280   0.00000  Uiso   1.00
O1837  O     0.50000   0.46041   0.90387   0.00000  Uiso   1.00
O1838  O     0.50000   0.53959   0.90387   0.00000  Uiso   1.00
O1839  O     0.50000   0.46041   0.76280   0.00000  Uiso   1.00
O1840  O     0.37792   0.42738   0.93642   0.00000  Uiso   1.00
C1841  C     0.75435   0.49920   0.83239   0.00000  Uiso   1.00
C1842  C     0.68562   0.51344   0.78947   0.00000  Uiso   1.00
C1843  C     0.95723   0.50213   0.83459   0.00000  Uiso   1.00
C1844  C     0.70942   0.49739   0.83177   0.00000  Uiso   1.00
C1845  C     0.80461   0.35721   0.80311   0.00000  Uiso   1.00
C1846  C     0.86423   0.64377   0.85941   0.00000  Uiso   1.00
C1847  C     0.85996   0.35847   0.86539   0.00000  Uiso   1.00
C1848  C     0.80605   0.64128   0.80123   0.00000  Uiso   1.00
C1849  C     0.71751   0.46519   0.91802   0.00000  Uiso   1.00
C1850  C     0.94902   0.53063   0.74638   0.00000  Uiso   1.00
C1851  C     0.96129   0.47158   0.92308   0.00000  Uiso   1.00
C1852  C     0.91231   0.50074   0.83406   0.00000  Uiso   1.00
C1853  C     0.70568   0.52715   0.74352   0.00000  Uiso   1.00
C1854  C     0.76770   0.37981   0.77507   0.00000  Uiso   1.00
C1855  C     0.72776   0.37194   0.80249   0.00000  Uiso   1.00
C1856  C     0.68933   0.38699   0.77081   0.00000  Uiso   1.00
C1857  C     0.90905   0.62885   0.86582   0.00000  Uiso   1.00
C1858  C     0.92066   0.60508   0.91578   0.00000  Uiso   1.00
C1859  C     0.96766   0.60007   0.92417   0.00000  Uiso   1.00
C1860  C     0.88322   0.38083   0.91051   0.00000  Uiso   1.00
C1861  C     0.85964   0.37186   0.95707   0.00000  Uiso   1.00
C1862  C     0.88439   0.39083   0.66987   0.00000  Uiso   1.00
C1863  C     0.83333   0.50024   0.74046   0.00000  Uiso   1.00
C1864  C     0.78141   0.61736   0.75784   0.00000  Uiso   1.00
C1865  C     0.80254   0.62548   0.70910   0.00000  Uiso   1.00
C1866  C     0.77571   0.60585   0.99820   0.00000  Uiso   1.00
C1867  C     0.83347   0.49978   0.92622   0.00000  Uiso   1.00
C1868  C     0.83344   0.50034   0.68860   0.00000  Uiso   1.00
C1869  C     0.83347   0.49971   0.97809   0.00000  Uiso   1.00
C1870  C     0.69078   0.48156   0.87448   0.00000  Uiso   1.00
C1871  C     0.97570   0.51597   0.79095   0.00000  Uiso   1.00
C1872  C     0.98093   0.48451   0.87641   0.00000  Uiso   1.00
Cu1873 Cu    0.83333   0.54689   0.83333   0.00000  Uiso   1.00
Cu1874 Cu    0.83333   0.45311   0.83333   0.00000  Uiso   1.00
H1875  H     0.74416   0.48614   0.93229   0.00000  Uiso   1.00
H1876  H     0.77340   0.41607   0.76730   0.00000  Uiso   1.00
H1877  H     0.76201   0.36716   0.73687   0.00000  Uiso   1.00
H1878  H     0.97953   0.58196   0.89285   0.00000  Uiso   1.00
H1879  H     0.98377   0.63432   0.92762   0.00000  Uiso   1.00
H1880  H     0.97501   0.58026   0.95887   0.00000  Uiso   1.00
H1881  H     0.91051   0.62501   0.94674   0.00000  Uiso   1.00
H1882  H     0.90498   0.57098   0.91748   0.00000  Uiso   1.00
H1883  H     0.91735   0.61052   0.83318   0.00000  Uiso   1.00
H1884  H     0.93083   0.65889   0.86186   0.00000  Uiso   1.00
H1885  H     0.91377   0.37249   0.67718   0.00000  Uiso   1.00
H1886  H     0.92265   0.55172   0.75025   0.00000  Uiso   1.00
H1887  H     0.89203   0.42788   0.99828   0.00000  Uiso   1.00
H1888  H     0.86581   0.38616   0.70251   0.00000  Uiso   1.00
H1889  H     0.82877   0.38753   0.95278   0.00000  Uiso   1.00
H1890  H     0.85399   0.33450   0.96257   0.00000  Uiso   1.00
H1891  H     0.91508   0.36866   0.91825   0.00000  Uiso   1.00
H1892  H     0.88929   0.41729   0.90492   0.00000  Uiso   1.00
H1893  H     0.76975   0.56852   0.67004   0.00000  Uiso   1.00
H1894  H     0.74550   0.62296   0.99367   0.00000  Uiso   1.00
H1895  H     0.79202   0.61156   0.96389   0.00000  Uiso   1.00
H1896  H     0.80847   0.66246   0.70198   0.00000  Uiso   1.00
H1897  H     0.97367   0.44495   0.94752   0.00000  Uiso   1.00
H1898  H     0.83336   0.60975   0.71147   0.00000  Uiso   1.00
H1899  H     0.77671   0.58093   0.76361   0.00000  Uiso   1.00
H1900  H     0.74885   0.62815   0.75334   0.00000  Uiso   1.00
H1901  H     0.69485   0.55631   0.72154   0.00000  Uiso   1.00
H1902  H     0.69367   0.42296   0.75809   0.00000  Uiso   1.00
H1903  H     0.68352   0.36477   0.73793   0.00000  Uiso   1.00
H1904  H     0.99503   0.38420   0.79286   0.00000  Uiso   1.00
H1905  H     0.72287   0.33526   0.81255   0.00000  Uiso   1.00
H1906  H     0.73041   0.39072   0.83784   0.00000  Uiso   1.00
N1907  N     0.83333   0.61736   0.83333   0.00000  Uiso   1.00
N1908  N     0.83333   0.38264   0.83333   0.00000  Uiso   1.00
O1909  O     0.77321   0.53958   0.83333   0.00000  Uiso   1.00
O1910  O     0.95532   0.51785   0.70509   0.00000  Uiso   1.00
O1911  O     0.93134   0.49135   0.93554   0.00000  Uiso   1.00
O1912  O     0.73346   0.50504   0.72892   0.00000  Uiso   1.00
O1913  O     0.89345   0.46042   0.83334   0.00000  Uiso   1.00
O1914  O     0.89345   0.53958   0.83334   0.00000  Uiso   1.00
O1915  O     0.77321   0.46042   0.83333   0.00000  Uiso   1.00
O1916  O     0.83333   0.53959   0.76280   0.00000  Uiso   1.00
O1917  O     0.83333   0.46041   0.90387   0.00000  Uiso   1.00
O1918  O     0.83333   0.53959   0.90387   0.00000  Uiso   1.00
O1919  O     0.83333   0.46041   0.76280   0.00000  Uiso   1.00
O1920  O     0.71125   0.42738   0.93642   0.00000  Uiso   1.00
C1921  C     0.08768   0.83253   0.83239   0.00000  Uiso   1.00
C1922  C     0.01896   0.84677   0.78947   0.00000  Uiso   1.00
C1923  C     0.29056   0.83546   0.83459   0.00000  Uiso   1.00
C1924  C     0.04275   0.83073   0.83177   0.00000  Uiso   1.00
C1925  C     0.13794   0.69054   0.80311   0.00000  Uiso   1.00
C1926  C     0.19756   0.97710   0.85941   0.00000  Uiso   1.00
C1927  C     0.19330   0.69180   0.86539   0.00000  Uiso   1.00
C1928  C     0.13939   0.97461   0.80123   0.00000  Uiso   1.00
C1929  C     0.05084   0.79852   0.91802   0.00000  Uiso   1.00
C1930  C     0.28235   0.86396   0.74638   0.00000  Uiso   1.00
C1931  C     0.29462   0.80491   0.92308   0.00000  Uiso   1.00
C1932  C     0.24565   0.83407   0.83406   0.00000  Uiso   1.00
C1933  C     0.03901   0.86048   0.74352   0.00000  Uiso   1.00
C1934  C     0.10103   0.71314   0.77507   0.00000  Uiso   1.00
C1935  C     0.06109   0.70527   0.80249   0.00000  Uiso   1.00
C1936  C     0.02266   0.72032   0.77081   0.00000  Uiso   1.00
C1937  C     0.24238   0.96218   0.86582   0.00000  Uiso   1.00
C1938  C     0.25399   0.93841   0.91578   0.00000  Uiso   1.00
C1939  C     0.30099   0.93340   0.92417   0.00000  Uiso   1.00
C1940  C     0.21655   0.71416   0.91051   0.00000  Uiso   1.00
C1941  C     0.19297   0.70519   0.95707   0.00000  Uiso   1.00
C1942  C     0.21772   0.72417   0.66987   0.00000  Uiso   1.00
C1943  C     0.16667   0.83357   0.74046   0.00000  Uiso   1.00
C1944  C     0.11475   0.95069   0.75784   0.00000  Uiso   1.00
C1945  C     0.13587   0.95881   0.70910   0.00000  Uiso   1.00
C1946  C     0.10904   0.93918   0.99820   0.00000  Uiso   1.00
C1947  C     0.16680   0.83311   0.92622   0.00000  Uiso   1.00
C1948  C     0.16677   0.83368   0.68860   0.00000  Uiso   1.00
C1949  C     0.16680   0.83305   0.97809   0.00000  Uiso   1.00
C1950  C     0.02412   0.81489   0.87448   0.00000  Uiso   1.00
C1951  C     0.30903   0.84930   0.79095   0.00000  Uiso   1.00
C1952  C     0.31426   0.81784   0.87641   0.00000  Uiso   1.00
Cu1953 Cu    0.16667   0.88022   0.83333   0.00000  Uiso   1.00
Cu1954 Cu    0.16667   0.78645   0.83333   0.00000  Uiso   1.00
H1955  H     0.07749   0.81947   0.93229   0.00000  Uiso   1.00
H1956  H     0.10674   0.74940   0.76730   0.00000  Uiso   1.00
H1957  H     0.09534   0.70050   0.73687   0.00000  Uiso   1.00
H1958  H     0.31286   0.91529   0.89285   0.00000  Uiso   1.00
H1959  H     0.31710   0.96765   0.92762   0.00000  Uiso   1.00
H1960  H     0.30834   0.91359   0.95887   0.00000  Uiso   1.00
H1961  H     0.24384   0.95835   0.94674   0.00000  Uiso   1.00
H1962  H     0.23831   0.90431   0.91748   0.00000  Uiso   1.00
H1963  H     0.25068   0.94386   0.83318   0.00000  Uiso   1.00
H1964  H     0.26416   0.99222   0.86186   0.00000  Uiso   1.00
H1965  H     0.24711   0.70582   0.67718   0.00000  Uiso   1.00
H1966  H     0.25599   0.88506   0.75025   0.00000  Uiso   1.00
H1967  H     0.22536   0.76121   0.99828   0.00000  Uiso   1.00
H1968  H     0.19914   0.71950   0.70251   0.00000  Uiso   1.00
H1969  H     0.16211   0.72087   0.95278   0.00000  Uiso   1.00
H1970  H     0.18732   0.66784   0.96257   0.00000  Uiso   1.00
H1971  H     0.24841   0.70200   0.91825   0.00000  Uiso   1.00
H1972  H     0.22262   0.75062   0.90492   0.00000  Uiso   1.00
H1973  H     0.10308   0.90186   0.67004   0.00000  Uiso   1.00
H1974  H     0.07883   0.95629   0.99367   0.00000  Uiso   1.00
H1975  H     0.12535   0.94489   0.96389   0.00000  Uiso   1.00
H1976  H     0.14180   0.99579   0.70198   0.00000  Uiso   1.00
H1977  H     0.30700   0.77829   0.94752   0.00000  Uiso   1.00
H1978  H     0.16670   0.94308   0.71147   0.00000  Uiso   1.00
H1979  H     0.11004   0.91426   0.76361   0.00000  Uiso   1.00
H1980  H     0.08218   0.96148   0.75334   0.00000  Uiso   1.00
H1981  H     0.02819   0.88964   0.72154   0.00000  Uiso   1.00
H1982  H     0.02700   0.75629   0.75809   0.00000  Uiso   1.00
H1983  H     0.01686   0.69811   0.73793   0.00000  Uiso   1.00
H1984  H     0.32837   0.71753   0.79286   0.00000  Uiso   1.00
H1985  H     0.05620   0.66859   0.81255   0.00000  Uiso   1.00
H1986  H     0.06374   0.72405   0.83784   0.00000  Uiso   1.00
N1987  N     0.16667   0.95069   0.83333   0.00000  Uiso   1.00
N1988  N     0.16667   0.71598   0.83333   0.00000  Uiso   1.00
O1989  O     0.10655   0.87291   0.83333   0.00000  Uiso   1.00
O1990  O     0.28865   0.85118   0.70509   0.00000  Uiso   1.00
O1991  O     0.26467   0.82468   0.93554   0.00000  Uiso   1.00
O1992  O     0.06680   0.83837   0.72892   0.00000  Uiso   1.00
O1993  O     0.22679   0.79375   0.83334   0.00000  Uiso   1.00
O1994  O     0.22679   0.87291   0.83334   0.00000  Uiso   1.00
O1995  O     0.10655   0.79375   0.83333   0.00000  Uiso   1.00
O1996  O     0.16667   0.87292   0.76280   0.00000  Uiso   1.00
O1997  O     0.16667   0.79375   0.90387   0.00000  Uiso   1.00
O1998  O     0.16667   0.87292   0.90387   0.00000  Uiso   1.00
O1999  O     0.16667   0.79375   0.76280   0.00000  Uiso   1.00
O2000  O     0.04459   0.76071   0.93642   0.00000  Uiso   1.00
C2001  C     0.42102   0.83253   0.83239   0.00000  Uiso   1.00
C2002  C     0.35229   0.84677   0.78947   0.00000  Uiso   1.00
C2003  C     0.62389   0.83546   0.83459   0.00000  Uiso   1.00
C2004  C     0.37609   0.83073   0.83177   0.00000  Uiso   1.00
C2005  C     0.47127   0.69054   0.80311   0.00000  Uiso   1.00
C2006  C     0.53089   0.97710   0.85941   0.00000  Uiso   1.00
C2007  C     0.52663   0.69180   0.86539   0.00000  Uiso   1.00
C2008  C     0.47272   0.97461   0.80123   0.00000  Uiso   1.00
C2009  C     0.38418   0.79852   0.91802   0.00000  Uiso   1.00
C2010  C     0.61568   0.86396   0.74638   0.00000  Uiso   1.00
C2011  C     0.62796   0.80491   0.92308   0.00000  Uiso   1.00
C2012  C     0.57898   0.83407   0.83406   0.00000  Uiso   1.00
C2013  C     0.37234   0.86048   0.74352   0.00000  Uiso   1.00
C2014  C     0.43436   0.71314   0.77507   0.00000  Uiso   1.00
C2015  C     0.39442   0.70527   0.80249   0.00000  Uiso   1.00
C2016  C     0.35599   0.72032   0.77081   0.00000  Uiso   1.00
C2017  C     0.57571   0.96218   0.86582   0.00000  Uiso   1.00
C2018  C     0.58732   0.93841   0.91578   0.00000  Uiso   1.00
C2019  C     0.63433   0.93340   0.92417   0.00000  Uiso   1.00
C2020  C     0.54989   0.71416   0.91051   0.00000  Uiso   1.00
C2021  C     0.52630   0.70519   0.95707   0.00000  Uiso   1.00
C2022  C     0.55105   0.72417   0.66987   0.00000  Uiso   1.00
C2023  C     0.50000   0.83357   0.74046   0.00000  Uiso   1.00
C2024  C     0.44808   0.95069   0.75784   0.00000  Uiso   1.00
C2025  C     0.46921   0.95881   0.70910   0.00000  Uiso   1.00
C2026  C     0.44237   0.93918   0.99820   0.00000  Uiso   1.00
C2027  C     0.50014   0.83311   0.92622   0.00000  Uiso   1.00
C2028  C     0.50010   0.83368   0.68860   0.00000  Uiso   1.00
C2029  C     0.50013   0.83305   0.97809   0.00000  Uiso   1.00
C2030  C     0.35745   0.81489   0.87448   0.00000  Uiso   1.00
C2031  C     0.64237   0.84930   0.79095   0.00000  Uiso   1.00
C2032  C     0.64760   0.81784   0.87641   0.00000  Uiso   1.00
Cu2033 Cu    0.50000   0.88022   0.83333   0.00000  Uiso   1.00
Cu2034 Cu    0.50000   0.78645   0.83333   0.00000  Uiso   1.00
H2035  H     0.41083   0.81947   0.93229   0.00000  Uiso   1.00
H2036  H     0.44007   0.74940   0.76730   0.00000  Uiso   1.00
H2037  H     0.42868   0.70050   0.73687   0.00000  Uiso   1.00
H2038  H     0.64619   0.91529   0.89285   0.00000  Uiso   1.00
H2039  H     0.65044   0.96765   0.92762   0.00000  Uiso   1.00
H2040  H     0.64168   0.91359   0.95887   0.00000  Uiso   1.00
H2041  H     0.57717   0.95835   0.94674   0.00000  Uiso   1.00
H2042  H     0.57165   0.90431   0.91748   0.00000  Uiso   1.00
H2043  H     0.58401   0.94386   0.83318   0.00000  Uiso   1.00
H2044  H     0.59749   0.99222   0.86186   0.00000  Uiso   1.00
H2045  H     0.58044   0.70582   0.67718   0.00000  Uiso   1.00
H2046  H     0.58932   0.88506   0.75025   0.00000  Uiso   1.00
H2047  H     0.55869   0.76121   0.99828   0.00000  Uiso   1.00
H2048  H     0.53248   0.71950   0.70251   0.00000  Uiso   1.00
H2049  H     0.49544   0.72087   0.95278   0.00000  Uiso   1.00
H2050  H     0.52065   0.66784   0.96257   0.00000  Uiso   1.00
H2051  H     0.58174   0.70200   0.91825   0.00000  Uiso   1.00
H2052  H     0.55596   0.75062   0.90492   0.00000  Uiso   1.00
H2053  H     0.43641   0.90186   0.67004   0.00000  Uiso   1.00
H2054  H     0.41216   0.95629   0.99367   0.00000  Uiso   1.00
H2055  H     0.45868   0.94489   0.96389   0.00000  Uiso   1.00
H2056  H     0.47514   0.99579   0.70198   0.00000  Uiso   1.00
H2057  H     0.64033   0.77829   0.94752   0.00000  Uiso   1.00
H2058  H     0.50003   0.94308   0.71147   0.00000  Uiso   1.00
H2059  H     0.44337   0.91426   0.76361   0.00000  Uiso   1.00
H2060  H     0.41552   0.96148   0.75334   0.00000  Uiso   1.00
H2061  H     0.36152   0.88964   0.72154   0.00000  Uiso   1.00
H2062  H     0.36033   0.75629   0.75809   0.00000  Uiso   1.00
H2063  H     0.35019   0.69811   0.73793   0.00000  Uiso   1.00
H2064  H     0.66170   0.71753   0.79286   0.00000  Uiso   1.00
H2065  H     0.38954   0.66859   0.81255   0.00000  Uiso   1.00
H2066  H     0.39708   0.72405   0.83784   0.00000  Uiso   1.00
N2067  N     0.50000   0.95069   0.83333   0.00000  Uiso   1.00
N2068  N     0.50000   0.71598   0.83333   0.00000  Uiso   1.00
O2069  O     0.43988   0.87291   0.83333   0.00000  Uiso   1.00
O2070  O     0.62198   0.85118   0.70509   0.00000  Uiso   1.00
O2071  O     0.59800   0.82468   0.93554   0.00000  Uiso   1.00
O2072  O     0.40013   0.83837   0.72892   0.00000  Uiso   1.00
O2073  O     0.56012   0.79375   0.83334   0.00000  Uiso   1.00
O2074  O     0.56012   0.87291   0.83334   0.00000  Uiso   1.00
O2075  O     0.43988   0.79375   0.83333   0.00000  Uiso   1.00
O2076  O     0.50000   0.87292   0.76280   0.00000  Uiso   1.00
O2077  O     0.50000   0.79375   0.90387   0.00000  Uiso   1.00
O2078  O     0.50000   0.87292   0.90387   0.00000  Uiso   1.00
O2079  O     0.50000   0.79375   0.76280   0.00000  Uiso   1.00
O2080  O     0.37792   0.76071   0.93642   0.00000  Uiso   1.00
C2081  C     0.75435   0.83253   0.83239   0.00000  Uiso   1.00
C2082  C     0.68562   0.84677   0.78947   0.00000  Uiso   1.00
C2083  C     0.95723   0.83546   0.83459   0.00000  Uiso   1.00
C2084  C     0.70942   0.83073   0.83177   0.00000  Uiso   1.00
C2085  C     0.80461   0.69054   0.80311   0.00000  Uiso   1.00
C2086  C     0.86423   0.97710   0.85941   0.00000  Uiso   1.00
C2087  C     0.85996   0.69180   0.86539   0.00000  Uiso   1.00
C2088  C     0.80605   0.97461   0.80123   0.00000  Uiso   1.00
C2089  C     0.71751   0.79852   0.91802   0.00000  Uiso   1.00
C2090  C     0.94902   0.86396   0.74638   0.00000  Uiso   1.00
C2091  C     0.96129   0.80491   0.92308   0.00000  Uiso   1.00
C2092  C     0.91231   0.83407   0.83406   0.00000  Uiso   1.00
C2093  C     0.70568   0.86048   0.74352   0.00000  Uiso   1.00
C2094  C     0.76770   0.71314   0.77507   0.00000  Uiso   1.00
C2095  C     0.72776   0.70527   0.80249   0.00000  Uiso   1.00
C2096  C     0.68933   0.72032   0.77081   0.00000  Uiso   1.00
C2097  C     0.90905   0.96218   0.86582   0.00000  Uiso   1.00
C2098  C     0.92066   0.93841   0.91578   0.00000  Uiso   1.00
C2099  C     0.96766   0.93340   0.92417   0.00000  Uiso   1.00
C2100  C     0.88322   0.71416   0.91051   0.00000  Uiso   1.00
C2101  C     0.85964   0.70519   0.95707   0.00000  Uiso   1.00
C2102  C     0.88439   0.72417   0.66987   0.00000  Uiso   1.00
C2103  C     0.83333   0.83357   0.74046   0.00000  Uiso   1.00
C2104  C     0.78141   0.95069   0.75784   0.00000  Uiso   1.00
C2105  C     0.80254   0.95881   0.70910   0.00000  Uiso   1.00
C2106  C     0.77571   0.93918   0.99820   0.00000  Uiso   1.00
C2107  C     0.83347   0.83311   0.92622   0.00000  Uiso   1.00
C2108  C     0.83344   0.83368   0.68860   0.00000  Uiso   1.00
C2109  C     0.83347   0.83305   0.97809   0.00000  Uiso   1.00
C2110  C     0.69078   0.81489   0.87448   0.00000  Uiso   1.00
C2111  C     0.97570   0.84930   0.79095   0.00000  Uiso   1.00
C2112  C     0.98093   0.81784   0.87641   0.00000  Uiso   1.00
Cu2113 Cu    0.83333   0.88022   0.83333   0.00000  Uiso   1.00
Cu2114 Cu    0.83333   0.78645   0.83333   0.00000  Uiso   1.00
H2115  H     0.74416   0.81947   0.93229   0.00000  Uiso   1.00
H2116  H     0.77340   0.74940   0.76730   0.00000  Uiso   1.00
H2117  H     0.76201   0.70050   0.73687   0.00000  Uiso   1.00
H2118  H     0.97953   0.91529   0.89285   0.00000  Uiso   1.00
H2119  H     0.98377   0.96765   0.92762   0.00000  Uiso   1.00
H2120  H     0.97501   0.91359   0.95887   0.00000  Uiso   1.00
H2121  H     0.91051   0.95835   0.94674   0.00000  Uiso   1.00
H2122  H     0.90498   0.90431   0.91748   0.00000  Uiso   1.00
H2123  H     0.91735   0.94386   0.83318   0.00000  Uiso   1.00
H2124  H     0.93083   0.99222   0.86186   0.00000  Uiso   1.00
H2125  H     0.91377   0.70582   0.67718   0.00000  Uiso   1.00
H2126  H     0.92265   0.88506   0.75025   0.00000  Uiso   1.00
H2127  H     0.89203   0.76121   0.99828   0.00000  Uiso   1.00
H2128  H     0.86581   0.71950   0.70251   0.00000  Uiso   1.00
H2129  H     0.82877   0.72087   0.95278   0.00000  Uiso   1.00
H2130  H     0.85399   0.66784   0.96257   0.00000  Uiso   1.00
H2131  H     0.91508   0.70200   0.91825   0.00000  Uiso   1.00
H2132  H     0.88929   0.75062   0.90492   0.00000  Uiso   1.00
H2133  H     0.76975   0.90186   0.67004   0.00000  Uiso   1.00
H2134  H     0.74550   0.95629   0.99367   0.00000  Uiso   1.00
H2135  H     0.79202   0.94489   0.96389   0.00000  Uiso   1.00
H2136  H     0.80847   0.99579   0.70198   0.00000  Uiso   1.00
H2137  H     0.97367   0.77829   0.94752   0.00000  Uiso   1.00
H2138  H     0.83336   0.94308   0.71147   0.00000  Uiso   1.00
H2139  H     0.77671   0.91426   0.76361   0.00000  Uiso   1.00
H2140  H     0.74885   0.96148   0.75334   0.00000  Uiso   1.00
H2141  H     0.69485   0.88964   0.72154   0.00000  Uiso   1.00
H2142  H     0.69367   0.75629   0.75809   0.00000  Uiso   1.00
H2143  H     0.68352   0.69811   0.73793   0.00000  Uiso   1.00
H2144  H     0.99503   0.71753   0.79286   0.00000  Uiso   1.00
H2145  H     0.72287   0.66859   0.81255   0.00000  Uiso   1.00
H2146  H     0.73041   0.72405   0.83784   0.00000  Uiso   1.00
N2147  N     0.83333   0.95069   0.83333   0.00000  Uiso   1.00
N2148  N     0.83333   0.71598   0.83333   0.00000  Uiso   1.00
O2149  O     0.77321   0.87291   0.83333   0.00000  Uiso   1.00
O2150  O     0.95532   0.85118   0.70509   0.00000  Uiso   1.00
O2151  O     0.93134   0.82468   0.93554   0.00000  Uiso   1.00
O2152  O     0.73346   0.83837   0.72892   0.00000  Uiso   1.00
O2153  O     0.89345   0.79375   0.83334   0.00000  Uiso   1.00
O2154  O     0.89345   0.87291   0.83334   0.00000  Uiso   1.00
O2155  O     0.77321   0.79375   0.83333   0.00000  Uiso   1.00
O2156  O     0.83333   0.87292   0.76280   0.00000  Uiso   1.00
O2157  O     0.83333   0.79375   0.90387   0.00000  Uiso   1.00
O2158  O     0.83333   0.87292   0.90387   0.00000  Uiso   1.00
O2159  O     0.83333   0.79375   0.76280   0.00000  Uiso   1.00
O2160  O     0.71125   0.76071   0.93642   0.00000  Uiso   1.00
loop_
_geom_bond_atom_site_label_1
_geom_bond_atom_site_label_2
_geom_bond_distance
_geom_bond_site_symmetry_2
_ccdc_geom_bond_type
C1     O75     1.308   .     A
C1     O69     1.306   .     A
C1     C4      1.446   .     S
C2     C13     1.489   .     S
C2     C4      1.412   .     A
C2     C191    1.404   1_455 S
C3     C12     1.446   .     S
C3     C31     1.411   .     A
C3     C32     1.417   .     A
C4     C30     1.408   .     A
C5     N68     1.388   .     A
C5     C14     1.528   .     S
C5     C488    1.446   1_545 S
C6     N67     1.390   .     A
C6     C17     1.523   .     S
C6     C247    1.430   .     S
C7     N68     1.379   .     A
C7     C20     1.525   .     S
C7     C486    1.430   1_545 S
C8     C24     1.529   .     S
C8     N67     1.389   .     A
C8     C245    1.446   .     S
C9     O80     1.221   .     D
C9     C30     1.489   .     S
C9     H35     1.084   .     S
C10    C31     1.493   .     S
C10    H46     1.084   .     S
C10    O70     1.220   .     D
C11    O71     1.219   .     D
C11    C32     1.494   .     S
C11    H57     1.082   .     S
C12    O74     1.310   .     A
C12    O73     1.304   .     A
C13    O72     1.221   .     D
C13    H61     1.085   .     S
C14    H36     1.088   .     S
C14    H37     1.104   .     S
C14    C15     1.544   .     S
C15    C16     1.526   .     S
C15    H65     1.110   .     S
C15    H66     1.108   .     S
C16    H63     1.111   .     S
C16    H62     1.108   .     S
C16    H224    1.111   1_455 S
C17    C18     1.537   .     S
C17    H43     1.098   .     S
C17    H44     1.111   .     S
C18    H42     1.101   .     S
C18    C19     1.528   .     S
C18    H41     1.108   .     S
C19    H38     1.109   .     S
C19    H39     1.111   .     S
C19    H40     1.110   .     S
C20    H51     1.104   .     S
C20    H52     1.086   .     S
C20    C21     1.537   .     S
C21    H49     1.110   .     S
C21    H50     1.110   .     S
C21    C742    1.528   .     S
C22    H48     1.110   .     S
C22    H45     1.111   .     S
C22    C1461   1.528   1_554 S
C22    H1487   1.109   1_554 S
C23    O76     1.310   .     A
C23    C28     1.405   .     S
C23    O79     1.303   .     A
C24    C25     1.543   .     S
C24    H60     1.106   .     S
C24    H59     1.080   .     S
C25    H56     1.107   .     S
C25    H58     1.109   .     S
C25    C1466   1.527   1_554 S
C26    H55     1.110   .     S
C26    H54     1.111   .     S
C26    C745    1.527   .     S
C26    H773    1.109   .     S
C27    C29     1.405   .     S
C27    O78     1.303   .     A
C27    O77     1.310   .     A
C28    C1469   1.188   1_554 S
C29    C748    1.188   .     S
C30    C192    1.404   1_455 S
C31    C82     1.404   .     S
C32    C110    1.404   .     S
Cu33   O78     1.919   .     S
Cu33   O69     1.942   .     S
Cu33   O76     1.926   .     S
Cu33   Cu34    2.743   .     S
Cu33   N67     2.061   .     S
Cu33   O74     1.959   .     S
Cu34   O77     1.926   .     S
Cu34   O75     1.959   .     S
Cu34   N68     2.061   .     S
Cu34   O79     1.919   .     S
Cu34   O73     1.942   .     S
H47    C742    1.109   .     S
H53    C1466   1.109   1_554 S
H64    C96     1.111   .     S
C81    O155    1.308   .     A
C81    O149    1.306   .     A
C81    C84     1.446   .     S
C82    C93     1.489   .     S
C82    C84     1.412   .     A
C83    C92     1.446   .     S
C83    C111    1.411   .     A
C83    C112    1.417   .     A
C84    C110    1.408   .     A
C85    N148    1.388   .     A
C85    C94     1.528   .     S
C85    C568    1.446   1_545 S
C86    N147    1.390   .     A
C86    C97     1.523   .     S
C86    C327    1.430   .     S
C87    N148    1.379   .     A
C87    C100    1.525   .     S
C87    C566    1.430   1_545 S
C88    C104    1.529   .     S
C88    N147    1.389   .     A
C88    C325    1.446   .     S
C89    O160    1.221   .     D
C89    C110    1.489   .     S
C89    H115    1.084   .     S
C90    C111    1.493   .     S
C90    H126    1.084   .     S
C90    O150    1.220   .     D
C91    O151    1.219   .     D
C91    C112    1.494   .     S
C91    H137    1.082   .     S
C92    O154    1.310   .     A
C92    O153    1.304   .     A
C93    O152    1.221   .     D
C93    H141    1.085   .     S
C94    H116    1.088   .     S
C94    H117    1.104   .     S
C94    C95     1.544   .     S
C95    C96     1.526   .     S
C95    H145    1.110   .     S
C95    H146    1.108   .     S
C96    H143    1.111   .     S
C96    H142    1.108   .     S
C97    C98     1.537   .     S
C97    H123    1.098   .     S
C97    H124    1.111   .     S
C98    H122    1.101   .     S
C98    C99     1.528   .     S
C98    H121    1.108   .     S
C99    H118    1.109   .     S
C99    H119    1.111   .     S
C99    H120    1.110   .     S
C100   H131    1.104   .     S
C100   H132    1.086   .     S
C100   C101    1.537   .     S
C101   H129    1.110   .     S
C101   H130    1.110   .     S
C101   C822    1.528   .     S
C102   H128    1.110   .     S
C102   H125    1.111   .     S
C102   C1541   1.528   1_554 S
C102   H1567   1.109   1_554 S
C103   O156    1.310   .     A
C103   C108    1.405   .     S
C103   O159    1.303   .     A
C104   C105    1.543   .     S
C104   H140    1.106   .     S
C104   H139    1.080   .     S
C105   H136    1.107   .     S
C105   H138    1.109   .     S
C105   C1546   1.527   1_554 S
C106   H135    1.110   .     S
C106   H134    1.111   .     S
C106   C825    1.527   .     S
C106   H853    1.109   .     S
C107   C109    1.405   .     S
C107   O158    1.303   .     A
C107   O157    1.310   .     A
C108   C1549   1.188   1_554 S
C109   C828    1.188   .     S
C111   C162    1.404   .     S
C112   C190    1.404   .     S
Cu113  O158    1.919   .     S
Cu113  O149    1.942   .     S
Cu113  O156    1.926   .     S
Cu113  Cu114   2.743   .     S
Cu113  N147    2.061   .     S
Cu113  O154    1.959   .     S
Cu114  O157    1.926   .     S
Cu114  O155    1.959   .     S
Cu114  N148    2.061   .     S
Cu114  O159    1.919   .     S
Cu114  O153    1.942   .     S
H127   C822    1.109   .     S
H133   C1546   1.109   1_554 S
H144   C176    1.111   .     S
C161   O235    1.308   .     A
C161   O229    1.306   .     A
C161   C164    1.446   .     S
C162   C173    1.489   .     S
C162   C164    1.412   .     A
C163   C172    1.446   .     S
C163   C191    1.411   .     A
C163   C192    1.417   .     A
C164   C190    1.408   .     A
C165   N228    1.388   .     A
C165   C174    1.528   .     S
C165   C648    1.446   1_545 S
C166   N227    1.390   .     A
C166   C177    1.523   .     S
C166   C407    1.430   .     S
C167   N228    1.379   .     A
C167   C180    1.525   .     S
C167   C646    1.430   1_545 S
C168   C184    1.529   .     S
C168   N227    1.389   .     A
C168   C405    1.446   .     S
C169   O240    1.221   .     D
C169   C190    1.489   .     S
C169   H195    1.084   .     S
C170   C191    1.493   .     S
C170   H206    1.084   .     S
C170   O230    1.220   .     D
C171   O231    1.219   .     D
C171   C192    1.494   .     S
C171   H217    1.082   .     S
C172   O234    1.310   .     A
C172   O233    1.304   .     A
C173   O232    1.221   .     D
C173   H221    1.085   .     S
C174   H196    1.088   .     S
C174   H197    1.104   .     S
C174   C175    1.544   .     S
C175   C176    1.526   .     S
C175   H225    1.110   .     S
C175   H226    1.108   .     S
C176   H223    1.111   .     S
C176   H222    1.108   .     S
C177   C178    1.537   .     S
C177   H203    1.098   .     S
C177   H204    1.111   .     S
C178   H202    1.101   .     S
C178   C179    1.528   .     S
C178   H201    1.108   .     S
C179   H198    1.109   .     S
C179   H199    1.111   .     S
C179   H200    1.110   .     S
C180   H211    1.104   .     S
C180   H212    1.086   .     S
C180   C181    1.537   .     S
C181   H209    1.110   .     S
C181   H210    1.110   .     S
C181   C902    1.528   .     S
C182   H208    1.110   .     S
C182   H205    1.111   .     S
C182   C1621   1.528   1_554 S
C182   H1647   1.109   1_554 S
C183   O236    1.310   .     A
C183   C188    1.405   .     S
C183   O239    1.303   .     A
C184   C185    1.543   .     S
C184   H220    1.106   .     S
C184   H219    1.080   .     S
C185   H216    1.107   .     S
C185   H218    1.109   .     S
C185   C1626   1.527   1_554 S
C186   H215    1.110   .     S
C186   H214    1.111   .     S
C186   C905    1.527   .     S
C186   H933    1.109   .     S
C187   C189    1.405   .     S
C187   O238    1.303   .     A
C187   O237    1.310   .     A
C188   C1629   1.188   1_554 S
C189   C908    1.188   .     S
C191   C2      1.404   1_655 S
C192   C30     1.404   1_655 S
Cu193  O238    1.919   .     S
Cu193  O229    1.942   .     S
Cu193  O236    1.926   .     S
Cu193  Cu194   2.743   .     S
Cu193  N227    2.061   .     S
Cu193  O234    1.959   .     S
Cu194  O237    1.926   .     S
Cu194  O235    1.959   .     S
Cu194  N228    2.061   .     S
Cu194  O239    1.919   .     S
Cu194  O233    1.942   .     S
H207   C902    1.109   .     S
H213   C1626   1.109   1_554 S
H224   C16     1.111   1_655 S
C241   O315    1.308   .     A
C241   O309    1.306   .     A
C241   C244    1.446   .     S
C242   C253    1.489   .     S
C242   C244    1.412   .     A
C242   C431    1.404   1_455 S
C243   C252    1.446   .     S
C243   C271    1.411   .     A
C243   C272    1.417   .     A
C244   C270    1.408   .     A
C245   N308    1.388   .     A
C245   C254    1.528   .     S
C246   N307    1.390   .     A
C246   C257    1.523   .     S
C246   C487    1.430   .     S
C247   N308    1.379   .     A
C247   C260    1.525   .     S
C248   C264    1.529   .     S
C248   N307    1.389   .     A
C248   C485    1.446   .     S
C249   O320    1.221   .     D
C249   C270    1.489   .     S
C249   H275    1.084   .     S
C250   C271    1.493   .     S
C250   H286    1.084   .     S
C250   O310    1.220   .     D
C251   O311    1.219   .     D
C251   C272    1.494   .     S
C251   H297    1.082   .     S
C252   O314    1.310   .     A
C252   O313    1.304   .     A
C253   O312    1.221   .     D
C253   H301    1.085   .     S
C254   H276    1.088   .     S
C254   H277    1.104   .     S
C254   C255    1.544   .     S
C255   C256    1.526   .     S
C255   H305    1.110   .     S
C255   H306    1.108   .     S
C256   H303    1.111   .     S
C256   H302    1.108   .     S
C256   H464    1.111   1_455 S
C257   C258    1.537   .     S
C257   H283    1.098   .     S
C257   H284    1.111   .     S
C258   H282    1.101   .     S
C258   C259    1.528   .     S
C258   H281    1.108   .     S
C259   H278    1.109   .     S
C259   H279    1.111   .     S
C259   H280    1.110   .     S
C260   H291    1.104   .     S
C260   H292    1.086   .     S
C260   C261    1.537   .     S
C261   H289    1.110   .     S
C261   H290    1.110   .     S
C261   C982    1.528   .     S
C262   H288    1.110   .     S
C262   H285    1.111   .     S
C262   C1701   1.528   1_554 S
C262   H1727   1.109   1_554 S
C263   O316    1.310   .     A
C263   C268    1.405   .     S
C263   O319    1.303   .     A
C264   C265    1.543   .     S
C264   H300    1.106   .     S
C264   H299    1.080   .     S
C265   H296    1.107   .     S
C265   H298    1.109   .     S
C265   C1706   1.527   1_554 S
C266   H295    1.110   .     S
C266   H294    1.111   .     S
C266   C985    1.527   .     S
C266   H1013   1.109   .     S
C267   C269    1.405   .     S
C267   O318    1.303   .     A
C267   O317    1.310   .     A
C268   C1709   1.188   1_554 S
C269   C988    1.188   .     S
C270   C432    1.404   1_455 S
C271   C322    1.404   .     S
C272   C350    1.404   .     S
Cu273  O318    1.919   .     S
Cu273  O309    1.942   .     S
Cu273  O316    1.926   .     S
Cu273  Cu274   2.743   .     S
Cu273  N307    2.061   .     S
Cu273  O314    1.959   .     S
Cu274  O317    1.926   .     S
Cu274  O315    1.959   .     S
Cu274  N308    2.061   .     S
Cu274  O319    1.919   .     S
Cu274  O313    1.942   .     S
H287   C982    1.109   .     S
H293   C1706   1.109   1_554 S
H304   C336    1.111   .     S
C321   O395    1.308   .     A
C321   O389    1.306   .     A
C321   C324    1.446   .     S
C322   C333    1.489   .     S
C322   C324    1.412   .     A
C323   C332    1.446   .     S
C323   C351    1.411   .     A
C323   C352    1.417   .     A
C324   C350    1.408   .     A
C325   N388    1.388   .     A
C325   C334    1.528   .     S
C326   N387    1.390   .     A
C326   C337    1.523   .     S
C326   C567    1.430   .     S
C327   N388    1.379   .     A
C327   C340    1.525   .     S
C328   C344    1.529   .     S
C328   N387    1.389   .     A
C328   C565    1.446   .     S
C329   O400    1.221   .     D
C329   C350    1.489   .     S
C329   H355    1.084   .     S
C330   C351    1.493   .     S
C330   H366    1.084   .     S
C330   O390    1.220   .     D
C331   O391    1.219   .     D
C331   C352    1.494   .     S
C331   H377    1.082   .     S
C332   O394    1.310   .     A
C332   O393    1.304   .     A
C333   O392    1.221   .     D
C333   H381    1.085   .     S
C334   H356    1.088   .     S
C334   H357    1.104   .     S
C334   C335    1.544   .     S
C335   C336    1.526   .     S
C335   H385    1.110   .     S
C335   H386    1.108   .     S
C336   H383    1.111   .     S
C336   H382    1.108   .     S
C337   C338    1.537   .     S
C337   H363    1.098   .     S
C337   H364    1.111   .     S
C338   H362    1.101   .     S
C338   C339    1.528   .     S
C338   H361    1.108   .     S
C339   H358    1.109   .     S
C339   H359    1.111   .     S
C339   H360    1.110   .     S
C340   H371    1.104   .     S
C340   H372    1.086   .     S
C340   C341    1.537   .     S
C341   H369    1.110   .     S
C341   H370    1.110   .     S
C341   C1062   1.528   .     S
C342   H368    1.110   .     S
C342   H365    1.111   .     S
C342   C1781   1.528   1_554 S
C342   H1807   1.109   1_554 S
C343   O396    1.310   .     A
C343   C348    1.405   .     S
C343   O399    1.303   .     A
C344   C345    1.543   .     S
C344   H380    1.106   .     S
C344   H379    1.080   .     S
C345   H376    1.107   .     S
C345   H378    1.109   .     S
C345   C1786   1.527   1_554 S
C346   H375    1.110   .     S
C346   H374    1.111   .     S
C346   C1065   1.527   .     S
C346   H1093   1.109   .     S
C347   C349    1.405   .     S
C347   O398    1.303   .     A
C347   O397    1.310   .     A
C348   C1789   1.188   1_554 S
C349   C1068   1.188   .     S
C351   C402    1.404   .     S
C352   C430    1.404   .     S
Cu353  O398    1.919   .     S
Cu353  O389    1.942   .     S
Cu353  O396    1.926   .     S
Cu353  Cu354   2.743   .     S
Cu353  N387    2.061   .     S
Cu353  O394    1.959   .     S
Cu354  O397    1.926   .     S
Cu354  O395    1.959   .     S
Cu354  N388    2.061   .     S
Cu354  O399    1.919   .     S
Cu354  O393    1.942   .     S
H367   C1062   1.109   .     S
H373   C1786   1.109   1_554 S
H384   C416    1.111   .     S
C401   O475    1.308   .     A
C401   O469    1.306   .     A
C401   C404    1.446   .     S
C402   C413    1.489   .     S
C402   C404    1.412   .     A
C403   C412    1.446   .     S
C403   C431    1.411   .     A
C403   C432    1.417   .     A
C404   C430    1.408   .     A
C405   N468    1.388   .     A
C405   C414    1.528   .     S
C406   N467    1.390   .     A
C406   C417    1.523   .     S
C406   C647    1.430   .     S
C407   N468    1.379   .     A
C407   C420    1.525   .     S
C408   C424    1.529   .     S
C408   N467    1.389   .     A
C408   C645    1.446   .     S
C409   O480    1.221   .     D
C409   C430    1.489   .     S
C409   H435    1.084   .     S
C410   C431    1.493   .     S
C410   H446    1.084   .     S
C410   O470    1.220   .     D
C411   O471    1.219   .     D
C411   C432    1.494   .     S
C411   H457    1.082   .     S
C412   O474    1.310   .     A
C412   O473    1.304   .     A
C413   O472    1.221   .     D
C413   H461    1.085   .     S
C414   H436    1.088   .     S
C414   H437    1.104   .     S
C414   C415    1.544   .     S
C415   C416    1.526   .     S
C415   H465    1.110   .     S
C415   H466    1.108   .     S
C416   H463    1.111   .     S
C416   H462    1.108   .     S
C417   C418    1.537   .     S
C417   H443    1.098   .     S
C417   H444    1.111   .     S
C418   H442    1.101   .     S
C418   C419    1.528   .     S
C418   H441    1.108   .     S
C419   H438    1.109   .     S
C419   H439    1.111   .     S
C419   H440    1.110   .     S
C420   H451    1.104   .     S
C420   H452    1.086   .     S
C420   C421    1.537   .     S
C421   H449    1.110   .     S
C421   H450    1.110   .     S
C421   C1142   1.528   .     S
C422   H448    1.110   .     S
C422   H445    1.111   .     S
C422   C1861   1.528   1_554 S
C422   H1887   1.109   1_554 S
C423   O476    1.310   .     A
C423   C428    1.405   .     S
C423   O479    1.303   .     A
C424   C425    1.543   .     S
C424   H460    1.106   .     S
C424   H459    1.080   .     S
C425   H456    1.107   .     S
C425   H458    1.109   .     S
C425   C1866   1.527   1_554 S
C426   H455    1.110   .     S
C426   H454    1.111   .     S
C426   C1145   1.527   .     S
C426   H1173   1.109   .     S
C427   C429    1.405   .     S
C427   O478    1.303   .     A
C427   O477    1.310   .     A
C428   C1869   1.188   1_554 S
C429   C1148   1.188   .     S
C431   C242    1.404   1_655 S
C432   C270    1.404   1_655 S
Cu433  O478    1.919   .     S
Cu433  O469    1.942   .     S
Cu433  O476    1.926   .     S
Cu433  Cu434   2.743   .     S
Cu433  N467    2.061   .     S
Cu433  O474    1.959   .     S
Cu434  O477    1.926   .     S
Cu434  O475    1.959   .     S
Cu434  N468    2.061   .     S
Cu434  O479    1.919   .     S
Cu434  O473    1.942   .     S
H447   C1142   1.109   .     S
H453   C1866   1.109   1_554 S
H464   C256    1.111   1_655 S
C481   O555    1.308   .     A
C481   O549    1.306   .     A
C481   C484    1.446   .     S
C482   C493    1.489   .     S
C482   C484    1.412   .     A
C482   C671    1.404   1_455 S
C483   C492    1.446   .     S
C483   C511    1.411   .     A
C483   C512    1.417   .     A
C484   C510    1.408   .     A
C485   N548    1.388   .     A
C485   C494    1.528   .     S
C486   N547    1.390   .     A
C486   C497    1.523   .     S
C486   C7      1.430   1_565 S
C487   N548    1.379   .     A
C487   C500    1.525   .     S
C488   C504    1.529   .     S
C488   N547    1.389   .     A
C488   C5      1.446   1_565 S
C489   O560    1.221   .     D
C489   C510    1.489   .     S
C489   H515    1.084   .     S
C490   C511    1.493   .     S
C490   H526    1.084   .     S
C490   O550    1.220   .     D
C491   O551    1.219   .     D
C491   C512    1.494   .     S
C491   H537    1.082   .     S
C492   O554    1.310   .     A
C492   O553    1.304   .     A
C493   O552    1.221   .     D
C493   H541    1.085   .     S
C494   H516    1.088   .     S
C494   H517    1.104   .     S
C494   C495    1.544   .     S
C495   C496    1.526   .     S
C495   H545    1.110   .     S
C495   H546    1.108   .     S
C496   H543    1.111   .     S
C496   H542    1.108   .     S
C496   H704    1.111   1_455 S
C497   C498    1.537   .     S
C497   H523    1.098   .     S
C497   H524    1.111   .     S
C498   H522    1.101   .     S
C498   C499    1.528   .     S
C498   H521    1.108   .     S
C499   H518    1.109   .     S
C499   H519    1.111   .     S
C499   H520    1.110   .     S
C500   H531    1.104   .     S
C500   H532    1.086   .     S
C500   C501    1.537   .     S
C501   H529    1.110   .     S
C501   H530    1.110   .     S
C501   C1222   1.528   .     S
C502   H528    1.110   .     S
C502   H525    1.111   .     S
C502   C1941   1.528   1_554 S
C502   H1967   1.109   1_554 S
C503   O556    1.310   .     A
C503   C508    1.405   .     S
C503   O559    1.303   .     A
C504   C505    1.543   .     S
C504   H540    1.106   .     S
C504   H539    1.080   .     S
C505   H536    1.107   .     S
C505   H538    1.109   .     S
C505   C1946   1.527   1_554 S
C506   H535    1.110   .     S
C506   H534    1.111   .     S
C506   C1225   1.527   .     S
C506   H1253   1.109   .     S
C507   C509    1.405   .     S
C507   O558    1.303   .     A
C507   O557    1.310   .     A
C508   C1949   1.188   1_554 S
C509   C1228   1.188   .     S
C510   C672    1.404   1_455 S
C511   C562    1.404   .     S
C512   C590    1.404   .     S
Cu513  O558    1.919   .     S
Cu513  O549    1.942   .     S
Cu513  O556    1.926   .     S
Cu513  Cu514   2.743   .     S
Cu513  N547    2.061   .     S
Cu513  O554    1.959   .     S
Cu514  O557    1.926   .     S
Cu514  O555    1.959   .     S
Cu514  N548    2.061   .     S
Cu514  O559    1.919   .     S
Cu514  O553    1.942   .     S
H527   C1222   1.109   .     S
H533   C1946   1.109   1_554 S
H544   C576    1.111   .     S
C561   O635    1.308   .     A
C561   O629    1.306   .     A
C561   C564    1.446   .     S
C562   C573    1.489   .     S
C562   C564    1.412   .     A
C563   C572    1.446   .     S
C563   C591    1.411   .     A
C563   C592    1.417   .     A
C564   C590    1.408   .     A
C565   N628    1.388   .     A
C565   C574    1.528   .     S
C566   N627    1.390   .     A
C566   C577    1.523   .     S
C566   C87     1.430   1_565 S
C567   N628    1.379   .     A
C567   C580    1.525   .     S
C568   C584    1.529   .     S
C568   N627    1.389   .     A
C568   C85     1.446   1_565 S
C569   O640    1.221   .     D
C569   C590    1.489   .     S
C569   H595    1.084   .     S
C570   C591    1.493   .     S
C570   H606    1.084   .     S
C570   O630    1.220   .     D
C571   O631    1.219   .     D
C571   C592    1.494   .     S
C571   H617    1.082   .     S
C572   O634    1.310   .     A
C572   O633    1.304   .     A
C573   O632    1.221   .     D
C573   H621    1.085   .     S
C574   H596    1.088   .     S
C574   H597    1.104   .     S
C574   C575    1.544   .     S
C575   C576    1.526   .     S
C575   H625    1.110   .     S
C575   H626    1.108   .     S
C576   H623    1.111   .     S
C576   H622    1.108   .     S
C577   C578    1.537   .     S
C577   H603    1.098   .     S
C577   H604    1.111   .     S
C578   H602    1.101   .     S
C578   C579    1.528   .     S
C578   H601    1.108   .     S
C579   H598    1.109   .     S
C579   H599    1.111   .     S
C579   H600    1.110   .     S
C580   H611    1.104   .     S
C580   H612    1.086   .     S
C580   C581    1.537   .     S
C581   H609    1.110   .     S
C581   H610    1.110   .     S
C581   C1302   1.528   .     S
C582   H608    1.110   .     S
C582   H605    1.111   .     S
C582   C2021   1.528   1_554 S
C582   H2047   1.109   1_554 S
C583   O636    1.310   .     A
C583   C588    1.405   .     S
C583   O639    1.303   .     A
C584   C585    1.543   .     S
C584   H620    1.106   .     S
C584   H619    1.080   .     S
C585   H616    1.107   .     S
C585   H618    1.109   .     S
C585   C2026   1.527   1_554 S
C586   H615    1.110   .     S
C586   H614    1.111   .     S
C586   C1305   1.527   .     S
C586   H1333   1.109   .     S
C587   C589    1.405   .     S
C587   O638    1.303   .     A
C587   O637    1.310   .     A
C588   C2029   1.188   1_554 S
C589   C1308   1.188   .     S
C591   C642    1.404   .     S
C592   C670    1.404   .     S
Cu593  O638    1.919   .     S
Cu593  O629    1.942   .     S
Cu593  O636    1.926   .     S
Cu593  Cu594   2.743   .     S
Cu593  N627    2.061   .     S
Cu593  O634    1.959   .     S
Cu594  O637    1.926   .     S
Cu594  O635    1.959   .     S
Cu594  N628    2.061   .     S
Cu594  O639    1.919   .     S
Cu594  O633    1.942   .     S
H607   C1302   1.109   .     S
H613   C2026   1.109   1_554 S
H624   C656    1.111   .     S
C641   O715    1.308   .     A
C641   O709    1.306   .     A
C641   C644    1.446   .     S
C642   C653    1.489   .     S
C642   C644    1.412   .     A
C643   C652    1.446   .     S
C643   C671    1.411   .     A
C643   C672    1.417   .     A
C644   C670    1.408   .     A
C645   N708    1.388   .     A
C645   C654    1.528   .     S
C646   N707    1.390   .     A
C646   C657    1.523   .     S
C646   C167    1.430   1_565 S
C647   N708    1.379   .     A
C647   C660    1.525   .     S
C648   C664    1.529   .     S
C648   N707    1.389   .     A
C648   C165    1.446   1_565 S
C649   O720    1.221   .     D
C649   C670    1.489   .     S
C649   H675    1.084   .     S
C650   C671    1.493   .     S
C650   H686    1.084   .     S
C650   O710    1.220   .     D
C651   O711    1.219   .     D
C651   C672    1.494   .     S
C651   H697    1.082   .     S
C652   O714    1.310   .     A
C652   O713    1.304   .     A
C653   O712    1.221   .     D
C653   H701    1.085   .     S
C654   H676    1.088   .     S
C654   H677    1.104   .     S
C654   C655    1.544   .     S
C655   C656    1.526   .     S
C655   H705    1.110   .     S
C655   H706    1.108   .     S
C656   H703    1.111   .     S
C656   H702    1.108   .     S
C657   C658    1.537   .     S
C657   H683    1.098   .     S
C657   H684    1.111   .     S
C658   H682    1.101   .     S
C658   C659    1.528   .     S
C658   H681    1.108   .     S
C659   H678    1.109   .     S
C659   H679    1.111   .     S
C659   H680    1.110   .     S
C660   H691    1.104   .     S
C660   H692    1.086   .     S
C660   C661    1.537   .     S
C661   H689    1.110   .     S
C661   H690    1.110   .     S
C661   C1382   1.528   .     S
C662   H688    1.110   .     S
C662   H685    1.111   .     S
C662   C2101   1.528   1_554 S
C662   H2127   1.109   1_554 S
C663   O716    1.310   .     A
C663   C668    1.405   .     S
C663   O719    1.303   .     A
C664   C665    1.543   .     S
C664   H700    1.106   .     S
C664   H699    1.080   .     S
C665   H696    1.107   .     S
C665   H698    1.109   .     S
C665   C2106   1.527   1_554 S
C666   H695    1.110   .     S
C666   H694    1.111   .     S
C666   C1385   1.527   .     S
C666   H1413   1.109   .     S
C667   C669    1.405   .     S
C667   O718    1.303   .     A
C667   O717    1.310   .     A
C668   C2109   1.188   1_554 S
C669   C1388   1.188   .     S
C671   C482    1.404   1_655 S
C672   C510    1.404   1_655 S
Cu673  O718    1.919   .     S
Cu673  O709    1.942   .     S
Cu673  O716    1.926   .     S
Cu673  Cu674   2.743   .     S
Cu673  N707    2.061   .     S
Cu673  O714    1.959   .     S
Cu674  O717    1.926   .     S
Cu674  O715    1.959   .     S
Cu674  N708    2.061   .     S
Cu674  O719    1.919   .     S
Cu674  O713    1.942   .     S
H687   C1382   1.109   .     S
H693   C2106   1.109   1_554 S
H704   C496    1.111   1_655 S
C721   O795    1.308   .     A
C721   O789    1.306   .     A
C721   C724    1.446   .     S
C722   C733    1.489   .     S
C722   C724    1.412   .     A
C722   C911    1.404   1_455 S
C723   C732    1.446   .     S
C723   C751    1.411   .     A
C723   C752    1.417   .     A
C724   C750    1.408   .     A
C725   N788    1.388   .     A
C725   C734    1.528   .     S
C725   C1208   1.446   1_545 S
C726   N787    1.390   .     A
C726   C737    1.523   .     S
C726   C967    1.430   .     S
C727   N788    1.379   .     A
C727   C740    1.525   .     S
C727   C1206   1.430   1_545 S
C728   C744    1.529   .     S
C728   N787    1.389   .     A
C728   C965    1.446   .     S
C729   O800    1.221   .     D
C729   C750    1.489   .     S
C729   H755    1.084   .     S
C730   C751    1.493   .     S
C730   H766    1.084   .     S
C730   O790    1.220   .     D
C731   O791    1.219   .     D
C731   C752    1.494   .     S
C731   H777    1.082   .     S
C732   O794    1.310   .     A
C732   O793    1.304   .     A
C733   O792    1.221   .     D
C733   H781    1.085   .     S
C734   H756    1.088   .     S
C734   H757    1.104   .     S
C734   C735    1.544   .     S
C735   C736    1.526   .     S
C735   H785    1.110   .     S
C735   H786    1.108   .     S
C736   H783    1.111   .     S
C736   H782    1.108   .     S
C736   H944    1.111   1_455 S
C737   C738    1.537   .     S
C737   H763    1.098   .     S
C737   H764    1.111   .     S
C738   H762    1.101   .     S
C738   C739    1.528   .     S
C738   H761    1.108   .     S
C739   H758    1.109   .     S
C739   H759    1.111   .     S
C739   H760    1.110   .     S
C740   H771    1.104   .     S
C740   H772    1.086   .     S
C740   C741    1.537   .     S
C741   H769    1.110   .     S
C741   H770    1.110   .     S
C741   C1462   1.528   .     S
C742   H768    1.110   .     S
C742   H765    1.111   .     S
C743   O796    1.310   .     A
C743   C748    1.405   .     S
C743   O799    1.303   .     A
C744   C745    1.543   .     S
C744   H780    1.106   .     S
C744   H779    1.080   .     S
C745   H776    1.107   .     S
C745   H778    1.109   .     S
C746   H775    1.110   .     S
C746   H774    1.111   .     S
C746   C1465   1.527   .     S
C746   H1493   1.109   .     S
C747   C749    1.405   .     S
C747   O798    1.303   .     A
C747   O797    1.310   .     A
C749   C1468   1.188   .     S
C750   C912    1.404   1_455 S
C751   C802    1.404   .     S
C752   C830    1.404   .     S
Cu753  O798    1.919   .     S
Cu753  O789    1.942   .     S
Cu753  O796    1.926   .     S
Cu753  Cu754   2.743   .     S
Cu753  N787    2.061   .     S
Cu753  O794    1.959   .     S
Cu754  O797    1.926   .     S
Cu754  O795    1.959   .     S
Cu754  N788    2.061   .     S
Cu754  O799    1.919   .     S
Cu754  O793    1.942   .     S
H767   C1462   1.109   .     S
H784   C816    1.111   .     S
C801   O875    1.308   .     A
C801   O869    1.306   .     A
C801   C804    1.446   .     S
C802   C813    1.489   .     S
C802   C804    1.412   .     A
C803   C812    1.446   .     S
C803   C831    1.411   .     A
C803   C832    1.417   .     A
C804   C830    1.408   .     A
C805   N868    1.388   .     A
C805   C814    1.528   .     S
C805   C1288   1.446   1_545 S
C806   N867    1.390   .     A
C806   C817    1.523   .     S
C806   C1047   1.430   .     S
C807   N868    1.379   .     A
C807   C820    1.525   .     S
C807   C1286   1.430   1_545 S
C808   C824    1.529   .     S
C808   N867    1.389   .     A
C808   C1045   1.446   .     S
C809   O880    1.221   .     D
C809   C830    1.489   .     S
C809   H835    1.084   .     S
C810   C831    1.493   .     S
C810   H846    1.084   .     S
C810   O870    1.220   .     D
C811   O871    1.219   .     D
C811   C832    1.494   .     S
C811   H857    1.082   .     S
C812   O874    1.310   .     A
C812   O873    1.304   .     A
C813   O872    1.221   .     D
C813   H861    1.085   .     S
C814   H836    1.088   .     S
C814   H837    1.104   .     S
C814   C815    1.544   .     S
C815   C816    1.526   .     S
C815   H865    1.110   .     S
C815   H866    1.108   .     S
C816   H863    1.111   .     S
C816   H862    1.108   .     S
C817   C818    1.537   .     S
C817   H843    1.098   .     S
C817   H844    1.111   .     S
C818   H842    1.101   .     S
C818   C819    1.528   .     S
C818   H841    1.108   .     S
C819   H838    1.109   .     S
C819   H839    1.111   .     S
C819   H840    1.110   .     S
C820   H851    1.104   .     S
C820   H852    1.086   .     S
C820   C821    1.537   .     S
C821   H849    1.110   .     S
C821   H850    1.110   .     S
C821   C1542   1.528   .     S
C822   H848    1.110   .     S
C822   H845    1.111   .     S
C823   O876    1.310   .     A
C823   C828    1.405   .     S
C823   O879    1.303   .     A
C824   C825    1.543   .     S
C824   H860    1.106   .     S
C824   H859    1.080   .     S
C825   H856    1.107   .     S
C825   H858    1.109   .     S
C826   H855    1.110   .     S
C826   H854    1.111   .     S
C826   C1545   1.527   .     S
C826   H1573   1.109   .     S
C827   C829    1.405   .     S
C827   O878    1.303   .     A
C827   O877    1.310   .     A
C829   C1548   1.188   .     S
C831   C882    1.404   .     S
C832   C910    1.404   .     S
Cu833  O878    1.919   .     S
Cu833  O869    1.942   .     S
Cu833  O876    1.926   .     S
Cu833  Cu834   2.743   .     S
Cu833  N867    2.061   .     S
Cu833  O874    1.959   .     S
Cu834  O877    1.926   .     S
Cu834  O875    1.959   .     S
Cu834  N868    2.061   .     S
Cu834  O879    1.919   .     S
Cu834  O873    1.942   .     S
H847   C1542   1.109   .     S
H864   C896    1.111   .     S
C881   O955    1.308   .     A
C881   O949    1.306   .     A
C881   C884    1.446   .     S
C882   C893    1.489   .     S
C882   C884    1.412   .     A
C883   C892    1.446   .     S
C883   C911    1.411   .     A
C883   C912    1.417   .     A
C884   C910    1.408   .     A
C885   N948    1.388   .     A
C885   C894    1.528   .     S
C885   C1368   1.446   1_545 S
C886   N947    1.390   .     A
C886   C897    1.523   .     S
C886   C1127   1.430   .     S
C887   N948    1.379   .     A
C887   C900    1.525   .     S
C887   C1366   1.430   1_545 S
C888   C904    1.529   .     S
C888   N947    1.389   .     A
C888   C1125   1.446   .     S
C889   O960    1.221   .     D
C889   C910    1.489   .     S
C889   H915    1.084   .     S
C890   C911    1.493   .     S
C890   H926    1.084   .     S
C890   O950    1.220   .     D
C891   O951    1.219   .     D
C891   C912    1.494   .     S
C891   H937    1.082   .     S
C892   O954    1.310   .     A
C892   O953    1.304   .     A
C893   O952    1.221   .     D
C893   H941    1.085   .     S
C894   H916    1.088   .     S
C894   H917    1.104   .     S
C894   C895    1.544   .     S
C895   C896    1.526   .     S
C895   H945    1.110   .     S
C895   H946    1.108   .     S
C896   H943    1.111   .     S
C896   H942    1.108   .     S
C897   C898    1.537   .     S
C897   H923    1.098   .     S
C897   H924    1.111   .     S
C898   H922    1.101   .     S
C898   C899    1.528   .     S
C898   H921    1.108   .     S
C899   H918    1.109   .     S
C899   H919    1.111   .     S
C899   H920    1.110   .     S
C900   H931    1.104   .     S
C900   H932    1.086   .     S
C900   C901    1.537   .     S
C901   H929    1.110   .     S
C901   H930    1.110   .     S
C901   C1622   1.528   .     S
C902   H928    1.110   .     S
C902   H925    1.111   .     S
C903   O956    1.310   .     A
C903   C908    1.405   .     S
C903   O959    1.303   .     A
C904   C905    1.543   .     S
C904   H940    1.106   .     S
C904   H939    1.080   .     S
C905   H936    1.107   .     S
C905   H938    1.109   .     S
C906   H935    1.110   .     S
C906   H934    1.111   .     S
C906   C1625   1.527   .     S
C906   H1653   1.109   .     S
C907   C909    1.405   .     S
C907   O958    1.303   .     A
C907   O957    1.310   .     A
C909   C1628   1.188   .     S
C911   C722    1.404   1_655 S
C912   C750    1.404   1_655 S
Cu913  O958    1.919   .     S
Cu913  O949    1.942   .     S
Cu913  O956    1.926   .     S
Cu913  Cu914   2.743   .     S
Cu913  N947    2.061   .     S
Cu913  O954    1.959   .     S
Cu914  O957    1.926   .     S
Cu914  O955    1.959   .     S
Cu914  N948    2.061   .     S
Cu914  O959    1.919   .     S
Cu914  O953    1.942   .     S
H927   C1622   1.109   .     S
H944   C736    1.111   1_655 S
C961   O1035   1.308   .     A
C961   O1029   1.306   .     A
C961   C964    1.446   .     S
C962   C973    1.489   .     S
C962   C964    1.412   .     A
C962   C1151   1.404   1_455 S
C963   C972    1.446   .     S
C963   C991    1.411   .     A
C963   C992    1.417   .     A
C964   C990    1.408   .     A
C965   N1028   1.388   .     A
C965   C974    1.528   .     S
C966   N1027   1.390   .     A
C966   C977    1.523   .     S
C966   C1207   1.430   .     S
C967   N1028   1.379   .     A
C967   C980    1.525   .     S
C968   C984    1.529   .     S
C968   N1027   1.389   .     A
C968   C1205   1.446   .     S
C969   O1040   1.221   .     D
C969   C990    1.489   .     S
C969   H995    1.084   .     S
C970   C991    1.493   .     S
C970   H1006   1.084   .     S
C970   O1030   1.220   .     D
C971   O1031   1.219   .     D
C971   C992    1.494   .     S
C971   H1017   1.082   .     S
C972   O1034   1.310   .     A
C972   O1033   1.304   .     A
C973   O1032   1.221   .     D
C973   H1021   1.085   .     S
C974   H996    1.088   .     S
C974   H997    1.104   .     S
C974   C975    1.544   .     S
C975   C976    1.526   .     S
C975   H1025   1.110   .     S
C975   H1026   1.108   .     S
C976   H1023   1.111   .     S
C976   H1022   1.108   .     S
C976   H1184   1.111   1_455 S
C977   C978    1.537   .     S
C977   H1003   1.098   .     S
C977   H1004   1.111   .     S
C978   H1002   1.101   .     S
C978   C979    1.528   .     S
C978   H1001   1.108   .     S
C979   H998    1.109   .     S
C979   H999    1.111   .     S
C979   H1000   1.110   .     S
C980   H1011   1.104   .     S
C980   H1012   1.086   .     S
C980   C981    1.537   .     S
C981   H1009   1.110   .     S
C981   H1010   1.110   .     S
C981   C1702   1.528   .     S
C982   H1008   1.110   .     S
C982   H1005   1.111   .     S
C983   O1036   1.310   .     A
C983   C988    1.405   .     S
C983   O1039   1.303   .     A
C984   C985    1.543   .     S
C984   H1020   1.106   .     S
C984   H1019   1.080   .     S
C985   H1016   1.107   .     S
C985   H1018   1.109   .     S
C986   H1015   1.110   .     S
C986   H1014   1.111   .     S
C986   C1705   1.527   .     S
C986   H1733   1.109   .     S
C987   C989    1.405   .     S
C987   O1038   1.303   .     A
C987   O1037   1.310   .     A
C989   C1708   1.188   .     S
C990   C1152   1.404   1_455 S
C991   C1042   1.404   .     S
C992   C1070   1.404   .     S
Cu993  O1038   1.919   .     S
Cu993  O1029   1.942   .     S
Cu993  O1036   1.926   .     S
Cu993  Cu994   2.743   .     S
Cu993  N1027   2.061   .     S
Cu993  O1034   1.959   .     S
Cu994  O1037   1.926   .     S
Cu994  O1035   1.959   .     S
Cu994  N1028   2.061   .     S
Cu994  O1039   1.919   .     S
Cu994  O1033   1.942   .     S
H1007  C1702   1.109   .     S
H1024  C1056   1.111   .     S
C1041  O1115   1.308   .     A
C1041  O1109   1.306   .     A
C1041  C1044   1.446   .     S
C1042  C1053   1.489   .     S
C1042  C1044   1.412   .     A
C1043  C1052   1.446   .     S
C1043  C1071   1.411   .     A
C1043  C1072   1.417   .     A
C1044  C1070   1.408   .     A
C1045  N1108   1.388   .     A
C1045  C1054   1.528   .     S
C1046  N1107   1.390   .     A
C1046  C1057   1.523   .     S
C1046  C1287   1.430   .     S
C1047  N1108   1.379   .     A
C1047  C1060   1.525   .     S
C1048  C1064   1.529   .     S
C1048  N1107   1.389   .     A
C1048  C1285   1.446   .     S
C1049  O1120   1.221   .     D
C1049  C1070   1.489   .     S
C1049  H1075   1.084   .     S
C1050  C1071   1.493   .     S
C1050  H1086   1.084   .     S
C1050  O1110   1.220   .     D
C1051  O1111   1.219   .     D
C1051  C1072   1.494   .     S
C1051  H1097   1.082   .     S
C1052  O1114   1.310   .     A
C1052  O1113   1.304   .     A
C1053  O1112   1.221   .     D
C1053  H1101   1.085   .     S
C1054  H1076   1.088   .     S
C1054  H1077   1.104   .     S
C1054  C1055   1.544   .     S
C1055  C1056   1.526   .     S
C1055  H1105   1.110   .     S
C1055  H1106   1.108   .     S
C1056  H1103   1.111   .     S
C1056  H1102   1.108   .     S
C1057  C1058   1.537   .     S
C1057  H1083   1.098   .     S
C1057  H1084   1.111   .     S
C1058  H1082   1.101   .     S
C1058  C1059   1.528   .     S
C1058  H1081   1.108   .     S
C1059  H1078   1.109   .     S
C1059  H1079   1.111   .     S
C1059  H1080   1.110   .     S
C1060  H1091   1.104   .     S
C1060  H1092   1.086   .     S
C1060  C1061   1.537   .     S
C1061  H1089   1.110   .     S
C1061  H1090   1.110   .     S
C1061  C1782   1.528   .     S
C1062  H1088   1.110   .     S
C1062  H1085   1.111   .     S
C1063  O1116   1.310   .     A
C1063  C1068   1.405   .     S
C1063  O1119   1.303   .     A
C1064  C1065   1.543   .     S
C1064  H1100   1.106   .     S
C1064  H1099   1.080   .     S
C1065  H1096   1.107   .     S
C1065  H1098   1.109   .     S
C1066  H1095   1.110   .     S
C1066  H1094   1.111   .     S
C1066  C1785   1.527   .     S
C1066  H1813   1.109   .     S
C1067  C1069   1.405   .     S
C1067  O1118   1.303   .     A
C1067  O1117   1.310   .     A
C1069  C1788   1.188   .     S
C1071  C1122   1.404   .     S
C1072  C1150   1.404   .     S
Cu1073 O1118   1.919   .     S
Cu1073 O1109   1.942   .     S
Cu1073 O1116   1.926   .     S
Cu1073 Cu1074  2.743   .     S
Cu1073 N1107   2.061   .     S
Cu1073 O1114   1.959   .     S
Cu1074 O1117   1.926   .     S
Cu1074 O1115   1.959   .     S
Cu1074 N1108   2.061   .     S
Cu1074 O1119   1.919   .     S
Cu1074 O1113   1.942   .     S
H1087  C1782   1.109   .     S
H1104  C1136   1.111   .     S
C1121  O1195   1.308   .     A
C1121  O1189   1.306   .     A
C1121  C1124   1.446   .     S
C1122  C1133   1.489   .     S
C1122  C1124   1.412   .     A
C1123  C1132   1.446   .     S
C1123  C1151   1.411   .     A
C1123  C1152   1.417   .     A
C1124  C1150   1.408   .     A
C1125  N1188   1.388   .     A
C1125  C1134   1.528   .     S
C1126  N1187   1.390   .     A
C1126  C1137   1.523   .     S
C1126  C1367   1.430   .     S
C1127  N1188   1.379   .     A
C1127  C1140   1.525   .     S
C1128  C1144   1.529   .     S
C1128  N1187   1.389   .     A
C1128  C1365   1.446   .     S
C1129  O1200   1.221   .     D
C1129  C1150   1.489   .     S
C1129  H1155   1.084   .     S
C1130  C1151   1.493   .     S
C1130  H1166   1.084   .     S
C1130  O1190   1.220   .     D
C1131  O1191   1.219   .     D
C1131  C1152   1.494   .     S
C1131  H1177   1.082   .     S
C1132  O1194   1.310   .     A
C1132  O1193   1.304   .     A
C1133  O1192   1.221   .     D
C1133  H1181   1.085   .     S
C1134  H1156   1.088   .     S
C1134  H1157   1.104   .     S
C1134  C1135   1.544   .     S
C1135  C1136   1.526   .     S
C1135  H1185   1.110   .     S
C1135  H1186   1.108   .     S
C1136  H1183   1.111   .     S
C1136  H1182   1.108   .     S
C1137  C1138   1.537   .     S
C1137  H1163   1.098   .     S
C1137  H1164   1.111   .     S
C1138  H1162   1.101   .     S
C1138  C1139   1.528   .     S
C1138  H1161   1.108   .     S
C1139  H1158   1.109   .     S
C1139  H1159   1.111   .     S
C1139  H1160   1.110   .     S
C1140  H1171   1.104   .     S
C1140  H1172   1.086   .     S
C1140  C1141   1.537   .     S
C1141  H1169   1.110   .     S
C1141  H1170   1.110   .     S
C1141  C1862   1.528   .     S
C1142  H1168   1.110   .     S
C1142  H1165   1.111   .     S
C1143  O1196   1.310   .     A
C1143  C1148   1.405   .     S
C1143  O1199   1.303   .     A
C1144  C1145   1.543   .     S
C1144  H1180   1.106   .     S
C1144  H1179   1.080   .     S
C1145  H1176   1.107   .     S
C1145  H1178   1.109   .     S
C1146  H1175   1.110   .     S
C1146  H1174   1.111   .     S
C1146  C1865   1.527   .     S
C1146  H1893   1.109   .     S
C1147  C1149   1.405   .     S
C1147  O1198   1.303   .     A
C1147  O1197   1.310   .     A
C1149  C1868   1.188   .     S
C1151  C962    1.404   1_655 S
C1152  C990    1.404   1_655 S
Cu1153 O1198   1.919   .     S
Cu1153 O1189   1.942   .     S
Cu1153 O1196   1.926   .     S
Cu1153 Cu1154  2.743   .     S
Cu1153 N1187   2.061   .     S
Cu1153 O1194   1.959   .     S
Cu1154 O1197   1.926   .     S
Cu1154 O1195   1.959   .     S
Cu1154 N1188   2.061   .     S
Cu1154 O1199   1.919   .     S
Cu1154 O1193   1.942   .     S
H1167  C1862   1.109   .     S
H1184  C976    1.111   1_655 S
C1201  O1275   1.308   .     A
C1201  O1269   1.306   .     A
C1201  C1204   1.446   .     S
C1202  C1213   1.489   .     S
C1202  C1204   1.412   .     A
C1202  C1391   1.404   1_455 S
C1203  C1212   1.446   .     S
C1203  C1231   1.411   .     A
C1203  C1232   1.417   .     A
C1204  C1230   1.408   .     A
C1205  N1268   1.388   .     A
C1205  C1214   1.528   .     S
C1206  N1267   1.390   .     A
C1206  C1217   1.523   .     S
C1206  C727    1.430   1_565 S
C1207  N1268   1.379   .     A
C1207  C1220   1.525   .     S
C1208  C1224   1.529   .     S
C1208  N1267   1.389   .     A
C1208  C725    1.446   1_565 S
C1209  O1280   1.221   .     D
C1209  C1230   1.489   .     S
C1209  H1235   1.084   .     S
C1210  C1231   1.493   .     S
C1210  H1246   1.084   .     S
C1210  O1270   1.220   .     D
C1211  O1271   1.219   .     D
C1211  C1232   1.494   .     S
C1211  H1257   1.082   .     S
C1212  O1274   1.310   .     A
C1212  O1273   1.304   .     A
C1213  O1272   1.221   .     D
C1213  H1261   1.085   .     S
C1214  H1236   1.088   .     S
C1214  H1237   1.104   .     S
C1214  C1215   1.544   .     S
C1215  C1216   1.526   .     S
C1215  H1265   1.110   .     S
C1215  H1266   1.108   .     S
C1216  H1263   1.111   .     S
C1216  H1262   1.108   .     S
C1216  H1424   1.111   1_455 S
C1217  C1218   1.537   .     S
C1217  H1243   1.098   .     S
C1217  H1244   1.111   .     S
C1218  H1242   1.101   .     S
C1218  C1219   1.528   .     S
C1218  H1241   1.108   .     S
C1219  H1238   1.109   .     S
C1219  H1239   1.111   .     S
C1219  H1240   1.110   .     S
C1220  H1251   1.104   .     S
C1220  H1252   1.086   .     S
C1220  C1221   1.537   .     S
C1221  H1249   1.110   .     S
C1221  H1250   1.110   .     S
C1221  C1942   1.528   .     S
C1222  H1248   1.110   .     S
C1222  H1245   1.111   .     S
C1223  O1276   1.310   .     A
C1223  C1228   1.405   .     S
C1223  O1279   1.303   .     A
C1224  C1225   1.543   .     S
C1224  H1260   1.106   .     S
C1224  H1259   1.080   .     S
C1225  H1256   1.107   .     S
C1225  H1258   1.109   .     S
C1226  H1255   1.110   .     S
C1226  H1254   1.111   .     S
C1226  C1945   1.527   .     S
C1226  H1973   1.109   .     S
C1227  C1229   1.405   .     S
C1227  O1278   1.303   .     A
C1227  O1277   1.310   .     A
C1229  C1948   1.188   .     S
C1230  C1392   1.404   1_455 S
C1231  C1282   1.404   .     S
C1232  C1310   1.404   .     S
Cu1233 O1278   1.919   .     S
Cu1233 O1269   1.942   .     S
Cu1233 O1276   1.926   .     S
Cu1233 Cu1234  2.743   .     S
Cu1233 N1267   2.061   .     S
Cu1233 O1274   1.959   .     S
Cu1234 O1277   1.926   .     S
Cu1234 O1275   1.959   .     S
Cu1234 N1268   2.061   .     S
Cu1234 O1279   1.919   .     S
Cu1234 O1273   1.942   .     S
H1247  C1942   1.109   .     S
H1264  C1296   1.111   .     S
C1281  O1355   1.308   .     A
C1281  O1349   1.306   .     A
C1281  C1284   1.446   .     S
C1282  C1293   1.489   .     S
C1282  C1284   1.412   .     A
C1283  C1292   1.446   .     S
C1283  C1311   1.411   .     A
C1283  C1312   1.417   .     A
C1284  C1310   1.408   .     A
C1285  N1348   1.388   .     A
C1285  C1294   1.528   .     S
C1286  N1347   1.390   .     A
C1286  C1297   1.523   .     S
C1286  C807    1.430   1_565 S
C1287  N1348   1.379   .     A
C1287  C1300   1.525   .     S
C1288  C1304   1.529   .     S
C1288  N1347   1.389   .     A
C1288  C805    1.446   1_565 S
C1289  O1360   1.221   .     D
C1289  C1310   1.489   .     S
C1289  H1315   1.084   .     S
C1290  C1311   1.493   .     S
C1290  H1326   1.084   .     S
C1290  O1350   1.220   .     D
C1291  O1351   1.219   .     D
C1291  C1312   1.494   .     S
C1291  H1337   1.082   .     S
C1292  O1354   1.310   .     A
C1292  O1353   1.304   .     A
C1293  O1352   1.221   .     D
C1293  H1341   1.085   .     S
C1294  H1316   1.088   .     S
C1294  H1317   1.104   .     S
C1294  C1295   1.544   .     S
C1295  C1296   1.526   .     S
C1295  H1345   1.110   .     S
C1295  H1346   1.108   .     S
C1296  H1343   1.111   .     S
C1296  H1342   1.108   .     S
C1297  C1298   1.537   .     S
C1297  H1323   1.098   .     S
C1297  H1324   1.111   .     S
C1298  H1322   1.101   .     S
C1298  C1299   1.528   .     S
C1298  H1321   1.108   .     S
C1299  H1318   1.109   .     S
C1299  H1319   1.111   .     S
C1299  H1320   1.110   .     S
C1300  H1331   1.104   .     S
C1300  H1332   1.086   .     S
C1300  C1301   1.537   .     S
C1301  H1329   1.110   .     S
C1301  H1330   1.110   .     S
C1301  C2022   1.528   .     S
C1302  H1328   1.110   .     S
C1302  H1325   1.111   .     S
C1303  O1356   1.310   .     A
C1303  C1308   1.405   .     S
C1303  O1359   1.303   .     A
C1304  C1305   1.543   .     S
C1304  H1340   1.106   .     S
C1304  H1339   1.080   .     S
C1305  H1336   1.107   .     S
C1305  H1338   1.109   .     S
C1306  H1335   1.110   .     S
C1306  H1334   1.111   .     S
C1306  C2025   1.527   .     S
C1306  H2053   1.109   .     S
C1307  C1309   1.405   .     S
C1307  O1358   1.303   .     A
C1307  O1357   1.310   .     A
C1309  C2028   1.188   .     S
C1311  C1362   1.404   .     S
C1312  C1390   1.404   .     S
Cu1313 O1358   1.919   .     S
Cu1313 O1349   1.942   .     S
Cu1313 O1356   1.926   .     S
Cu1313 Cu1314  2.743   .     S
Cu1313 N1347   2.061   .     S
Cu1313 O1354   1.959   .     S
Cu1314 O1357   1.926   .     S
Cu1314 O1355   1.959   .     S
Cu1314 N1348   2.061   .     S
Cu1314 O1359   1.919   .     S
Cu1314 O1353   1.942   .     S
H1327  C2022   1.109   .     S
H1344  C1376   1.111   .     S
C1361  O1435   1.308   .     A
C1361  O1429   1.306   .     A
C1361  C1364   1.446   .     S
C1362  C1373   1.489   .     S
C1362  C1364   1.412   .     A
C1363  C1372   1.446   .     S
C1363  C1391   1.411   .     A
C1363  C1392   1.417   .     A
C1364  C1390   1.408   .     A
C1365  N1428   1.388   .     A
C1365  C1374   1.528   .     S
C1366  N1427   1.390   .     A
C1366  C1377   1.523   .     S
C1366  C887    1.430   1_565 S
C1367  N1428   1.379   .     A
C1367  C1380   1.525   .     S
C1368  C1384   1.529   .     S
C1368  N1427   1.389   .     A
C1368  C885    1.446   1_565 S
C1369  O1440   1.221   .     D
C1369  C1390   1.489   .     S
C1369  H1395   1.084   .     S
C1370  C1391   1.493   .     S
C1370  H1406   1.084   .     S
C1370  O1430   1.220   .     D
C1371  O1431   1.219   .     D
C1371  C1392   1.494   .     S
C1371  H1417   1.082   .     S
C1372  O1434   1.310   .     A
C1372  O1433   1.304   .     A
C1373  O1432   1.221   .     D
C1373  H1421   1.085   .     S
C1374  H1396   1.088   .     S
C1374  H1397   1.104   .     S
C1374  C1375   1.544   .     S
C1375  C1376   1.526   .     S
C1375  H1425   1.110   .     S
C1375  H1426   1.108   .     S
C1376  H1423   1.111   .     S
C1376  H1422   1.108   .     S
C1377  C1378   1.537   .     S
C1377  H1403   1.098   .     S
C1377  H1404   1.111   .     S
C1378  H1402   1.101   .     S
C1378  C1379   1.528   .     S
C1378  H1401   1.108   .     S
C1379  H1398   1.109   .     S
C1379  H1399   1.111   .     S
C1379  H1400   1.110   .     S
C1380  H1411   1.104   .     S
C1380  H1412   1.086   .     S
C1380  C1381   1.537   .     S
C1381  H1409   1.110   .     S
C1381  H1410   1.110   .     S
C1381  C2102   1.528   .     S
C1382  H1408   1.110   .     S
C1382  H1405   1.111   .     S
C1383  O1436   1.310   .     A
C1383  C1388   1.405   .     S
C1383  O1439   1.303   .     A
C1384  C1385   1.543   .     S
C1384  H1420   1.106   .     S
C1384  H1419   1.080   .     S
C1385  H1416   1.107   .     S
C1385  H1418   1.109   .     S
C1386  H1415   1.110   .     S
C1386  H1414   1.111   .     S
C1386  C2105   1.527   .     S
C1386  H2133   1.109   .     S
C1387  C1389   1.405   .     S
C1387  O1438   1.303   .     A
C1387  O1437   1.310   .     A
C1389  C2108   1.188   .     S
C1391  C1202   1.404   1_655 S
C1392  C1230   1.404   1_655 S
Cu1393 O1438   1.919   .     S
Cu1393 O1429   1.942   .     S
Cu1393 O1436   1.926   .     S
Cu1393 Cu1394  2.743   .     S
Cu1393 N1427   2.061   .     S
Cu1393 O1434   1.959   .     S
Cu1394 O1437   1.926   .     S
Cu1394 O1435   1.959   .     S
Cu1394 N1428   2.061   .     S
Cu1394 O1439   1.919   .     S
Cu1394 O1433   1.942   .     S
H1407  C2102   1.109   .     S
H1424  C1216   1.111   1_655 S
C1441  O1515   1.308   .     A
C1441  O1509   1.306   .     A
C1441  C1444   1.446   .     S
C1442  C1453   1.489   .     S
C1442  C1444   1.412   .     A
C1442  C1631   1.404   1_455 S
C1443  C1452   1.446   .     S
C1443  C1471   1.411   .     A
C1443  C1472   1.417   .     A
C1444  C1470   1.408   .     A
C1445  N1508   1.388   .     A
C1445  C1454   1.528   .     S
C1445  C1928   1.446   1_545 S
C1446  N1507   1.390   .     A
C1446  C1457   1.523   .     S
C1446  C1687   1.430   .     S
C1447  N1508   1.379   .     A
C1447  C1460   1.525   .     S
C1447  C1926   1.430   1_545 S
C1448  C1464   1.529   .     S
C1448  N1507   1.389   .     A
C1448  C1685   1.446   .     S
C1449  O1520   1.221   .     D
C1449  C1470   1.489   .     S
C1449  H1475   1.084   .     S
C1450  C1471   1.493   .     S
C1450  H1486   1.084   .     S
C1450  O1510   1.220   .     D
C1451  O1511   1.219   .     D
C1451  C1472   1.494   .     S
C1451  H1497   1.082   .     S
C1452  O1514   1.310   .     A
C1452  O1513   1.304   .     A
C1453  O1512   1.221   .     D
C1453  H1501   1.085   .     S
C1454  H1476   1.088   .     S
C1454  H1477   1.104   .     S
C1454  C1455   1.544   .     S
C1455  C1456   1.526   .     S
C1455  H1505   1.110   .     S
C1455  H1506   1.108   .     S
C1456  H1503   1.111   .     S
C1456  H1502   1.108   .     S
C1456  H1664   1.111   1_455 S
C1457  C1458   1.537   .     S
C1457  H1483   1.098   .     S
C1457  H1484   1.111   .     S
C1458  H1482   1.101   .     S
C1458  C1459   1.528   .     S
C1458  H1481   1.108   .     S
C1459  H1478   1.109   .     S
C1459  H1479   1.111   .     S
C1459  H1480   1.110   .     S
C1460  H1491   1.104   .     S
C1460  H1492   1.086   .     S
C1460  C1461   1.537   .     S
C1461  H1489   1.110   .     S
C1461  H1490   1.110   .     S
C1461  C22     1.528   1_556 S
C1462  H1488   1.110   .     S
C1462  H1485   1.111   .     S
C1463  O1516   1.310   .     A
C1463  C1468   1.405   .     S
C1463  O1519   1.303   .     A
C1464  C1465   1.543   .     S
C1464  H1500   1.106   .     S
C1464  H1499   1.080   .     S
C1465  H1496   1.107   .     S
C1465  H1498   1.109   .     S
C1466  H1495   1.110   .     S
C1466  H1494   1.111   .     S
C1466  C25     1.527   1_556 S
C1466  H53     1.109   1_556 S
C1467  C1469   1.405   .     S
C1467  O1518   1.303   .     A
C1467  O1517   1.310   .     A
C1469  C28     1.188   1_556 S
C1470  C1632   1.404   1_455 S
C1471  C1522   1.404   .     S
C1472  C1550   1.404   .     S
Cu1473 O1518   1.919   .     S
Cu1473 O1509   1.942   .     S
Cu1473 O1516   1.926   .     S
Cu1473 Cu1474  2.743   .     S
Cu1473 N1507   2.061   .     S
Cu1473 O1514   1.959   .     S
Cu1474 O1517   1.926   .     S
Cu1474 O1515   1.959   .     S
Cu1474 N1508   2.061   .     S
Cu1474 O1519   1.919   .     S
Cu1474 O1513   1.942   .     S
H1487  C22     1.109   1_556 S
H1504  C1536   1.111   .     S
C1521  O1595   1.308   .     A
C1521  O1589   1.306   .     A
C1521  C1524   1.446   .     S
C1522  C1533   1.489   .     S
C1522  C1524   1.412   .     A
C1523  C1532   1.446   .     S
C1523  C1551   1.411   .     A
C1523  C1552   1.417   .     A
C1524  C1550   1.408   .     A
C1525  N1588   1.388   .     A
C1525  C1534   1.528   .     S
C1525  C2008   1.446   1_545 S
C1526  N1587   1.390   .     A
C1526  C1537   1.523   .     S
C1526  C1767   1.430   .     S
C1527  N1588   1.379   .     A
C1527  C1540   1.525   .     S
C1527  C2006   1.430   1_545 S
C1528  C1544   1.529   .     S
C1528  N1587   1.389   .     A
C1528  C1765   1.446   .     S
C1529  O1600   1.221   .     D
C1529  C1550   1.489   .     S
C1529  H1555   1.084   .     S
C1530  C1551   1.493   .     S
C1530  H1566   1.084   .     S
C1530  O1590   1.220   .     D
C1531  O1591   1.219   .     D
C1531  C1552   1.494   .     S
C1531  H1577   1.082   .     S
C1532  O1594   1.310   .     A
C1532  O1593   1.304   .     A
C1533  O1592   1.221   .     D
C1533  H1581   1.085   .     S
C1534  H1556   1.088   .     S
C1534  H1557   1.104   .     S
C1534  C1535   1.544   .     S
C1535  C1536   1.526   .     S
C1535  H1585   1.110   .     S
C1535  H1586   1.108   .     S
C1536  H1583   1.111   .     S
C1536  H1582   1.108   .     S
C1537  C1538   1.537   .     S
C1537  H1563   1.098   .     S
C1537  H1564   1.111   .     S
C1538  H1562   1.101   .     S
C1538  C1539   1.528   .     S
C1538  H1561   1.108   .     S
C1539  H1558   1.109   .     S
C1539  H1559   1.111   .     S
C1539  H1560   1.110   .     S
C1540  H1571   1.104   .     S
C1540  H1572   1.086   .     S
C1540  C1541   1.537   .     S
C1541  H1569   1.110   .     S
C1541  H1570   1.110   .     S
C1541  C102    1.528   1_556 S
C1542  H1568   1.110   .     S
C1542  H1565   1.111   .     S
C1543  O1596   1.310   .     A
C1543  C1548   1.405   .     S
C1543  O1599   1.303   .     A
C1544  C1545   1.543   .     S
C1544  H1580   1.106   .     S
C1544  H1579   1.080   .     S
C1545  H1576   1.107   .     S
C1545  H1578   1.109   .     S
C1546  H1575   1.110   .     S
C1546  H1574   1.111   .     S
C1546  C105    1.527   1_556 S
C1546  H133    1.109   1_556 S
C1547  C1549   1.405   .     S
C1547  O1598   1.303   .     A
C1547  O1597   1.310   .     A
C1549  C108    1.188   1_556 S
C1551  C1602   1.404   .     S
C1552  C1630   1.404   .     S
Cu1553 O1598   1.919   .     S
Cu1553 O1589   1.942   .     S
Cu1553 O1596   1.926   .     S
Cu1553 Cu1554  2.743   .     S
Cu1553 N1587   2.061   .     S
Cu1553 O1594   1.959   .     S
Cu1554 O1597   1.926   .     S
Cu1554 O1595   1.959   .     S
Cu1554 N1588   2.061   .     S
Cu1554 O1599   1.919   .     S
Cu1554 O1593   1.942   .     S
H1567  C102    1.109   1_556 S
H1584  C1616   1.111   .     S
C1601  O1675   1.308   .     A
C1601  O1669   1.306   .     A
C1601  C1604   1.446   .     S
C1602  C1613   1.489   .     S
C1602  C1604   1.412   .     A
C1603  C1612   1.446   .     S
C1603  C1631   1.411   .     A
C1603  C1632   1.417   .     A
C1604  C1630   1.408   .     A
C1605  N1668   1.388   .     A
C1605  C1614   1.528   .     S
C1605  C2088   1.446   1_545 S
C1606  N1667   1.390   .     A
C1606  C1617   1.523   .     S
C1606  C1847   1.430   .     S
C1607  N1668   1.379   .     A
C1607  C1620   1.525   .     S
C1607  C2086   1.430   1_545 S
C1608  C1624   1.529   .     S
C1608  N1667   1.389   .     A
C1608  C1845   1.446   .     S
C1609  O1680   1.221   .     D
C1609  C1630   1.489   .     S
C1609  H1635   1.084   .     S
C1610  C1631   1.493   .     S
C1610  H1646   1.084   .     S
C1610  O1670   1.220   .     D
C1611  O1671   1.219   .     D
C1611  C1632   1.494   .     S
C1611  H1657   1.082   .     S
C1612  O1674   1.310   .     A
C1612  O1673   1.304   .     A
C1613  O1672   1.221   .     D
C1613  H1661   1.085   .     S
C1614  H1636   1.088   .     S
C1614  H1637   1.104   .     S
C1614  C1615   1.544   .     S
C1615  C1616   1.526   .     S
C1615  H1665   1.110   .     S
C1615  H1666   1.108   .     S
C1616  H1663   1.111   .     S
C1616  H1662   1.108   .     S
C1617  C1618   1.537   .     S
C1617  H1643   1.098   .     S
C1617  H1644   1.111   .     S
C1618  H1642   1.101   .     S
C1618  C1619   1.528   .     S
C1618  H1641   1.108   .     S
C1619  H1638   1.109   .     S
C1619  H1639   1.111   .     S
C1619  H1640   1.110   .     S
C1620  H1651   1.104   .     S
C1620  H1652   1.086   .     S
C1620  C1621   1.537   .     S
C1621  H1649   1.110   .     S
C1621  H1650   1.110   .     S
C1621  C182    1.528   1_556 S
C1622  H1648   1.110   .     S
C1622  H1645   1.111   .     S
C1623  O1676   1.310   .     A
C1623  C1628   1.405   .     S
C1623  O1679   1.303   .     A
C1624  C1625   1.543   .     S
C1624  H1660   1.106   .     S
C1624  H1659   1.080   .     S
C1625  H1656   1.107   .     S
C1625  H1658   1.109   .     S
C1626  H1655   1.110   .     S
C1626  H1654   1.111   .     S
C1626  C185    1.527   1_556 S
C1626  H213    1.109   1_556 S
C1627  C1629   1.405   .     S
C1627  O1678   1.303   .     A
C1627  O1677   1.310   .     A
C1629  C188    1.188   1_556 S
C1631  C1442   1.404   1_655 S
C1632  C1470   1.404   1_655 S
Cu1633 O1678   1.919   .     S
Cu1633 O1669   1.942   .     S
Cu1633 O1676   1.926   .     S
Cu1633 Cu1634  2.743   .     S
Cu1633 N1667   2.061   .     S
Cu1633 O1674   1.959   .     S
Cu1634 O1677   1.926   .     S
Cu1634 O1675   1.959   .     S
Cu1634 N1668   2.061   .     S
Cu1634 O1679   1.919   .     S
Cu1634 O1673   1.942   .     S
H1647  C182    1.109   1_556 S
H1664  C1456   1.111   1_655 S
C1681  O1755   1.308   .     A
C1681  O1749   1.306   .     A
C1681  C1684   1.446   .     S
C1682  C1693   1.489   .     S
C1682  C1684   1.412   .     A
C1682  C1871   1.404   1_455 S
C1683  C1692   1.446   .     S
C1683  C1711   1.411   .     A
C1683  C1712   1.417   .     A
C1684  C1710   1.408   .     A
C1685  N1748   1.388   .     A
C1685  C1694   1.528   .     S
C1686  N1747   1.390   .     A
C1686  C1697   1.523   .     S
C1686  C1927   1.430   .     S
C1687  N1748   1.379   .     A
C1687  C1700   1.525   .     S
C1688  C1704   1.529   .     S
C1688  N1747   1.389   .     A
C1688  C1925   1.446   .     S
C1689  O1760   1.221   .     D
C1689  C1710   1.489   .     S
C1689  H1715   1.084   .     S
C1690  C1711   1.493   .     S
C1690  H1726   1.084   .     S
C1690  O1750   1.220   .     D
C1691  O1751   1.219   .     D
C1691  C1712   1.494   .     S
C1691  H1737   1.082   .     S
C1692  O1754   1.310   .     A
C1692  O1753   1.304   .     A
C1693  O1752   1.221   .     D
C1693  H1741   1.085   .     S
C1694  H1716   1.088   .     S
C1694  H1717   1.104   .     S
C1694  C1695   1.544   .     S
C1695  C1696   1.526   .     S
C1695  H1745   1.110   .     S
C1695  H1746   1.108   .     S
C1696  H1743   1.111   .     S
C1696  H1742   1.108   .     S
C1696  H1904   1.111   1_455 S
C1697  C1698   1.537   .     S
C1697  H1723   1.098   .     S
C1697  H1724   1.111   .     S
C1698  H1722   1.101   .     S
C1698  C1699   1.528   .     S
C1698  H1721   1.108   .     S
C1699  H1718   1.109   .     S
C1699  H1719   1.111   .     S
C1699  H1720   1.110   .     S
C1700  H1731   1.104   .     S
C1700  H1732   1.086   .     S
C1700  C1701   1.537   .     S
C1701  H1729   1.110   .     S
C1701  H1730   1.110   .     S
C1701  C262    1.528   1_556 S
C1702  H1728   1.110   .     S
C1702  H1725   1.111   .     S
C1703  O1756   1.310   .     A
C1703  C1708   1.405   .     S
C1703  O1759   1.303   .     A
C1704  C1705   1.543   .     S
C1704  H1740   1.106   .     S
C1704  H1739   1.080   .     S
C1705  H1736   1.107   .     S
C1705  H1738   1.109   .     S
C1706  H1735   1.110   .     S
C1706  H1734   1.111   .     S
C1706  C265    1.527   1_556 S
C1706  H293    1.109   1_556 S
C1707  C1709   1.405   .     S
C1707  O1758   1.303   .     A
C1707  O1757   1.310   .     A
C1709  C268    1.188   1_556 S
C1710  C1872   1.404   1_455 S
C1711  C1762   1.404   .     S
C1712  C1790   1.404   .     S
Cu1713 O1758   1.919   .     S
Cu1713 O1749   1.942   .     S
Cu1713 O1756   1.926   .     S
Cu1713 Cu1714  2.743   .     S
Cu1713 N1747   2.061   .     S
Cu1713 O1754   1.959   .     S
Cu1714 O1757   1.926   .     S
Cu1714 O1755   1.959   .     S
Cu1714 N1748   2.061   .     S
Cu1714 O1759   1.919   .     S
Cu1714 O1753   1.942   .     S
H1727  C262    1.109   1_556 S
H1744  C1776   1.111   .     S
C1761  O1835   1.308   .     A
C1761  O1829   1.306   .     A
C1761  C1764   1.446   .     S
C1762  C1773   1.489   .     S
C1762  C1764   1.412   .     A
C1763  C1772   1.446   .     S
C1763  C1791   1.411   .     A
C1763  C1792   1.417   .     A
C1764  C1790   1.408   .     A
C1765  N1828   1.388   .     A
C1765  C1774   1.528   .     S
C1766  N1827   1.390   .     A
C1766  C1777   1.523   .     S
C1766  C2007   1.430   .     S
C1767  N1828   1.379   .     A
C1767  C1780   1.525   .     S
C1768  C1784   1.529   .     S
C1768  N1827   1.389   .     A
C1768  C2005   1.446   .     S
C1769  O1840   1.221   .     D
C1769  C1790   1.489   .     S
C1769  H1795   1.084   .     S
C1770  C1791   1.493   .     S
C1770  H1806   1.084   .     S
C1770  O1830   1.220   .     D
C1771  O1831   1.219   .     D
C1771  C1792   1.494   .     S
C1771  H1817   1.082   .     S
C1772  O1834   1.310   .     A
C1772  O1833   1.304   .     A
C1773  O1832   1.221   .     D
C1773  H1821   1.085   .     S
C1774  H1796   1.088   .     S
C1774  H1797   1.104   .     S
C1774  C1775   1.544   .     S
C1775  C1776   1.526   .     S
C1775  H1825   1.110   .     S
C1775  H1826   1.108   .     S
C1776  H1823   1.111   .     S
C1776  H1822   1.108   .     S
C1777  C1778   1.537   .     S
C1777  H1803   1.098   .     S
C1777  H1804   1.111   .     S
C1778  H1802   1.101   .     S
C1778  C1779   1.528   .     S
C1778  H1801   1.108   .     S
C1779  H1798   1.109   .     S
C1779  H1799   1.111   .     S
C1779  H1800   1.110   .     S
C1780  H1811   1.104   .     S
C1780  H1812   1.086   .     S
C1780  C1781   1.537   .     S
C1781  H1809   1.110   .     S
C1781  H1810   1.110   .     S
C1781  C342    1.528   1_556 S
C1782  H1808   1.110   .     S
C1782  H1805   1.111   .     S
C1783  O1836   1.310   .     A
C1783  C1788   1.405   .     S
C1783  O1839   1.303   .     A
C1784  C1785   1.543   .     S
C1784  H1820   1.106   .     S
C1784  H1819   1.080   .     S
C1785  H1816   1.107   .     S
C1785  H1818   1.109   .     S
C1786  H1815   1.110   .     S
C1786  H1814   1.111   .     S
C1786  C345    1.527   1_556 S
C1786  H373    1.109   1_556 S
C1787  C1789   1.405   .     S
C1787  O1838   1.303   .     A
C1787  O1837   1.310   .     A
C1789  C348    1.188   1_556 S
C1791  C1842   1.404   .     S
C1792  C1870   1.404   .     S
Cu1793 O1838   1.919   .     S
Cu1793 O1829   1.942   .     S
Cu1793 O1836   1.926   .     S
Cu1793 Cu1794  2.743   .     S
Cu1793 N1827   2.061   .     S
Cu1793 O1834   1.959   .     S
Cu1794 O1837   1.926   .     S
Cu1794 O1835   1.959   .     S
Cu1794 N1828   2.061   .     S
Cu1794 O1839   1.919   .     S
Cu1794 O1833   1.942   .     S
H1807  C342    1.109   1_556 S
H1824  C1856   1.111   .     S
C1841  O1915   1.308   .     A
C1841  O1909   1.306   .     A
C1841  C1844   1.446   .     S
C1842  C1853   1.489   .     S
C1842  C1844   1.412   .     A
C1843  C1852   1.446   .     S
C1843  C1871   1.411   .     A
C1843  C1872   1.417   .     A
C1844  C1870   1.408   .     A
C1845  N1908   1.388   .     A
C1845  C1854   1.528   .     S
C1846  N1907   1.390   .     A
C1846  C1857   1.523   .     S
C1846  C2087   1.430   .     S
C1847  N1908   1.379   .     A
C1847  C1860   1.525   .     S
C1848  C1864   1.529   .     S
C1848  N1907   1.389   .     A
C1848  C2085   1.446   .     S
C1849  O1920   1.221   .     D
C1849  C1870   1.489   .     S
C1849  H1875   1.084   .     S
C1850  C1871   1.493   .     S
C1850  H1886   1.084   .     S
C1850  O1910   1.220   .     D
C1851  O1911   1.219   .     D
C1851  C1872   1.494   .     S
C1851  H1897   1.082   .     S
C1852  O1914   1.310   .     A
C1852  O1913   1.304   .     A
C1853  O1912   1.221   .     D
C1853  H1901   1.085   .     S
C1854  H1876   1.088   .     S
C1854  H1877   1.104   .     S
C1854  C1855   1.544   .     S
C1855  C1856   1.526   .     S
C1855  H1905   1.110   .     S
C1855  H1906   1.108   .     S
C1856  H1903   1.111   .     S
C1856  H1902   1.108   .     S
C1857  C1858   1.537   .     S
C1857  H1883   1.098   .     S
C1857  H1884   1.111   .     S
C1858  H1882   1.101   .     S
C1858  C1859   1.528   .     S
C1858  H1881   1.108   .     S
C1859  H1878   1.109   .     S
C1859  H1879   1.111   .     S
C1859  H1880   1.110   .     S
C1860  H1891   1.104   .     S
C1860  H1892   1.086   .     S
C1860  C1861   1.537   .     S
C1861  H1889   1.110   .     S
C1861  H1890   1.110   .     S
C1861  C422    1.528   1_556 S
C1862  H1888   1.110   .     S
C1862  H1885   1.111   .     S
C1863  O1916   1.310   .     A
C1863  C1868   1.405   .     S
C1863  O1919   1.303   .     A
C1864  C1865   1.543   .     S
C1864  H1900   1.106   .     S
C1864  H1899   1.080   .     S
C1865  H1896   1.107   .     S
C1865  H1898   1.109   .     S
C1866  H1895   1.110   .     S
C1866  H1894   1.111   .     S
C1866  C425    1.527   1_556 S
C1866  H453    1.109   1_556 S
C1867  C1869   1.405   .     S
C1867  O1918   1.303   .     A
C1867  O1917   1.310   .     A
C1869  C428    1.188   1_556 S
C1871  C1682   1.404   1_655 S
C1872  C1710   1.404   1_655 S
Cu1873 O1918   1.919   .     S
Cu1873 O1909   1.942   .     S
Cu1873 O1916   1.926   .     S
Cu1873 Cu1874  2.743   .     S
Cu1873 N1907   2.061   .     S
Cu1873 O1914   1.959   .     S
Cu1874 O1917   1.926   .     S
Cu1874 O1915   1.959   .     S
Cu1874 N1908   2.061   .     S
Cu1874 O1919   1.919   .     S
Cu1874 O1913   1.942   .     S
H1887  C422    1.109   1_556 S
H1904  C1696   1.111   1_655 S
C1921  O1995   1.308   .     A
C1921  O1989   1.306   .     A
C1921  C1924   1.446   .     S
C1922  C1933   1.489   .     S
C1922  C1924   1.412   .     A
C1922  C2111   1.404   1_455 S
C1923  C1932   1.446   .     S
C1923  C1951   1.411   .     A
C1923  C1952   1.417   .     A
C1924  C1950   1.408   .     A
C1925  N1988   1.388   .     A
C1925  C1934   1.528   .     S
C1926  N1987   1.390   .     A
C1926  C1937   1.523   .     S
C1926  C1447   1.430   1_565 S
C1927  N1988   1.379   .     A
C1927  C1940   1.525   .     S
C1928  C1944   1.529   .     S
C1928  N1987   1.389   .     A
C1928  C1445   1.446   1_565 S
C1929  O2000   1.221   .     D
C1929  C1950   1.489   .     S
C1929  H1955   1.084   .     S
C1930  C1951   1.493   .     S
C1930  H1966   1.084   .     S
C1930  O1990   1.220   .     D
C1931  O1991   1.219   .     D
C1931  C1952   1.494   .     S
C1931  H1977   1.082   .     S
C1932  O1994   1.310   .     A
C1932  O1993   1.304   .     A
C1933  O1992   1.221   .     D
C1933  H1981   1.085   .     S
C1934  H1956   1.088   .     S
C1934  H1957   1.104   .     S
C1934  C1935   1.544   .     S
C1935  C1936   1.526   .     S
C1935  H1985   1.110   .     S
C1935  H1986   1.108   .     S
C1936  H1983   1.111   .     S
C1936  H1982   1.108   .     S
C1936  H2144   1.111   1_455 S
C1937  C1938   1.537   .     S
C1937  H1963   1.098   .     S
C1937  H1964   1.111   .     S
C1938  H1962   1.101   .     S
C1938  C1939   1.528   .     S
C1938  H1961   1.108   .     S
C1939  H1958   1.109   .     S
C1939  H1959   1.111   .     S
C1939  H1960   1.110   .     S
C1940  H1971   1.104   .     S
C1940  H1972   1.086   .     S
C1940  C1941   1.537   .     S
C1941  H1969   1.110   .     S
C1941  H1970   1.110   .     S
C1941  C502    1.528   1_556 S
C1942  H1968   1.110   .     S
C1942  H1965   1.111   .     S
C1943  O1996   1.310   .     A
C1943  C1948   1.405   .     S
C1943  O1999   1.303   .     A
C1944  C1945   1.543   .     S
C1944  H1980   1.106   .     S
C1944  H1979   1.080   .     S
C1945  H1976   1.107   .     S
C1945  H1978   1.109   .     S
C1946  H1975   1.110   .     S
C1946  H1974   1.111   .     S
C1946  C505    1.527   1_556 S
C1946  H533    1.109   1_556 S
C1947  C1949   1.405   .     S
C1947  O1998   1.303   .     A
C1947  O1997   1.310   .     A
C1949  C508    1.188   1_556 S
C1950  C2112   1.404   1_455 S
C1951  C2002   1.404   .     S
C1952  C2030   1.404   .     S
Cu1953 O1998   1.919   .     S
Cu1953 O1989   1.942   .     S
Cu1953 O1996   1.926   .     S
Cu1953 Cu1954  2.743   .     S
Cu1953 N1987   2.061   .     S
Cu1953 O1994   1.959   .     S
Cu1954 O1997   1.926   .     S
Cu1954 O1995   1.959   .     S
Cu1954 N1988   2.061   .     S
Cu1954 O1999   1.919   .     S
Cu1954 O1993   1.942   .     S
H1967  C502    1.109   1_556 S
H1984  C2016   1.111   .     S
C2001  O2075   1.308   .     A
C2001  O2069   1.306   .     A
C2001  C2004   1.446   .     S
C2002  C2013   1.489   .     S
C2002  C2004   1.412   .     A
C2003  C2012   1.446   .     S
C2003  C2031   1.411   .     A
C2003  C2032   1.417   .     A
C2004  C2030   1.408   .     A
C2005  N2068   1.388   .     A
C2005  C2014   1.528   .     S
C2006  N2067   1.390   .     A
C2006  C2017   1.523   .     S
C2006  C1527   1.430   1_565 S
C2007  N2068   1.379   .     A
C2007  C2020   1.525   .     S
C2008  C2024   1.529   .     S
C2008  N2067   1.389   .     A
C2008  C1525   1.446   1_565 S
C2009  O2080   1.221   .     D
C2009  C2030   1.489   .     S
C2009  H2035   1.084   .     S
C2010  C2031   1.493   .     S
C2010  H2046   1.084   .     S
C2010  O2070   1.220   .     D
C2011  O2071   1.219   .     D
C2011  C2032   1.494   .     S
C2011  H2057   1.082   .     S
C2012  O2074   1.310   .     A
C2012  O2073   1.304   .     A
C2013  O2072   1.221   .     D
C2013  H2061   1.085   .     S
C2014  H2036   1.088   .     S
C2014  H2037   1.104   .     S
C2014  C2015   1.544   .     S
C2015  C2016   1.526   .     S
C2015  H2065   1.110   .     S
C2015  H2066   1.108   .     S
C2016  H2063   1.111   .     S
C2016  H2062   1.108   .     S
C2017  C2018   1.537   .     S
C2017  H2043   1.098   .     S
C2017  H2044   1.111   .     S
C2018  H2042   1.101   .     S
C2018  C2019   1.528   .     S
C2018  H2041   1.108   .     S
C2019  H2038   1.109   .     S
C2019  H2039   1.111   .     S
C2019  H2040   1.110   .     S
C2020  H2051   1.104   .     S
C2020  H2052   1.086   .     S
C2020  C2021   1.537   .     S
C2021  H2049   1.110   .     S
C2021  H2050   1.110   .     S
C2021  C582    1.528   1_556 S
C2022  H2048   1.110   .     S
C2022  H2045   1.111   .     S
C2023  O2076   1.310   .     A
C2023  C2028   1.405   .     S
C2023  O2079   1.303   .     A
C2024  C2025   1.543   .     S
C2024  H2060   1.106   .     S
C2024  H2059   1.080   .     S
C2025  H2056   1.107   .     S
C2025  H2058   1.109   .     S
C2026  H2055   1.110   .     S
C2026  H2054   1.111   .     S
C2026  C585    1.527   1_556 S
C2026  H613    1.109   1_556 S
C2027  C2029   1.405   .     S
C2027  O2078   1.303   .     A
C2027  O2077   1.310   .     A
C2029  C588    1.188   1_556 S
C2031  C2082   1.404   .     S
C2032  C2110   1.404   .     S
Cu2033 O2078   1.919   .     S
Cu2033 O2069   1.942   .     S
Cu2033 O2076   1.926   .     S
Cu2033 Cu2034  2.743   .     S
Cu2033 N2067   2.061   .     S
Cu2033 O2074   1.959   .     S
Cu2034 O2077   1.926   .     S
Cu2034 O2075   1.959   .     S
Cu2034 N2068   2.061   .     S
Cu2034 O2079   1.919   .     S
Cu2034 O2073   1.942   .     S
H2047  C582    1.109   1_556 S
H2064  C2096   1.111   .     S
C2081  O2155   1.308   .     A
C2081  O2149   1.306   .     A
C2081  C2084   1.446   .     S
C2082  C2093   1.489   .     S
C2082  C2084   1.412   .     A
C2083  C2092   1.446   .     S
C2083  C2111   1.411   .     A
C2083  C2112   1.417   .     A
C2084  C2110   1.408   .     A
C2085  N2148   1.388   .     A
C2085  C2094   1.528   .     S
C2086  N2147   1.390   .     A
C2086  C2097   1.523   .     S
C2086  C1607   1.430   1_565 S
C2087  N2148   1.379   .     A
C2087  C2100   1.525   .     S
C2088  C2104   1.529   .     S
C2088  N2147   1.389   .     A
C2088  C1605   1.446   1_565 S
C2089  O2160   1.221   .     D
C2089  C2110   1.489   .     S
C2089  H2115   1.084   .     S
C2090  C2111   1.493   .     S
C2090  H2126   1.084   .     S
C2090  O2150   1.220   .     D
C2091  O2151   1.219   .     D
C2091  C2112   1.494   .     S
C2091  H2137   1.082   .     S
C2092  O2154   1.310   .     A
C2092  O2153   1.304   .     A
C2093  O2152   1.221   .     D
C2093  H2141   1.085   .     S
C2094  H2116   1.088   .     S
C2094  H2117   1.104   .     S
C2094  C2095   1.544   .     S
C2095  C2096   1.526   .     S
C2095  H2145   1.110   .     S
C2095  H2146   1.108   .     S
C2096  H2143   1.111   .     S
C2096  H2142   1.108   .     S
C2097  C2098   1.537   .     S
C2097  H2123   1.098   .     S
C2097  H2124   1.111   .     S
C2098  H2122   1.101   .     S
C2098  C2099   1.528   .     S
C2098  H2121   1.108   .     S
C2099  H2118   1.109   .     S
C2099  H2119   1.111   .     S
C2099  H2120   1.110   .     S
C2100  H2131   1.104   .     S
C2100  H2132   1.086   .     S
C2100  C2101   1.537   .     S
C2101  H2129   1.110   .     S
C2101  H2130   1.110   .     S
C2101  C662    1.528   1_556 S
C2102  H2128   1.110   .     S
C2102  H2125   1.111   .     S
C2103  O2156   1.310   .     A
C2103  C2108   1.405   .     S
C2103  O2159   1.303   .     A
C2104  C2105   1.543   .     S
C2104  H2140   1.106   .     S
C2104  H2139   1.080   .     S
C2105  H2136   1.107   .     S
C2105  H2138   1.109   .     S
C2106  H2135   1.110   .     S
C2106  H2134   1.111   .     S
C2106  C665    1.527   1_556 S
C2106  H693    1.109   1_556 S
C2107  C2109   1.405   .     S
C2107  O2158   1.303   .     A
C2107  O2157   1.310   .     A
C2109  C668    1.188   1_556 S
C2111  C1922   1.404   1_655 S
C2112  C1950   1.404   1_655 S
Cu2113 O2158   1.919   .     S
Cu2113 O2149   1.942   .     S
Cu2113 O2156   1.926   .     S
Cu2113 Cu2114  2.743   .     S
Cu2113 N2147   2.061   .     S
Cu2113 O2154   1.959   .     S
Cu2114 O2157   1.926   .     S
Cu2114 O2155   1.959   .     S
Cu2114 N2148   2.061   .     S
Cu2114 O2159   1.919   .     S
Cu2114 O2153   1.942   .     S
H2127  C662    1.109   1_556 S
H2144  C1936   1.111   1_655 S
