data_str_m2_o10_o18_pcu_sym.161
_audit_creation_date              2020-01-03
_audit_creation_method            'Materials Studio'
_symmetry_space_group_name_H-M    'P1'
_symmetry_Int_Tables_number       1
_symmetry_cell_setting            triclinic
loop_
_symmetry_equiv_pos_as_xyz
  x,y,z
_cell_length_a                    22.4967
_cell_length_b                    26.0424
_cell_length_c                    31.6157
_cell_angle_alpha                 95.2430
_cell_angle_beta                  75.5503
_cell_angle_gamma                 103.2258
loop_
_atom_site_label
_atom_site_type_symbol
_atom_site_fract_x
_atom_site_fract_y
_atom_site_fract_z
_atom_site_U_iso_or_equiv
_atom_site_adp_type
_atom_site_occupancy
C1     C     0.18172   0.26667   0.25131   0.00000  Uiso   1.00
C2     C     0.15184   0.06668   0.24832   0.00000  Uiso   1.00
C3     C     0.09102   0.14785   0.04168   0.00000  Uiso   1.00
C4     C     0.23568   0.21393   0.46369   0.00000  Uiso   1.00
C5     C     0.04740   0.13284   0.01541   0.00000  Uiso   1.00
C6     C     0.27776   0.23038   0.49061   0.00000  Uiso   1.00
C7     C     0.19002   0.32276   0.25215   0.00000  Uiso   1.00
C8     C     0.14405   0.01063   0.24681   0.00000  Uiso   1.00
C9     C     0.12844   0.16305   0.33300   0.00000  Uiso   1.00
C10    C     0.20498   0.17118   0.16706   0.00000  Uiso   1.00
C11    C     0.10557   0.15931   0.38060   0.00000  Uiso   1.00
C12    C     0.22791   0.18096   0.12018   0.00000  Uiso   1.00
C13    C     0.02347   0.13050   0.44431   0.00000  Uiso   1.00
C14    C     0.30406   0.22768   0.06044   0.00000  Uiso   1.00
C15    C     0.04248   0.13879   0.39967   0.00000  Uiso   1.00
C16    C     0.28747   0.21182   0.10349   0.00000  Uiso   1.00
C17    C     0.14875   0.17402   0.40689   0.00000  Uiso   1.00
C18    C     0.18601   0.16480   0.09312   0.00000  Uiso   1.00
C19    C     0.13055   0.16797   0.45239   0.00000  Uiso   1.00
C20    C     0.19988   0.18293   0.05045   0.00000  Uiso   1.00
C21    C     0.06700   0.14384   0.47091   0.00000  Uiso   1.00
C22    C     0.26087   0.21366   0.03365   0.00000  Uiso   1.00
C23    C     0.17413   0.18393   0.47950   0.00000  Uiso   1.00
C24    C     0.15494   0.17092   0.02417   0.00000  Uiso   1.00
Cu25   Cu    0.10737   0.16108   0.24517   0.00000  Uiso   1.00
Cu26   Cu    0.22596   0.17225   0.25483   0.00000  Uiso   1.00
H27    H     0.14274   0.13764   0.10628   0.00000  Uiso   1.00
H28    H     0.19702   0.18836   0.39061   0.00000  Uiso   1.00
H29    H     0.32052   0.22486   0.12399   0.00000  Uiso   1.00
H30    H     0.00826   0.12730   0.37990   0.00000  Uiso   1.00
H31    H     0.30786   0.11297   0.45774   0.00000  Uiso   1.00
H32    H     0.01726   0.25154   0.04841   0.00000  Uiso   1.00
H33    H     0.07302   0.14367   0.07629   0.00000  Uiso   1.00
H34    H     0.25252   0.22694   0.43069   0.00000  Uiso   1.00
H35    H     0.23416   0.01334   0.25745   0.00000  Uiso   1.00
H36    H     0.10024   0.32006   0.24113   0.00000  Uiso   1.00
N37    N     0.31506   0.18068   0.26212   0.00000  Uiso   1.00
N38    N     0.01827   0.15265   0.23788   0.00000  Uiso   1.00
O39    O     0.12815   0.23809   0.24686   0.00000  Uiso   1.00
O40    O     0.20518   0.09524   0.25314   0.00000  Uiso   1.00
O41    O     0.22829   0.24753   0.25503   0.00000  Uiso   1.00
O42    O     0.10504   0.08580   0.24497   0.00000  Uiso   1.00
O43    O     0.08851   0.15930   0.30854   0.00000  Uiso   1.00
O44    O     0.24482   0.17403   0.19145   0.00000  Uiso   1.00
O45    O     0.18866   0.16874   0.31671   0.00000  Uiso   1.00
O46    O     0.14468   0.16460   0.18329   0.00000  Uiso   1.00
O47    O     0.31735   0.11112   0.03247   0.00000  Uiso   1.00
C48    C     0.30805   0.07436   0.06485   0.00000  Uiso   1.00
H49    H     0.01116   0.05006   0.05763   0.00000  Uiso   1.00
H50    H     0.26199   0.04688   0.06637   0.00000  Uiso   1.00
H51    H     0.30554   0.09509   0.09724   0.00000  Uiso   1.00
O52    O     0.00455   0.25915   0.47379   0.00000  Uiso   1.00
C53    C     0.00133   0.31021   0.46420   0.00000  Uiso   1.00
H54    H     0.30328   0.32853   0.49138   0.00000  Uiso   1.00
H55    H     0.31935   0.30944   0.43331   0.00000  Uiso   1.00
H56    H     0.04905   0.00251   0.45947   0.00000  Uiso   1.00
O57    O     0.00529   0.20690   0.29518   0.00000  Uiso   1.00
C58    C     0.31856   0.25466   0.30453   0.00000  Uiso   1.00
H59    H     0.26850   0.24831   0.32212   0.00000  Uiso   1.00
H60    H     0.32886   0.27753   0.27461   0.00000  Uiso   1.00
H61    H     0.01242   0.27905   0.32684   0.00000  Uiso   1.00
O62    O     0.32076   0.11140   0.21733   0.00000  Uiso   1.00
C63    C     0.02620   0.10169   0.17673   0.00000  Uiso   1.00
H64    H     0.04311   0.13792   0.15734   0.00000  Uiso   1.00
H65    H     0.06493   0.08408   0.18022   0.00000  Uiso   1.00
H66    H     0.33113   0.07170   0.15842   0.00000  Uiso   1.00
C67    C     0.51506   0.26667   0.25131   0.00000  Uiso   1.00
C68    C     0.48517   0.06668   0.24832   0.00000  Uiso   1.00
C69    C     0.42435   0.14785   0.04168   0.00000  Uiso   1.00
C70    C     0.56901   0.21393   0.46369   0.00000  Uiso   1.00
C71    C     0.38073   0.13284   0.01541   0.00000  Uiso   1.00
C72    C     0.61110   0.23038   0.49061   0.00000  Uiso   1.00
C73    C     0.52336   0.32276   0.25215   0.00000  Uiso   1.00
C74    C     0.47739   0.01063   0.24681   0.00000  Uiso   1.00
C75    C     0.46177   0.16305   0.33300   0.00000  Uiso   1.00
C76    C     0.53832   0.17118   0.16706   0.00000  Uiso   1.00
C77    C     0.43890   0.15931   0.38060   0.00000  Uiso   1.00
C78    C     0.56124   0.18096   0.12018   0.00000  Uiso   1.00
C79    C     0.35681   0.13050   0.44431   0.00000  Uiso   1.00
C80    C     0.63740   0.22768   0.06044   0.00000  Uiso   1.00
C81    C     0.37581   0.13879   0.39967   0.00000  Uiso   1.00
C82    C     0.62080   0.21182   0.10349   0.00000  Uiso   1.00
C83    C     0.48209   0.17402   0.40689   0.00000  Uiso   1.00
C84    C     0.51934   0.16480   0.09312   0.00000  Uiso   1.00
C85    C     0.46388   0.16797   0.45239   0.00000  Uiso   1.00
C86    C     0.53321   0.18293   0.05045   0.00000  Uiso   1.00
C87    C     0.40033   0.14384   0.47091   0.00000  Uiso   1.00
C88    C     0.59420   0.21366   0.03365   0.00000  Uiso   1.00
C89    C     0.50747   0.18393   0.47950   0.00000  Uiso   1.00
C90    C     0.48827   0.17092   0.02417   0.00000  Uiso   1.00
Cu91   Cu    0.44071   0.16108   0.24517   0.00000  Uiso   1.00
Cu92   Cu    0.55929   0.17225   0.25483   0.00000  Uiso   1.00
H93    H     0.47607   0.13764   0.10628   0.00000  Uiso   1.00
H94    H     0.53036   0.18836   0.39061   0.00000  Uiso   1.00
H95    H     0.65386   0.22486   0.12399   0.00000  Uiso   1.00
H96    H     0.34159   0.12730   0.37990   0.00000  Uiso   1.00
H97    H     0.64120   0.11297   0.45774   0.00000  Uiso   1.00
H98    H     0.35059   0.25154   0.04841   0.00000  Uiso   1.00
H99    H     0.40635   0.14367   0.07629   0.00000  Uiso   1.00
H100   H     0.58585   0.22694   0.43069   0.00000  Uiso   1.00
H101   H     0.56749   0.01334   0.25745   0.00000  Uiso   1.00
H102   H     0.43357   0.32006   0.24113   0.00000  Uiso   1.00
N103   N     0.64839   0.18068   0.26212   0.00000  Uiso   1.00
N104   N     0.35161   0.15265   0.23788   0.00000  Uiso   1.00
O105   O     0.46148   0.23809   0.24686   0.00000  Uiso   1.00
O106   O     0.53852   0.09524   0.25314   0.00000  Uiso   1.00
O107   O     0.56163   0.24753   0.25503   0.00000  Uiso   1.00
O108   O     0.43837   0.08580   0.24497   0.00000  Uiso   1.00
O109   O     0.42185   0.15930   0.30854   0.00000  Uiso   1.00
O110   O     0.57815   0.17403   0.19145   0.00000  Uiso   1.00
O111   O     0.52199   0.16874   0.31671   0.00000  Uiso   1.00
O112   O     0.47801   0.16460   0.18329   0.00000  Uiso   1.00
O113   O     0.65068   0.11112   0.03247   0.00000  Uiso   1.00
C114   C     0.64139   0.07436   0.06485   0.00000  Uiso   1.00
H115   H     0.34450   0.05006   0.05763   0.00000  Uiso   1.00
H116   H     0.59532   0.04688   0.06637   0.00000  Uiso   1.00
H117   H     0.63887   0.09509   0.09724   0.00000  Uiso   1.00
O118   O     0.33788   0.25915   0.47379   0.00000  Uiso   1.00
C119   C     0.33466   0.31021   0.46420   0.00000  Uiso   1.00
H120   H     0.63661   0.32853   0.49138   0.00000  Uiso   1.00
H121   H     0.65269   0.30944   0.43331   0.00000  Uiso   1.00
H122   H     0.38238   0.00251   0.45947   0.00000  Uiso   1.00
O123   O     0.33862   0.20690   0.29518   0.00000  Uiso   1.00
C124   C     0.65190   0.25466   0.30453   0.00000  Uiso   1.00
H125   H     0.60183   0.24831   0.32212   0.00000  Uiso   1.00
H126   H     0.66220   0.27753   0.27461   0.00000  Uiso   1.00
H127   H     0.34576   0.27905   0.32684   0.00000  Uiso   1.00
O128   O     0.65409   0.11140   0.21733   0.00000  Uiso   1.00
C129   C     0.35953   0.10169   0.17673   0.00000  Uiso   1.00
H130   H     0.37645   0.13792   0.15734   0.00000  Uiso   1.00
H131   H     0.39826   0.08408   0.18022   0.00000  Uiso   1.00
H132   H     0.66446   0.07170   0.15842   0.00000  Uiso   1.00
C133   C     0.84839   0.26667   0.25131   0.00000  Uiso   1.00
C134   C     0.81850   0.06668   0.24832   0.00000  Uiso   1.00
C135   C     0.75768   0.14785   0.04168   0.00000  Uiso   1.00
C136   C     0.90234   0.21393   0.46369   0.00000  Uiso   1.00
C137   C     0.71407   0.13284   0.01541   0.00000  Uiso   1.00
C138   C     0.94443   0.23038   0.49061   0.00000  Uiso   1.00
C139   C     0.85669   0.32276   0.25215   0.00000  Uiso   1.00
C140   C     0.81072   0.01063   0.24681   0.00000  Uiso   1.00
C141   C     0.79511   0.16305   0.33300   0.00000  Uiso   1.00
C142   C     0.87165   0.17118   0.16706   0.00000  Uiso   1.00
C143   C     0.77224   0.15931   0.38060   0.00000  Uiso   1.00
C144   C     0.89457   0.18096   0.12018   0.00000  Uiso   1.00
C145   C     0.69014   0.13050   0.44431   0.00000  Uiso   1.00
C146   C     0.97073   0.22768   0.06044   0.00000  Uiso   1.00
C147   C     0.70914   0.13879   0.39967   0.00000  Uiso   1.00
C148   C     0.95414   0.21182   0.10349   0.00000  Uiso   1.00
C149   C     0.81542   0.17402   0.40689   0.00000  Uiso   1.00
C150   C     0.85268   0.16480   0.09312   0.00000  Uiso   1.00
C151   C     0.79722   0.16797   0.45239   0.00000  Uiso   1.00
C152   C     0.86655   0.18293   0.05045   0.00000  Uiso   1.00
C153   C     0.73367   0.14384   0.47091   0.00000  Uiso   1.00
C154   C     0.92753   0.21366   0.03365   0.00000  Uiso   1.00
C155   C     0.84080   0.18393   0.47950   0.00000  Uiso   1.00
C156   C     0.82161   0.17092   0.02417   0.00000  Uiso   1.00
Cu157  Cu    0.77404   0.16108   0.24517   0.00000  Uiso   1.00
Cu158  Cu    0.89263   0.17225   0.25483   0.00000  Uiso   1.00
H159   H     0.80941   0.13764   0.10628   0.00000  Uiso   1.00
H160   H     0.86369   0.18836   0.39061   0.00000  Uiso   1.00
H161   H     0.98719   0.22486   0.12399   0.00000  Uiso   1.00
H162   H     0.67493   0.12730   0.37990   0.00000  Uiso   1.00
H163   H     0.97453   0.11297   0.45774   0.00000  Uiso   1.00
H164   H     0.68392   0.25154   0.04841   0.00000  Uiso   1.00
H165   H     0.73968   0.14367   0.07629   0.00000  Uiso   1.00
H166   H     0.91919   0.22694   0.43069   0.00000  Uiso   1.00
H167   H     0.90083   0.01334   0.25745   0.00000  Uiso   1.00
H168   H     0.76690   0.32006   0.24113   0.00000  Uiso   1.00
N169   N     0.98173   0.18068   0.26212   0.00000  Uiso   1.00
N170   N     0.68494   0.15265   0.23788   0.00000  Uiso   1.00
O171   O     0.79482   0.23809   0.24686   0.00000  Uiso   1.00
O172   O     0.87185   0.09524   0.25314   0.00000  Uiso   1.00
O173   O     0.89496   0.24753   0.25503   0.00000  Uiso   1.00
O174   O     0.77171   0.08580   0.24497   0.00000  Uiso   1.00
O175   O     0.75518   0.15930   0.30854   0.00000  Uiso   1.00
O176   O     0.91149   0.17403   0.19145   0.00000  Uiso   1.00
O177   O     0.85532   0.16874   0.31671   0.00000  Uiso   1.00
O178   O     0.81134   0.16460   0.18329   0.00000  Uiso   1.00
O179   O     0.98402   0.11112   0.03247   0.00000  Uiso   1.00
C180   C     0.97472   0.07436   0.06485   0.00000  Uiso   1.00
H181   H     0.67783   0.05006   0.05763   0.00000  Uiso   1.00
H182   H     0.92866   0.04688   0.06637   0.00000  Uiso   1.00
H183   H     0.97221   0.09509   0.09724   0.00000  Uiso   1.00
O184   O     0.67121   0.25915   0.47379   0.00000  Uiso   1.00
C185   C     0.66800   0.31021   0.46420   0.00000  Uiso   1.00
H186   H     0.96995   0.32853   0.49138   0.00000  Uiso   1.00
H187   H     0.98602   0.30944   0.43331   0.00000  Uiso   1.00
H188   H     0.71572   0.00251   0.45947   0.00000  Uiso   1.00
O189   O     0.67195   0.20690   0.29518   0.00000  Uiso   1.00
C190   C     0.98523   0.25466   0.30453   0.00000  Uiso   1.00
H191   H     0.93517   0.24831   0.32212   0.00000  Uiso   1.00
H192   H     0.99553   0.27753   0.27461   0.00000  Uiso   1.00
H193   H     0.67909   0.27905   0.32684   0.00000  Uiso   1.00
O194   O     0.98742   0.11140   0.21733   0.00000  Uiso   1.00
C195   C     0.69286   0.10169   0.17673   0.00000  Uiso   1.00
H196   H     0.70978   0.13792   0.15734   0.00000  Uiso   1.00
H197   H     0.73159   0.08408   0.18022   0.00000  Uiso   1.00
H198   H     0.99780   0.07170   0.15842   0.00000  Uiso   1.00
C199   C     0.18172   0.60000   0.25131   0.00000  Uiso   1.00
C200   C     0.15184   0.40001   0.24832   0.00000  Uiso   1.00
C201   C     0.09102   0.48118   0.04168   0.00000  Uiso   1.00
C202   C     0.23568   0.54727   0.46369   0.00000  Uiso   1.00
C203   C     0.04740   0.46617   0.01541   0.00000  Uiso   1.00
C204   C     0.27776   0.56371   0.49061   0.00000  Uiso   1.00
C205   C     0.19002   0.65609   0.25215   0.00000  Uiso   1.00
C206   C     0.14405   0.34397   0.24681   0.00000  Uiso   1.00
C207   C     0.12844   0.49639   0.33300   0.00000  Uiso   1.00
C208   C     0.20498   0.50452   0.16706   0.00000  Uiso   1.00
C209   C     0.10557   0.49264   0.38060   0.00000  Uiso   1.00
C210   C     0.22791   0.51430   0.12018   0.00000  Uiso   1.00
C211   C     0.02347   0.46384   0.44431   0.00000  Uiso   1.00
C212   C     0.30406   0.56101   0.06044   0.00000  Uiso   1.00
C213   C     0.04248   0.47213   0.39967   0.00000  Uiso   1.00
C214   C     0.28747   0.54516   0.10349   0.00000  Uiso   1.00
C215   C     0.14875   0.50735   0.40689   0.00000  Uiso   1.00
C216   C     0.18601   0.49814   0.09312   0.00000  Uiso   1.00
C217   C     0.13055   0.50131   0.45239   0.00000  Uiso   1.00
C218   C     0.19988   0.51626   0.05045   0.00000  Uiso   1.00
C219   C     0.06700   0.47717   0.47091   0.00000  Uiso   1.00
C220   C     0.26087   0.54700   0.03365   0.00000  Uiso   1.00
C221   C     0.17413   0.51726   0.47950   0.00000  Uiso   1.00
C222   C     0.15494   0.50425   0.02417   0.00000  Uiso   1.00
Cu223  Cu    0.10737   0.49441   0.24517   0.00000  Uiso   1.00
Cu224  Cu    0.22596   0.50559   0.25483   0.00000  Uiso   1.00
H225   H     0.14274   0.47097   0.10628   0.00000  Uiso   1.00
H226   H     0.19702   0.52169   0.39061   0.00000  Uiso   1.00
H227   H     0.32052   0.55820   0.12399   0.00000  Uiso   1.00
H228   H     0.00826   0.46064   0.37990   0.00000  Uiso   1.00
H229   H     0.30786   0.44630   0.45774   0.00000  Uiso   1.00
H230   H     0.01726   0.58487   0.04841   0.00000  Uiso   1.00
H231   H     0.07302   0.47700   0.07629   0.00000  Uiso   1.00
H232   H     0.25252   0.56027   0.43069   0.00000  Uiso   1.00
H233   H     0.23416   0.34667   0.25745   0.00000  Uiso   1.00
H234   H     0.10024   0.65339   0.24113   0.00000  Uiso   1.00
N235   N     0.31506   0.51401   0.26212   0.00000  Uiso   1.00
N236   N     0.01827   0.48599   0.23788   0.00000  Uiso   1.00
O237   O     0.12815   0.57142   0.24686   0.00000  Uiso   1.00
O238   O     0.20518   0.42858   0.25314   0.00000  Uiso   1.00
O239   O     0.22829   0.58086   0.25503   0.00000  Uiso   1.00
O240   O     0.10504   0.41914   0.24497   0.00000  Uiso   1.00
O241   O     0.08851   0.49263   0.30854   0.00000  Uiso   1.00
O242   O     0.24482   0.50737   0.19145   0.00000  Uiso   1.00
O243   O     0.18866   0.50207   0.31671   0.00000  Uiso   1.00
O244   O     0.14468   0.49793   0.18329   0.00000  Uiso   1.00
O245   O     0.31735   0.44445   0.03247   0.00000  Uiso   1.00
C246   C     0.30805   0.40769   0.06485   0.00000  Uiso   1.00
H247   H     0.01116   0.38340   0.05763   0.00000  Uiso   1.00
H248   H     0.26199   0.38021   0.06637   0.00000  Uiso   1.00
H249   H     0.30554   0.42843   0.09724   0.00000  Uiso   1.00
O250   O     0.00455   0.59249   0.47379   0.00000  Uiso   1.00
C251   C     0.00133   0.64354   0.46420   0.00000  Uiso   1.00
H252   H     0.30328   0.66186   0.49138   0.00000  Uiso   1.00
H253   H     0.31935   0.64278   0.43331   0.00000  Uiso   1.00
H254   H     0.04905   0.33585   0.45947   0.00000  Uiso   1.00
O255   O     0.00529   0.54023   0.29518   0.00000  Uiso   1.00
C256   C     0.31856   0.58800   0.30453   0.00000  Uiso   1.00
H257   H     0.26850   0.58164   0.32212   0.00000  Uiso   1.00
H258   H     0.32886   0.61087   0.27461   0.00000  Uiso   1.00
H259   H     0.01242   0.61239   0.32684   0.00000  Uiso   1.00
O260   O     0.32076   0.44473   0.21733   0.00000  Uiso   1.00
C261   C     0.02620   0.43502   0.17673   0.00000  Uiso   1.00
H262   H     0.04311   0.47125   0.15734   0.00000  Uiso   1.00
H263   H     0.06493   0.41742   0.18022   0.00000  Uiso   1.00
H264   H     0.33113   0.40503   0.15842   0.00000  Uiso   1.00
C265   C     0.51506   0.60000   0.25131   0.00000  Uiso   1.00
C266   C     0.48517   0.40001   0.24832   0.00000  Uiso   1.00
C267   C     0.42435   0.48118   0.04168   0.00000  Uiso   1.00
C268   C     0.56901   0.54727   0.46369   0.00000  Uiso   1.00
C269   C     0.38073   0.46617   0.01541   0.00000  Uiso   1.00
C270   C     0.61110   0.56371   0.49061   0.00000  Uiso   1.00
C271   C     0.52336   0.65609   0.25215   0.00000  Uiso   1.00
C272   C     0.47739   0.34397   0.24681   0.00000  Uiso   1.00
C273   C     0.46177   0.49639   0.33300   0.00000  Uiso   1.00
C274   C     0.53832   0.50452   0.16706   0.00000  Uiso   1.00
C275   C     0.43890   0.49264   0.38060   0.00000  Uiso   1.00
C276   C     0.56124   0.51430   0.12018   0.00000  Uiso   1.00
C277   C     0.35681   0.46384   0.44431   0.00000  Uiso   1.00
C278   C     0.63740   0.56101   0.06044   0.00000  Uiso   1.00
C279   C     0.37581   0.47213   0.39967   0.00000  Uiso   1.00
C280   C     0.62080   0.54516   0.10349   0.00000  Uiso   1.00
C281   C     0.48209   0.50735   0.40689   0.00000  Uiso   1.00
C282   C     0.51934   0.49814   0.09312   0.00000  Uiso   1.00
C283   C     0.46388   0.50131   0.45239   0.00000  Uiso   1.00
C284   C     0.53321   0.51626   0.05045   0.00000  Uiso   1.00
C285   C     0.40033   0.47717   0.47091   0.00000  Uiso   1.00
C286   C     0.59420   0.54700   0.03365   0.00000  Uiso   1.00
C287   C     0.50747   0.51726   0.47950   0.00000  Uiso   1.00
C288   C     0.48827   0.50425   0.02417   0.00000  Uiso   1.00
Cu289  Cu    0.44071   0.49441   0.24517   0.00000  Uiso   1.00
Cu290  Cu    0.55929   0.50559   0.25483   0.00000  Uiso   1.00
H291   H     0.47607   0.47097   0.10628   0.00000  Uiso   1.00
H292   H     0.53036   0.52169   0.39061   0.00000  Uiso   1.00
H293   H     0.65386   0.55820   0.12399   0.00000  Uiso   1.00
H294   H     0.34159   0.46064   0.37990   0.00000  Uiso   1.00
H295   H     0.64120   0.44630   0.45774   0.00000  Uiso   1.00
H296   H     0.35059   0.58487   0.04841   0.00000  Uiso   1.00
H297   H     0.40635   0.47700   0.07629   0.00000  Uiso   1.00
H298   H     0.58585   0.56027   0.43069   0.00000  Uiso   1.00
H299   H     0.56749   0.34667   0.25745   0.00000  Uiso   1.00
H300   H     0.43357   0.65339   0.24113   0.00000  Uiso   1.00
N301   N     0.64839   0.51401   0.26212   0.00000  Uiso   1.00
N302   N     0.35161   0.48599   0.23788   0.00000  Uiso   1.00
O303   O     0.46148   0.57142   0.24686   0.00000  Uiso   1.00
O304   O     0.53852   0.42858   0.25314   0.00000  Uiso   1.00
O305   O     0.56163   0.58086   0.25503   0.00000  Uiso   1.00
O306   O     0.43837   0.41914   0.24497   0.00000  Uiso   1.00
O307   O     0.42185   0.49263   0.30854   0.00000  Uiso   1.00
O308   O     0.57815   0.50737   0.19145   0.00000  Uiso   1.00
O309   O     0.52199   0.50207   0.31671   0.00000  Uiso   1.00
O310   O     0.47801   0.49793   0.18329   0.00000  Uiso   1.00
O311   O     0.65068   0.44445   0.03247   0.00000  Uiso   1.00
C312   C     0.64139   0.40769   0.06485   0.00000  Uiso   1.00
H313   H     0.34450   0.38340   0.05763   0.00000  Uiso   1.00
H314   H     0.59532   0.38021   0.06637   0.00000  Uiso   1.00
H315   H     0.63887   0.42843   0.09724   0.00000  Uiso   1.00
O316   O     0.33788   0.59249   0.47379   0.00000  Uiso   1.00
C317   C     0.33466   0.64354   0.46420   0.00000  Uiso   1.00
H318   H     0.63661   0.66186   0.49138   0.00000  Uiso   1.00
H319   H     0.65269   0.64278   0.43331   0.00000  Uiso   1.00
H320   H     0.38238   0.33585   0.45947   0.00000  Uiso   1.00
O321   O     0.33862   0.54023   0.29518   0.00000  Uiso   1.00
C322   C     0.65190   0.58800   0.30453   0.00000  Uiso   1.00
H323   H     0.60183   0.58164   0.32212   0.00000  Uiso   1.00
H324   H     0.66220   0.61087   0.27461   0.00000  Uiso   1.00
H325   H     0.34576   0.61239   0.32684   0.00000  Uiso   1.00
O326   O     0.65409   0.44473   0.21733   0.00000  Uiso   1.00
C327   C     0.35953   0.43502   0.17673   0.00000  Uiso   1.00
H328   H     0.37645   0.47125   0.15734   0.00000  Uiso   1.00
H329   H     0.39826   0.41742   0.18022   0.00000  Uiso   1.00
H330   H     0.66446   0.40503   0.15842   0.00000  Uiso   1.00
C331   C     0.84839   0.60000   0.25131   0.00000  Uiso   1.00
C332   C     0.81850   0.40001   0.24832   0.00000  Uiso   1.00
C333   C     0.75768   0.48118   0.04168   0.00000  Uiso   1.00
C334   C     0.90234   0.54727   0.46369   0.00000  Uiso   1.00
C335   C     0.71407   0.46617   0.01541   0.00000  Uiso   1.00
C336   C     0.94443   0.56371   0.49061   0.00000  Uiso   1.00
C337   C     0.85669   0.65609   0.25215   0.00000  Uiso   1.00
C338   C     0.81072   0.34397   0.24681   0.00000  Uiso   1.00
C339   C     0.79511   0.49639   0.33300   0.00000  Uiso   1.00
C340   C     0.87165   0.50452   0.16706   0.00000  Uiso   1.00
C341   C     0.77224   0.49264   0.38060   0.00000  Uiso   1.00
C342   C     0.89457   0.51430   0.12018   0.00000  Uiso   1.00
C343   C     0.69014   0.46384   0.44431   0.00000  Uiso   1.00
C344   C     0.97073   0.56101   0.06044   0.00000  Uiso   1.00
C345   C     0.70914   0.47213   0.39967   0.00000  Uiso   1.00
C346   C     0.95414   0.54516   0.10349   0.00000  Uiso   1.00
C347   C     0.81542   0.50735   0.40689   0.00000  Uiso   1.00
C348   C     0.85268   0.49814   0.09312   0.00000  Uiso   1.00
C349   C     0.79722   0.50131   0.45239   0.00000  Uiso   1.00
C350   C     0.86655   0.51626   0.05045   0.00000  Uiso   1.00
C351   C     0.73367   0.47717   0.47091   0.00000  Uiso   1.00
C352   C     0.92753   0.54700   0.03365   0.00000  Uiso   1.00
C353   C     0.84080   0.51726   0.47950   0.00000  Uiso   1.00
C354   C     0.82161   0.50425   0.02417   0.00000  Uiso   1.00
Cu355  Cu    0.77404   0.49441   0.24517   0.00000  Uiso   1.00
Cu356  Cu    0.89263   0.50559   0.25483   0.00000  Uiso   1.00
H357   H     0.80941   0.47097   0.10628   0.00000  Uiso   1.00
H358   H     0.86369   0.52169   0.39061   0.00000  Uiso   1.00
H359   H     0.98719   0.55820   0.12399   0.00000  Uiso   1.00
H360   H     0.67493   0.46064   0.37990   0.00000  Uiso   1.00
H361   H     0.97453   0.44630   0.45774   0.00000  Uiso   1.00
H362   H     0.68392   0.58487   0.04841   0.00000  Uiso   1.00
H363   H     0.73968   0.47700   0.07629   0.00000  Uiso   1.00
H364   H     0.91919   0.56027   0.43069   0.00000  Uiso   1.00
H365   H     0.90083   0.34667   0.25745   0.00000  Uiso   1.00
H366   H     0.76690   0.65339   0.24113   0.00000  Uiso   1.00
N367   N     0.98173   0.51401   0.26212   0.00000  Uiso   1.00
N368   N     0.68494   0.48599   0.23788   0.00000  Uiso   1.00
O369   O     0.79482   0.57142   0.24686   0.00000  Uiso   1.00
O370   O     0.87185   0.42858   0.25314   0.00000  Uiso   1.00
O371   O     0.89496   0.58086   0.25503   0.00000  Uiso   1.00
O372   O     0.77171   0.41914   0.24497   0.00000  Uiso   1.00
O373   O     0.75518   0.49263   0.30854   0.00000  Uiso   1.00
O374   O     0.91149   0.50737   0.19145   0.00000  Uiso   1.00
O375   O     0.85532   0.50207   0.31671   0.00000  Uiso   1.00
O376   O     0.81134   0.49793   0.18329   0.00000  Uiso   1.00
O377   O     0.98402   0.44445   0.03247   0.00000  Uiso   1.00
C378   C     0.97472   0.40769   0.06485   0.00000  Uiso   1.00
H379   H     0.67783   0.38340   0.05763   0.00000  Uiso   1.00
H380   H     0.92866   0.38021   0.06637   0.00000  Uiso   1.00
H381   H     0.97221   0.42843   0.09724   0.00000  Uiso   1.00
O382   O     0.67121   0.59249   0.47379   0.00000  Uiso   1.00
C383   C     0.66800   0.64354   0.46420   0.00000  Uiso   1.00
H384   H     0.96995   0.66186   0.49138   0.00000  Uiso   1.00
H385   H     0.98602   0.64278   0.43331   0.00000  Uiso   1.00
H386   H     0.71572   0.33585   0.45947   0.00000  Uiso   1.00
O387   O     0.67195   0.54023   0.29518   0.00000  Uiso   1.00
C388   C     0.98523   0.58800   0.30453   0.00000  Uiso   1.00
H389   H     0.93517   0.58164   0.32212   0.00000  Uiso   1.00
H390   H     0.99553   0.61087   0.27461   0.00000  Uiso   1.00
H391   H     0.67909   0.61239   0.32684   0.00000  Uiso   1.00
O392   O     0.98742   0.44473   0.21733   0.00000  Uiso   1.00
C393   C     0.69286   0.43502   0.17673   0.00000  Uiso   1.00
H394   H     0.70978   0.47125   0.15734   0.00000  Uiso   1.00
H395   H     0.73159   0.41742   0.18022   0.00000  Uiso   1.00
H396   H     0.99780   0.40503   0.15842   0.00000  Uiso   1.00
C397   C     0.18172   0.93334   0.25131   0.00000  Uiso   1.00
C398   C     0.15184   0.73335   0.24832   0.00000  Uiso   1.00
C399   C     0.09102   0.81451   0.04168   0.00000  Uiso   1.00
C400   C     0.23568   0.88060   0.46369   0.00000  Uiso   1.00
C401   C     0.04740   0.79951   0.01541   0.00000  Uiso   1.00
C402   C     0.27776   0.89705   0.49061   0.00000  Uiso   1.00
C403   C     0.19002   0.98942   0.25215   0.00000  Uiso   1.00
C404   C     0.14405   0.67730   0.24681   0.00000  Uiso   1.00
C405   C     0.12844   0.82972   0.33300   0.00000  Uiso   1.00
C406   C     0.20498   0.83785   0.16706   0.00000  Uiso   1.00
C407   C     0.10557   0.82597   0.38060   0.00000  Uiso   1.00
C408   C     0.22791   0.84763   0.12018   0.00000  Uiso   1.00
C409   C     0.02347   0.79717   0.44431   0.00000  Uiso   1.00
C410   C     0.30406   0.89434   0.06044   0.00000  Uiso   1.00
C411   C     0.04248   0.80546   0.39967   0.00000  Uiso   1.00
C412   C     0.28747   0.87849   0.10349   0.00000  Uiso   1.00
C413   C     0.14875   0.84068   0.40689   0.00000  Uiso   1.00
C414   C     0.18601   0.83147   0.09312   0.00000  Uiso   1.00
C415   C     0.13055   0.83464   0.45239   0.00000  Uiso   1.00
C416   C     0.19988   0.84960   0.05045   0.00000  Uiso   1.00
C417   C     0.06700   0.81050   0.47091   0.00000  Uiso   1.00
C418   C     0.26087   0.88033   0.03365   0.00000  Uiso   1.00
C419   C     0.17413   0.85059   0.47950   0.00000  Uiso   1.00
C420   C     0.15494   0.83758   0.02417   0.00000  Uiso   1.00
Cu421  Cu    0.10737   0.82775   0.24517   0.00000  Uiso   1.00
Cu422  Cu    0.22596   0.83892   0.25483   0.00000  Uiso   1.00
H423   H     0.14274   0.80431   0.10628   0.00000  Uiso   1.00
H424   H     0.19702   0.85503   0.39061   0.00000  Uiso   1.00
H425   H     0.32052   0.89153   0.12399   0.00000  Uiso   1.00
H426   H     0.00826   0.79397   0.37990   0.00000  Uiso   1.00
H427   H     0.30786   0.77963   0.45774   0.00000  Uiso   1.00
H428   H     0.01726   0.91821   0.04841   0.00000  Uiso   1.00
H429   H     0.07302   0.81034   0.07629   0.00000  Uiso   1.00
H430   H     0.25252   0.89361   0.43069   0.00000  Uiso   1.00
H431   H     0.23416   0.68000   0.25745   0.00000  Uiso   1.00
H432   H     0.10024   0.98673   0.24113   0.00000  Uiso   1.00
N433   N     0.31506   0.84735   0.26212   0.00000  Uiso   1.00
N434   N     0.01827   0.81932   0.23788   0.00000  Uiso   1.00
O435   O     0.12815   0.90476   0.24686   0.00000  Uiso   1.00
O436   O     0.20518   0.76191   0.25314   0.00000  Uiso   1.00
O437   O     0.22829   0.91420   0.25503   0.00000  Uiso   1.00
O438   O     0.10504   0.75247   0.24497   0.00000  Uiso   1.00
O439   O     0.08851   0.82597   0.30854   0.00000  Uiso   1.00
O440   O     0.24482   0.84070   0.19145   0.00000  Uiso   1.00
O441   O     0.18866   0.83540   0.31671   0.00000  Uiso   1.00
O442   O     0.14468   0.83126   0.18329   0.00000  Uiso   1.00
O443   O     0.31735   0.77779   0.03247   0.00000  Uiso   1.00
C444   C     0.30805   0.74102   0.06485   0.00000  Uiso   1.00
H445   H     0.01116   0.71673   0.05763   0.00000  Uiso   1.00
H446   H     0.26199   0.71355   0.06637   0.00000  Uiso   1.00
H447   H     0.30554   0.76176   0.09724   0.00000  Uiso   1.00
O448   O     0.00455   0.92582   0.47379   0.00000  Uiso   1.00
C449   C     0.00133   0.97687   0.46420   0.00000  Uiso   1.00
H450   H     0.30328   0.99519   0.49138   0.00000  Uiso   1.00
H451   H     0.31935   0.97611   0.43331   0.00000  Uiso   1.00
H452   H     0.04905   0.66918   0.45947   0.00000  Uiso   1.00
O453   O     0.00529   0.87357   0.29518   0.00000  Uiso   1.00
C454   C     0.31856   0.92133   0.30453   0.00000  Uiso   1.00
H455   H     0.26850   0.91497   0.32212   0.00000  Uiso   1.00
H456   H     0.32886   0.94420   0.27461   0.00000  Uiso   1.00
H457   H     0.01242   0.94572   0.32684   0.00000  Uiso   1.00
O458   O     0.32076   0.77806   0.21733   0.00000  Uiso   1.00
C459   C     0.02620   0.76835   0.17673   0.00000  Uiso   1.00
H460   H     0.04311   0.80458   0.15734   0.00000  Uiso   1.00
H461   H     0.06493   0.75075   0.18022   0.00000  Uiso   1.00
H462   H     0.33113   0.73837   0.15842   0.00000  Uiso   1.00
C463   C     0.51506   0.93334   0.25131   0.00000  Uiso   1.00
C464   C     0.48517   0.73335   0.24832   0.00000  Uiso   1.00
C465   C     0.42435   0.81451   0.04168   0.00000  Uiso   1.00
C466   C     0.56901   0.88060   0.46369   0.00000  Uiso   1.00
C467   C     0.38073   0.79951   0.01541   0.00000  Uiso   1.00
C468   C     0.61110   0.89705   0.49061   0.00000  Uiso   1.00
C469   C     0.52336   0.98942   0.25215   0.00000  Uiso   1.00
C470   C     0.47739   0.67730   0.24681   0.00000  Uiso   1.00
C471   C     0.46177   0.82972   0.33300   0.00000  Uiso   1.00
C472   C     0.53832   0.83785   0.16706   0.00000  Uiso   1.00
C473   C     0.43890   0.82597   0.38060   0.00000  Uiso   1.00
C474   C     0.56124   0.84763   0.12018   0.00000  Uiso   1.00
C475   C     0.35681   0.79717   0.44431   0.00000  Uiso   1.00
C476   C     0.63740   0.89434   0.06044   0.00000  Uiso   1.00
C477   C     0.37581   0.80546   0.39967   0.00000  Uiso   1.00
C478   C     0.62080   0.87849   0.10349   0.00000  Uiso   1.00
C479   C     0.48209   0.84068   0.40689   0.00000  Uiso   1.00
C480   C     0.51934   0.83147   0.09312   0.00000  Uiso   1.00
C481   C     0.46388   0.83464   0.45239   0.00000  Uiso   1.00
C482   C     0.53321   0.84960   0.05045   0.00000  Uiso   1.00
C483   C     0.40033   0.81050   0.47091   0.00000  Uiso   1.00
C484   C     0.59420   0.88033   0.03365   0.00000  Uiso   1.00
C485   C     0.50747   0.85059   0.47950   0.00000  Uiso   1.00
C486   C     0.48827   0.83758   0.02417   0.00000  Uiso   1.00
Cu487  Cu    0.44071   0.82775   0.24517   0.00000  Uiso   1.00
Cu488  Cu    0.55929   0.83892   0.25483   0.00000  Uiso   1.00
H489   H     0.47607   0.80431   0.10628   0.00000  Uiso   1.00
H490   H     0.53036   0.85503   0.39061   0.00000  Uiso   1.00
H491   H     0.65386   0.89153   0.12399   0.00000  Uiso   1.00
H492   H     0.34159   0.79397   0.37990   0.00000  Uiso   1.00
H493   H     0.64120   0.77963   0.45774   0.00000  Uiso   1.00
H494   H     0.35059   0.91821   0.04841   0.00000  Uiso   1.00
H495   H     0.40635   0.81034   0.07629   0.00000  Uiso   1.00
H496   H     0.58585   0.89361   0.43069   0.00000  Uiso   1.00
H497   H     0.56749   0.68000   0.25745   0.00000  Uiso   1.00
H498   H     0.43357   0.98673   0.24113   0.00000  Uiso   1.00
N499   N     0.64839   0.84735   0.26212   0.00000  Uiso   1.00
N500   N     0.35161   0.81932   0.23788   0.00000  Uiso   1.00
O501   O     0.46148   0.90476   0.24686   0.00000  Uiso   1.00
O502   O     0.53852   0.76191   0.25314   0.00000  Uiso   1.00
O503   O     0.56163   0.91420   0.25503   0.00000  Uiso   1.00
O504   O     0.43837   0.75247   0.24497   0.00000  Uiso   1.00
O505   O     0.42185   0.82597   0.30854   0.00000  Uiso   1.00
O506   O     0.57815   0.84070   0.19145   0.00000  Uiso   1.00
O507   O     0.52199   0.83540   0.31671   0.00000  Uiso   1.00
O508   O     0.47801   0.83126   0.18329   0.00000  Uiso   1.00
O509   O     0.65068   0.77779   0.03247   0.00000  Uiso   1.00
C510   C     0.64139   0.74102   0.06485   0.00000  Uiso   1.00
H511   H     0.34450   0.71673   0.05763   0.00000  Uiso   1.00
H512   H     0.59532   0.71355   0.06637   0.00000  Uiso   1.00
H513   H     0.63887   0.76176   0.09724   0.00000  Uiso   1.00
O514   O     0.33788   0.92582   0.47379   0.00000  Uiso   1.00
C515   C     0.33466   0.97687   0.46420   0.00000  Uiso   1.00
H516   H     0.63661   0.99519   0.49138   0.00000  Uiso   1.00
H517   H     0.65269   0.97611   0.43331   0.00000  Uiso   1.00
H518   H     0.38238   0.66918   0.45947   0.00000  Uiso   1.00
O519   O     0.33862   0.87357   0.29518   0.00000  Uiso   1.00
C520   C     0.65190   0.92133   0.30453   0.00000  Uiso   1.00
H521   H     0.60183   0.91497   0.32212   0.00000  Uiso   1.00
H522   H     0.66220   0.94420   0.27461   0.00000  Uiso   1.00
H523   H     0.34576   0.94572   0.32684   0.00000  Uiso   1.00
O524   O     0.65409   0.77806   0.21733   0.00000  Uiso   1.00
C525   C     0.35953   0.76835   0.17673   0.00000  Uiso   1.00
H526   H     0.37645   0.80458   0.15734   0.00000  Uiso   1.00
H527   H     0.39826   0.75075   0.18022   0.00000  Uiso   1.00
H528   H     0.66446   0.73837   0.15842   0.00000  Uiso   1.00
C529   C     0.84839   0.93334   0.25131   0.00000  Uiso   1.00
C530   C     0.81850   0.73335   0.24832   0.00000  Uiso   1.00
C531   C     0.75768   0.81451   0.04168   0.00000  Uiso   1.00
C532   C     0.90234   0.88060   0.46369   0.00000  Uiso   1.00
C533   C     0.71407   0.79951   0.01541   0.00000  Uiso   1.00
C534   C     0.94443   0.89705   0.49061   0.00000  Uiso   1.00
C535   C     0.85669   0.98942   0.25215   0.00000  Uiso   1.00
C536   C     0.81072   0.67730   0.24681   0.00000  Uiso   1.00
C537   C     0.79511   0.82972   0.33300   0.00000  Uiso   1.00
C538   C     0.87165   0.83785   0.16706   0.00000  Uiso   1.00
C539   C     0.77224   0.82597   0.38060   0.00000  Uiso   1.00
C540   C     0.89457   0.84763   0.12018   0.00000  Uiso   1.00
C541   C     0.69014   0.79717   0.44431   0.00000  Uiso   1.00
C542   C     0.97073   0.89434   0.06044   0.00000  Uiso   1.00
C543   C     0.70914   0.80546   0.39967   0.00000  Uiso   1.00
C544   C     0.95414   0.87849   0.10349   0.00000  Uiso   1.00
C545   C     0.81542   0.84068   0.40689   0.00000  Uiso   1.00
C546   C     0.85268   0.83147   0.09312   0.00000  Uiso   1.00
C547   C     0.79722   0.83464   0.45239   0.00000  Uiso   1.00
C548   C     0.86655   0.84960   0.05045   0.00000  Uiso   1.00
C549   C     0.73367   0.81050   0.47091   0.00000  Uiso   1.00
C550   C     0.92753   0.88033   0.03365   0.00000  Uiso   1.00
C551   C     0.84080   0.85059   0.47950   0.00000  Uiso   1.00
C552   C     0.82161   0.83758   0.02417   0.00000  Uiso   1.00
Cu553  Cu    0.77404   0.82775   0.24517   0.00000  Uiso   1.00
Cu554  Cu    0.89263   0.83892   0.25483   0.00000  Uiso   1.00
H555   H     0.80941   0.80431   0.10628   0.00000  Uiso   1.00
H556   H     0.86369   0.85503   0.39061   0.00000  Uiso   1.00
H557   H     0.98719   0.89153   0.12399   0.00000  Uiso   1.00
H558   H     0.67493   0.79397   0.37990   0.00000  Uiso   1.00
H559   H     0.97453   0.77963   0.45774   0.00000  Uiso   1.00
H560   H     0.68392   0.91821   0.04841   0.00000  Uiso   1.00
H561   H     0.73968   0.81034   0.07629   0.00000  Uiso   1.00
H562   H     0.91919   0.89361   0.43069   0.00000  Uiso   1.00
H563   H     0.90083   0.68000   0.25745   0.00000  Uiso   1.00
H564   H     0.76690   0.98673   0.24113   0.00000  Uiso   1.00
N565   N     0.98173   0.84735   0.26212   0.00000  Uiso   1.00
N566   N     0.68494   0.81932   0.23788   0.00000  Uiso   1.00
O567   O     0.79482   0.90476   0.24686   0.00000  Uiso   1.00
O568   O     0.87185   0.76191   0.25314   0.00000  Uiso   1.00
O569   O     0.89496   0.91420   0.25503   0.00000  Uiso   1.00
O570   O     0.77171   0.75247   0.24497   0.00000  Uiso   1.00
O571   O     0.75518   0.82597   0.30854   0.00000  Uiso   1.00
O572   O     0.91149   0.84070   0.19145   0.00000  Uiso   1.00
O573   O     0.85532   0.83540   0.31671   0.00000  Uiso   1.00
O574   O     0.81134   0.83126   0.18329   0.00000  Uiso   1.00
O575   O     0.98402   0.77779   0.03247   0.00000  Uiso   1.00
C576   C     0.97472   0.74102   0.06485   0.00000  Uiso   1.00
H577   H     0.67783   0.71673   0.05763   0.00000  Uiso   1.00
H578   H     0.92866   0.71355   0.06637   0.00000  Uiso   1.00
H579   H     0.97221   0.76176   0.09724   0.00000  Uiso   1.00
O580   O     0.67121   0.92582   0.47379   0.00000  Uiso   1.00
C581   C     0.66800   0.97687   0.46420   0.00000  Uiso   1.00
H582   H     0.96995   0.99519   0.49138   0.00000  Uiso   1.00
H583   H     0.98602   0.97611   0.43331   0.00000  Uiso   1.00
H584   H     0.71572   0.66918   0.45947   0.00000  Uiso   1.00
O585   O     0.67195   0.87357   0.29518   0.00000  Uiso   1.00
C586   C     0.98523   0.92133   0.30453   0.00000  Uiso   1.00
H587   H     0.93517   0.91497   0.32212   0.00000  Uiso   1.00
H588   H     0.99553   0.94420   0.27461   0.00000  Uiso   1.00
H589   H     0.67909   0.94572   0.32684   0.00000  Uiso   1.00
O590   O     0.98742   0.77806   0.21733   0.00000  Uiso   1.00
C591   C     0.69286   0.76835   0.17673   0.00000  Uiso   1.00
H592   H     0.70978   0.80458   0.15734   0.00000  Uiso   1.00
H593   H     0.73159   0.75075   0.18022   0.00000  Uiso   1.00
H594   H     0.99780   0.73837   0.15842   0.00000  Uiso   1.00
C595   C     0.18172   0.26667   0.75131   0.00000  Uiso   1.00
C596   C     0.15184   0.06668   0.74832   0.00000  Uiso   1.00
C597   C     0.09102   0.14785   0.54168   0.00000  Uiso   1.00
C598   C     0.23568   0.21393   0.96369   0.00000  Uiso   1.00
C599   C     0.04740   0.13284   0.51541   0.00000  Uiso   1.00
C600   C     0.27776   0.23038   0.99061   0.00000  Uiso   1.00
C601   C     0.19002   0.32276   0.75215   0.00000  Uiso   1.00
C602   C     0.14405   0.01063   0.74681   0.00000  Uiso   1.00
C603   C     0.12844   0.16305   0.83300   0.00000  Uiso   1.00
C604   C     0.20498   0.17118   0.66706   0.00000  Uiso   1.00
C605   C     0.10557   0.15931   0.88060   0.00000  Uiso   1.00
C606   C     0.22791   0.18096   0.62018   0.00000  Uiso   1.00
C607   C     0.02347   0.13050   0.94431   0.00000  Uiso   1.00
C608   C     0.30406   0.22768   0.56044   0.00000  Uiso   1.00
C609   C     0.04248   0.13879   0.89967   0.00000  Uiso   1.00
C610   C     0.28747   0.21182   0.60349   0.00000  Uiso   1.00
C611   C     0.14875   0.17402   0.90689   0.00000  Uiso   1.00
C612   C     0.18601   0.16480   0.59312   0.00000  Uiso   1.00
C613   C     0.13055   0.16797   0.95239   0.00000  Uiso   1.00
C614   C     0.19988   0.18293   0.55045   0.00000  Uiso   1.00
C615   C     0.06700   0.14384   0.97091   0.00000  Uiso   1.00
C616   C     0.26087   0.21366   0.53365   0.00000  Uiso   1.00
C617   C     0.17413   0.18393   0.97950   0.00000  Uiso   1.00
C618   C     0.15494   0.17092   0.52417   0.00000  Uiso   1.00
Cu619  Cu    0.10737   0.16108   0.74517   0.00000  Uiso   1.00
Cu620  Cu    0.22596   0.17225   0.75483   0.00000  Uiso   1.00
H621   H     0.14274   0.13764   0.60628   0.00000  Uiso   1.00
H622   H     0.19702   0.18836   0.89061   0.00000  Uiso   1.00
H623   H     0.32052   0.22486   0.62399   0.00000  Uiso   1.00
H624   H     0.00826   0.12730   0.87990   0.00000  Uiso   1.00
H625   H     0.30786   0.11297   0.95774   0.00000  Uiso   1.00
H626   H     0.01726   0.25154   0.54841   0.00000  Uiso   1.00
H627   H     0.07302   0.14367   0.57629   0.00000  Uiso   1.00
H628   H     0.25252   0.22694   0.93069   0.00000  Uiso   1.00
H629   H     0.23416   0.01334   0.75745   0.00000  Uiso   1.00
H630   H     0.10024   0.32006   0.74113   0.00000  Uiso   1.00
N631   N     0.31506   0.18068   0.76212   0.00000  Uiso   1.00
N632   N     0.01827   0.15265   0.73788   0.00000  Uiso   1.00
O633   O     0.12815   0.23809   0.74686   0.00000  Uiso   1.00
O634   O     0.20518   0.09524   0.75314   0.00000  Uiso   1.00
O635   O     0.22829   0.24753   0.75503   0.00000  Uiso   1.00
O636   O     0.10504   0.08580   0.74497   0.00000  Uiso   1.00
O637   O     0.08851   0.15930   0.80854   0.00000  Uiso   1.00
O638   O     0.24482   0.17403   0.69145   0.00000  Uiso   1.00
O639   O     0.18866   0.16874   0.81671   0.00000  Uiso   1.00
O640   O     0.14468   0.16460   0.68329   0.00000  Uiso   1.00
O641   O     0.31735   0.11112   0.53247   0.00000  Uiso   1.00
C642   C     0.30805   0.07436   0.56485   0.00000  Uiso   1.00
H643   H     0.01116   0.05006   0.55763   0.00000  Uiso   1.00
H644   H     0.26199   0.04688   0.56637   0.00000  Uiso   1.00
H645   H     0.30554   0.09509   0.59724   0.00000  Uiso   1.00
O646   O     0.00455   0.25915   0.97379   0.00000  Uiso   1.00
C647   C     0.00133   0.31021   0.96420   0.00000  Uiso   1.00
H648   H     0.30328   0.32853   0.99138   0.00000  Uiso   1.00
H649   H     0.31935   0.30944   0.93331   0.00000  Uiso   1.00
H650   H     0.04905   0.00251   0.95947   0.00000  Uiso   1.00
O651   O     0.00529   0.20690   0.79518   0.00000  Uiso   1.00
C652   C     0.31856   0.25466   0.80453   0.00000  Uiso   1.00
H653   H     0.26850   0.24831   0.82212   0.00000  Uiso   1.00
H654   H     0.32886   0.27753   0.77461   0.00000  Uiso   1.00
H655   H     0.01242   0.27905   0.82684   0.00000  Uiso   1.00
O656   O     0.32076   0.11140   0.71733   0.00000  Uiso   1.00
C657   C     0.02620   0.10169   0.67673   0.00000  Uiso   1.00
H658   H     0.04311   0.13792   0.65734   0.00000  Uiso   1.00
H659   H     0.06493   0.08408   0.68022   0.00000  Uiso   1.00
H660   H     0.33113   0.07170   0.65842   0.00000  Uiso   1.00
C661   C     0.51506   0.26667   0.75131   0.00000  Uiso   1.00
C662   C     0.48517   0.06668   0.74832   0.00000  Uiso   1.00
C663   C     0.42435   0.14785   0.54168   0.00000  Uiso   1.00
C664   C     0.56901   0.21393   0.96369   0.00000  Uiso   1.00
C665   C     0.38073   0.13284   0.51541   0.00000  Uiso   1.00
C666   C     0.61110   0.23038   0.99061   0.00000  Uiso   1.00
C667   C     0.52336   0.32276   0.75215   0.00000  Uiso   1.00
C668   C     0.47739   0.01063   0.74681   0.00000  Uiso   1.00
C669   C     0.46177   0.16305   0.83300   0.00000  Uiso   1.00
C670   C     0.53832   0.17118   0.66706   0.00000  Uiso   1.00
C671   C     0.43890   0.15931   0.88060   0.00000  Uiso   1.00
C672   C     0.56124   0.18096   0.62018   0.00000  Uiso   1.00
C673   C     0.35681   0.13050   0.94431   0.00000  Uiso   1.00
C674   C     0.63740   0.22768   0.56044   0.00000  Uiso   1.00
C675   C     0.37581   0.13879   0.89967   0.00000  Uiso   1.00
C676   C     0.62080   0.21182   0.60349   0.00000  Uiso   1.00
C677   C     0.48209   0.17402   0.90689   0.00000  Uiso   1.00
C678   C     0.51934   0.16480   0.59312   0.00000  Uiso   1.00
C679   C     0.46388   0.16797   0.95239   0.00000  Uiso   1.00
C680   C     0.53321   0.18293   0.55045   0.00000  Uiso   1.00
C681   C     0.40033   0.14384   0.97091   0.00000  Uiso   1.00
C682   C     0.59420   0.21366   0.53365   0.00000  Uiso   1.00
C683   C     0.50747   0.18393   0.97950   0.00000  Uiso   1.00
C684   C     0.48827   0.17092   0.52417   0.00000  Uiso   1.00
Cu685  Cu    0.44071   0.16108   0.74517   0.00000  Uiso   1.00
Cu686  Cu    0.55929   0.17225   0.75483   0.00000  Uiso   1.00
H687   H     0.47607   0.13764   0.60628   0.00000  Uiso   1.00
H688   H     0.53036   0.18836   0.89061   0.00000  Uiso   1.00
H689   H     0.65386   0.22486   0.62399   0.00000  Uiso   1.00
H690   H     0.34159   0.12730   0.87990   0.00000  Uiso   1.00
H691   H     0.64120   0.11297   0.95774   0.00000  Uiso   1.00
H692   H     0.35059   0.25154   0.54841   0.00000  Uiso   1.00
H693   H     0.40635   0.14367   0.57629   0.00000  Uiso   1.00
H694   H     0.58585   0.22694   0.93069   0.00000  Uiso   1.00
H695   H     0.56749   0.01334   0.75745   0.00000  Uiso   1.00
H696   H     0.43357   0.32006   0.74113   0.00000  Uiso   1.00
N697   N     0.64839   0.18068   0.76212   0.00000  Uiso   1.00
N698   N     0.35161   0.15265   0.73788   0.00000  Uiso   1.00
O699   O     0.46148   0.23809   0.74686   0.00000  Uiso   1.00
O700   O     0.53852   0.09524   0.75314   0.00000  Uiso   1.00
O701   O     0.56163   0.24753   0.75503   0.00000  Uiso   1.00
O702   O     0.43837   0.08580   0.74497   0.00000  Uiso   1.00
O703   O     0.42185   0.15930   0.80854   0.00000  Uiso   1.00
O704   O     0.57815   0.17403   0.69145   0.00000  Uiso   1.00
O705   O     0.52199   0.16874   0.81671   0.00000  Uiso   1.00
O706   O     0.47801   0.16460   0.68329   0.00000  Uiso   1.00
O707   O     0.65068   0.11112   0.53247   0.00000  Uiso   1.00
C708   C     0.64139   0.07436   0.56485   0.00000  Uiso   1.00
H709   H     0.34450   0.05006   0.55763   0.00000  Uiso   1.00
H710   H     0.59532   0.04688   0.56637   0.00000  Uiso   1.00
H711   H     0.63887   0.09509   0.59724   0.00000  Uiso   1.00
O712   O     0.33788   0.25915   0.97379   0.00000  Uiso   1.00
C713   C     0.33466   0.31021   0.96420   0.00000  Uiso   1.00
H714   H     0.63661   0.32853   0.99138   0.00000  Uiso   1.00
H715   H     0.65269   0.30944   0.93331   0.00000  Uiso   1.00
H716   H     0.38238   0.00251   0.95947   0.00000  Uiso   1.00
O717   O     0.33862   0.20690   0.79518   0.00000  Uiso   1.00
C718   C     0.65190   0.25466   0.80453   0.00000  Uiso   1.00
H719   H     0.60183   0.24831   0.82212   0.00000  Uiso   1.00
H720   H     0.66220   0.27753   0.77461   0.00000  Uiso   1.00
H721   H     0.34576   0.27905   0.82684   0.00000  Uiso   1.00
O722   O     0.65409   0.11140   0.71733   0.00000  Uiso   1.00
C723   C     0.35953   0.10169   0.67673   0.00000  Uiso   1.00
H724   H     0.37645   0.13792   0.65734   0.00000  Uiso   1.00
H725   H     0.39826   0.08408   0.68022   0.00000  Uiso   1.00
H726   H     0.66446   0.07170   0.65842   0.00000  Uiso   1.00
C727   C     0.84839   0.26667   0.75131   0.00000  Uiso   1.00
C728   C     0.81850   0.06668   0.74832   0.00000  Uiso   1.00
C729   C     0.75768   0.14785   0.54168   0.00000  Uiso   1.00
C730   C     0.90234   0.21393   0.96369   0.00000  Uiso   1.00
C731   C     0.71407   0.13284   0.51541   0.00000  Uiso   1.00
C732   C     0.94443   0.23038   0.99061   0.00000  Uiso   1.00
C733   C     0.85669   0.32276   0.75215   0.00000  Uiso   1.00
C734   C     0.81072   0.01063   0.74681   0.00000  Uiso   1.00
C735   C     0.79511   0.16305   0.83300   0.00000  Uiso   1.00
C736   C     0.87165   0.17118   0.66706   0.00000  Uiso   1.00
C737   C     0.77224   0.15931   0.88060   0.00000  Uiso   1.00
C738   C     0.89457   0.18096   0.62018   0.00000  Uiso   1.00
C739   C     0.69014   0.13050   0.94431   0.00000  Uiso   1.00
C740   C     0.97073   0.22768   0.56044   0.00000  Uiso   1.00
C741   C     0.70914   0.13879   0.89967   0.00000  Uiso   1.00
C742   C     0.95414   0.21182   0.60349   0.00000  Uiso   1.00
C743   C     0.81542   0.17402   0.90689   0.00000  Uiso   1.00
C744   C     0.85268   0.16480   0.59312   0.00000  Uiso   1.00
C745   C     0.79722   0.16797   0.95239   0.00000  Uiso   1.00
C746   C     0.86655   0.18293   0.55045   0.00000  Uiso   1.00
C747   C     0.73367   0.14384   0.97091   0.00000  Uiso   1.00
C748   C     0.92753   0.21366   0.53365   0.00000  Uiso   1.00
C749   C     0.84080   0.18393   0.97950   0.00000  Uiso   1.00
C750   C     0.82161   0.17092   0.52417   0.00000  Uiso   1.00
Cu751  Cu    0.77404   0.16108   0.74517   0.00000  Uiso   1.00
Cu752  Cu    0.89263   0.17225   0.75483   0.00000  Uiso   1.00
H753   H     0.80941   0.13764   0.60628   0.00000  Uiso   1.00
H754   H     0.86369   0.18836   0.89061   0.00000  Uiso   1.00
H755   H     0.98719   0.22486   0.62399   0.00000  Uiso   1.00
H756   H     0.67493   0.12730   0.87990   0.00000  Uiso   1.00
H757   H     0.97453   0.11297   0.95774   0.00000  Uiso   1.00
H758   H     0.68392   0.25154   0.54841   0.00000  Uiso   1.00
H759   H     0.73968   0.14367   0.57629   0.00000  Uiso   1.00
H760   H     0.91919   0.22694   0.93069   0.00000  Uiso   1.00
H761   H     0.90083   0.01334   0.75745   0.00000  Uiso   1.00
H762   H     0.76690   0.32006   0.74113   0.00000  Uiso   1.00
N763   N     0.98173   0.18068   0.76212   0.00000  Uiso   1.00
N764   N     0.68494   0.15265   0.73788   0.00000  Uiso   1.00
O765   O     0.79482   0.23809   0.74686   0.00000  Uiso   1.00
O766   O     0.87185   0.09524   0.75314   0.00000  Uiso   1.00
O767   O     0.89496   0.24753   0.75503   0.00000  Uiso   1.00
O768   O     0.77171   0.08580   0.74497   0.00000  Uiso   1.00
O769   O     0.75518   0.15930   0.80854   0.00000  Uiso   1.00
O770   O     0.91149   0.17403   0.69145   0.00000  Uiso   1.00
O771   O     0.85532   0.16874   0.81671   0.00000  Uiso   1.00
O772   O     0.81134   0.16460   0.68329   0.00000  Uiso   1.00
O773   O     0.98402   0.11112   0.53247   0.00000  Uiso   1.00
C774   C     0.97472   0.07436   0.56485   0.00000  Uiso   1.00
H775   H     0.67783   0.05006   0.55763   0.00000  Uiso   1.00
H776   H     0.92866   0.04688   0.56637   0.00000  Uiso   1.00
H777   H     0.97221   0.09509   0.59724   0.00000  Uiso   1.00
O778   O     0.67121   0.25915   0.97379   0.00000  Uiso   1.00
C779   C     0.66800   0.31021   0.96420   0.00000  Uiso   1.00
H780   H     0.96995   0.32853   0.99138   0.00000  Uiso   1.00
H781   H     0.98602   0.30944   0.93331   0.00000  Uiso   1.00
H782   H     0.71572   0.00251   0.95947   0.00000  Uiso   1.00
O783   O     0.67195   0.20690   0.79518   0.00000  Uiso   1.00
C784   C     0.98523   0.25466   0.80453   0.00000  Uiso   1.00
H785   H     0.93517   0.24831   0.82212   0.00000  Uiso   1.00
H786   H     0.99553   0.27753   0.77461   0.00000  Uiso   1.00
H787   H     0.67909   0.27905   0.82684   0.00000  Uiso   1.00
O788   O     0.98742   0.11140   0.71733   0.00000  Uiso   1.00
C789   C     0.69286   0.10169   0.67673   0.00000  Uiso   1.00
H790   H     0.70978   0.13792   0.65734   0.00000  Uiso   1.00
H791   H     0.73159   0.08408   0.68022   0.00000  Uiso   1.00
H792   H     0.99780   0.07170   0.65842   0.00000  Uiso   1.00
C793   C     0.18172   0.60000   0.75131   0.00000  Uiso   1.00
C794   C     0.15184   0.40001   0.74832   0.00000  Uiso   1.00
C795   C     0.09102   0.48118   0.54168   0.00000  Uiso   1.00
C796   C     0.23568   0.54727   0.96369   0.00000  Uiso   1.00
C797   C     0.04740   0.46617   0.51541   0.00000  Uiso   1.00
C798   C     0.27776   0.56371   0.99061   0.00000  Uiso   1.00
C799   C     0.19002   0.65609   0.75215   0.00000  Uiso   1.00
C800   C     0.14405   0.34397   0.74681   0.00000  Uiso   1.00
C801   C     0.12844   0.49639   0.83300   0.00000  Uiso   1.00
C802   C     0.20498   0.50452   0.66706   0.00000  Uiso   1.00
C803   C     0.10557   0.49264   0.88060   0.00000  Uiso   1.00
C804   C     0.22791   0.51430   0.62018   0.00000  Uiso   1.00
C805   C     0.02347   0.46384   0.94431   0.00000  Uiso   1.00
C806   C     0.30406   0.56101   0.56044   0.00000  Uiso   1.00
C807   C     0.04248   0.47213   0.89967   0.00000  Uiso   1.00
C808   C     0.28747   0.54516   0.60349   0.00000  Uiso   1.00
C809   C     0.14875   0.50735   0.90689   0.00000  Uiso   1.00
C810   C     0.18601   0.49814   0.59312   0.00000  Uiso   1.00
C811   C     0.13055   0.50131   0.95239   0.00000  Uiso   1.00
C812   C     0.19988   0.51626   0.55045   0.00000  Uiso   1.00
C813   C     0.06700   0.47717   0.97091   0.00000  Uiso   1.00
C814   C     0.26087   0.54700   0.53365   0.00000  Uiso   1.00
C815   C     0.17413   0.51726   0.97950   0.00000  Uiso   1.00
C816   C     0.15494   0.50425   0.52417   0.00000  Uiso   1.00
Cu817  Cu    0.10737   0.49441   0.74517   0.00000  Uiso   1.00
Cu818  Cu    0.22596   0.50559   0.75483   0.00000  Uiso   1.00
H819   H     0.14274   0.47097   0.60628   0.00000  Uiso   1.00
H820   H     0.19702   0.52169   0.89061   0.00000  Uiso   1.00
H821   H     0.32052   0.55820   0.62399   0.00000  Uiso   1.00
H822   H     0.00826   0.46064   0.87990   0.00000  Uiso   1.00
H823   H     0.30786   0.44630   0.95774   0.00000  Uiso   1.00
H824   H     0.01726   0.58487   0.54841   0.00000  Uiso   1.00
H825   H     0.07302   0.47700   0.57629   0.00000  Uiso   1.00
H826   H     0.25252   0.56027   0.93069   0.00000  Uiso   1.00
H827   H     0.23416   0.34667   0.75745   0.00000  Uiso   1.00
H828   H     0.10024   0.65339   0.74113   0.00000  Uiso   1.00
N829   N     0.31506   0.51401   0.76212   0.00000  Uiso   1.00
N830   N     0.01827   0.48599   0.73788   0.00000  Uiso   1.00
O831   O     0.12815   0.57142   0.74686   0.00000  Uiso   1.00
O832   O     0.20518   0.42858   0.75314   0.00000  Uiso   1.00
O833   O     0.22829   0.58086   0.75503   0.00000  Uiso   1.00
O834   O     0.10504   0.41914   0.74497   0.00000  Uiso   1.00
O835   O     0.08851   0.49263   0.80854   0.00000  Uiso   1.00
O836   O     0.24482   0.50737   0.69145   0.00000  Uiso   1.00
O837   O     0.18866   0.50207   0.81671   0.00000  Uiso   1.00
O838   O     0.14468   0.49793   0.68329   0.00000  Uiso   1.00
O839   O     0.31735   0.44445   0.53247   0.00000  Uiso   1.00
C840   C     0.30805   0.40769   0.56485   0.00000  Uiso   1.00
H841   H     0.01116   0.38340   0.55763   0.00000  Uiso   1.00
H842   H     0.26199   0.38021   0.56637   0.00000  Uiso   1.00
H843   H     0.30554   0.42843   0.59724   0.00000  Uiso   1.00
O844   O     0.00455   0.59249   0.97379   0.00000  Uiso   1.00
C845   C     0.00133   0.64354   0.96420   0.00000  Uiso   1.00
H846   H     0.30328   0.66186   0.99138   0.00000  Uiso   1.00
H847   H     0.31935   0.64278   0.93331   0.00000  Uiso   1.00
H848   H     0.04905   0.33585   0.95947   0.00000  Uiso   1.00
O849   O     0.00529   0.54023   0.79518   0.00000  Uiso   1.00
C850   C     0.31856   0.58800   0.80453   0.00000  Uiso   1.00
H851   H     0.26850   0.58164   0.82212   0.00000  Uiso   1.00
H852   H     0.32886   0.61087   0.77461   0.00000  Uiso   1.00
H853   H     0.01242   0.61239   0.82684   0.00000  Uiso   1.00
O854   O     0.32076   0.44473   0.71733   0.00000  Uiso   1.00
C855   C     0.02620   0.43502   0.67673   0.00000  Uiso   1.00
H856   H     0.04311   0.47125   0.65734   0.00000  Uiso   1.00
H857   H     0.06493   0.41742   0.68022   0.00000  Uiso   1.00
H858   H     0.33113   0.40503   0.65842   0.00000  Uiso   1.00
C859   C     0.51506   0.60000   0.75131   0.00000  Uiso   1.00
C860   C     0.48517   0.40001   0.74832   0.00000  Uiso   1.00
C861   C     0.42435   0.48118   0.54168   0.00000  Uiso   1.00
C862   C     0.56901   0.54727   0.96369   0.00000  Uiso   1.00
C863   C     0.38073   0.46617   0.51541   0.00000  Uiso   1.00
C864   C     0.61110   0.56371   0.99061   0.00000  Uiso   1.00
C865   C     0.52336   0.65609   0.75215   0.00000  Uiso   1.00
C866   C     0.47739   0.34397   0.74681   0.00000  Uiso   1.00
C867   C     0.46177   0.49639   0.83300   0.00000  Uiso   1.00
C868   C     0.53832   0.50452   0.66706   0.00000  Uiso   1.00
C869   C     0.43890   0.49264   0.88060   0.00000  Uiso   1.00
C870   C     0.56124   0.51430   0.62018   0.00000  Uiso   1.00
C871   C     0.35681   0.46384   0.94431   0.00000  Uiso   1.00
C872   C     0.63740   0.56101   0.56044   0.00000  Uiso   1.00
C873   C     0.37581   0.47213   0.89967   0.00000  Uiso   1.00
C874   C     0.62080   0.54516   0.60349   0.00000  Uiso   1.00
C875   C     0.48209   0.50735   0.90689   0.00000  Uiso   1.00
C876   C     0.51934   0.49814   0.59312   0.00000  Uiso   1.00
C877   C     0.46388   0.50131   0.95239   0.00000  Uiso   1.00
C878   C     0.53321   0.51626   0.55045   0.00000  Uiso   1.00
C879   C     0.40033   0.47717   0.97091   0.00000  Uiso   1.00
C880   C     0.59420   0.54700   0.53365   0.00000  Uiso   1.00
C881   C     0.50747   0.51726   0.97950   0.00000  Uiso   1.00
C882   C     0.48827   0.50425   0.52417   0.00000  Uiso   1.00
Cu883  Cu    0.44071   0.49441   0.74517   0.00000  Uiso   1.00
Cu884  Cu    0.55929   0.50559   0.75483   0.00000  Uiso   1.00
H885   H     0.47607   0.47097   0.60628   0.00000  Uiso   1.00
H886   H     0.53036   0.52169   0.89061   0.00000  Uiso   1.00
H887   H     0.65386   0.55820   0.62399   0.00000  Uiso   1.00
H888   H     0.34159   0.46064   0.87990   0.00000  Uiso   1.00
H889   H     0.64120   0.44630   0.95774   0.00000  Uiso   1.00
H890   H     0.35059   0.58487   0.54841   0.00000  Uiso   1.00
H891   H     0.40635   0.47700   0.57629   0.00000  Uiso   1.00
H892   H     0.58585   0.56027   0.93069   0.00000  Uiso   1.00
H893   H     0.56749   0.34667   0.75745   0.00000  Uiso   1.00
H894   H     0.43357   0.65339   0.74113   0.00000  Uiso   1.00
N895   N     0.64839   0.51401   0.76212   0.00000  Uiso   1.00
N896   N     0.35161   0.48599   0.73788   0.00000  Uiso   1.00
O897   O     0.46148   0.57142   0.74686   0.00000  Uiso   1.00
O898   O     0.53852   0.42858   0.75314   0.00000  Uiso   1.00
O899   O     0.56163   0.58086   0.75503   0.00000  Uiso   1.00
O900   O     0.43837   0.41914   0.74497   0.00000  Uiso   1.00
O901   O     0.42185   0.49263   0.80854   0.00000  Uiso   1.00
O902   O     0.57815   0.50737   0.69145   0.00000  Uiso   1.00
O903   O     0.52199   0.50207   0.81671   0.00000  Uiso   1.00
O904   O     0.47801   0.49793   0.68329   0.00000  Uiso   1.00
O905   O     0.65068   0.44445   0.53247   0.00000  Uiso   1.00
C906   C     0.64139   0.40769   0.56485   0.00000  Uiso   1.00
H907   H     0.34450   0.38340   0.55763   0.00000  Uiso   1.00
H908   H     0.59532   0.38021   0.56637   0.00000  Uiso   1.00
H909   H     0.63887   0.42843   0.59724   0.00000  Uiso   1.00
O910   O     0.33788   0.59249   0.97379   0.00000  Uiso   1.00
C911   C     0.33466   0.64354   0.96420   0.00000  Uiso   1.00
H912   H     0.63661   0.66186   0.99138   0.00000  Uiso   1.00
H913   H     0.65269   0.64278   0.93331   0.00000  Uiso   1.00
H914   H     0.38238   0.33585   0.95947   0.00000  Uiso   1.00
O915   O     0.33862   0.54023   0.79518   0.00000  Uiso   1.00
C916   C     0.65190   0.58800   0.80453   0.00000  Uiso   1.00
H917   H     0.60183   0.58164   0.82212   0.00000  Uiso   1.00
H918   H     0.66220   0.61087   0.77461   0.00000  Uiso   1.00
H919   H     0.34576   0.61239   0.82684   0.00000  Uiso   1.00
O920   O     0.65409   0.44473   0.71733   0.00000  Uiso   1.00
C921   C     0.35953   0.43502   0.67673   0.00000  Uiso   1.00
H922   H     0.37645   0.47125   0.65734   0.00000  Uiso   1.00
H923   H     0.39826   0.41742   0.68022   0.00000  Uiso   1.00
H924   H     0.66446   0.40503   0.65842   0.00000  Uiso   1.00
C925   C     0.84839   0.60000   0.75131   0.00000  Uiso   1.00
C926   C     0.81850   0.40001   0.74832   0.00000  Uiso   1.00
C927   C     0.75768   0.48118   0.54168   0.00000  Uiso   1.00
C928   C     0.90234   0.54727   0.96369   0.00000  Uiso   1.00
C929   C     0.71407   0.46617   0.51541   0.00000  Uiso   1.00
C930   C     0.94443   0.56371   0.99061   0.00000  Uiso   1.00
C931   C     0.85669   0.65609   0.75215   0.00000  Uiso   1.00
C932   C     0.81072   0.34397   0.74681   0.00000  Uiso   1.00
C933   C     0.79511   0.49639   0.83300   0.00000  Uiso   1.00
C934   C     0.87165   0.50452   0.66706   0.00000  Uiso   1.00
C935   C     0.77224   0.49264   0.88060   0.00000  Uiso   1.00
C936   C     0.89457   0.51430   0.62018   0.00000  Uiso   1.00
C937   C     0.69014   0.46384   0.94431   0.00000  Uiso   1.00
C938   C     0.97073   0.56101   0.56044   0.00000  Uiso   1.00
C939   C     0.70914   0.47213   0.89967   0.00000  Uiso   1.00
C940   C     0.95414   0.54516   0.60349   0.00000  Uiso   1.00
C941   C     0.81542   0.50735   0.90689   0.00000  Uiso   1.00
C942   C     0.85268   0.49814   0.59312   0.00000  Uiso   1.00
C943   C     0.79722   0.50131   0.95239   0.00000  Uiso   1.00
C944   C     0.86655   0.51626   0.55045   0.00000  Uiso   1.00
C945   C     0.73367   0.47717   0.97091   0.00000  Uiso   1.00
C946   C     0.92753   0.54700   0.53365   0.00000  Uiso   1.00
C947   C     0.84080   0.51726   0.97950   0.00000  Uiso   1.00
C948   C     0.82161   0.50425   0.52417   0.00000  Uiso   1.00
Cu949  Cu    0.77404   0.49441   0.74517   0.00000  Uiso   1.00
Cu950  Cu    0.89263   0.50559   0.75483   0.00000  Uiso   1.00
H951   H     0.80941   0.47097   0.60628   0.00000  Uiso   1.00
H952   H     0.86369   0.52169   0.89061   0.00000  Uiso   1.00
H953   H     0.98719   0.55820   0.62399   0.00000  Uiso   1.00
H954   H     0.67493   0.46064   0.87990   0.00000  Uiso   1.00
H955   H     0.97453   0.44630   0.95774   0.00000  Uiso   1.00
H956   H     0.68392   0.58487   0.54841   0.00000  Uiso   1.00
H957   H     0.73968   0.47700   0.57629   0.00000  Uiso   1.00
H958   H     0.91919   0.56027   0.93069   0.00000  Uiso   1.00
H959   H     0.90083   0.34667   0.75745   0.00000  Uiso   1.00
H960   H     0.76690   0.65339   0.74113   0.00000  Uiso   1.00
N961   N     0.98173   0.51401   0.76212   0.00000  Uiso   1.00
N962   N     0.68494   0.48599   0.73788   0.00000  Uiso   1.00
O963   O     0.79482   0.57142   0.74686   0.00000  Uiso   1.00
O964   O     0.87185   0.42858   0.75314   0.00000  Uiso   1.00
O965   O     0.89496   0.58086   0.75503   0.00000  Uiso   1.00
O966   O     0.77171   0.41914   0.74497   0.00000  Uiso   1.00
O967   O     0.75518   0.49263   0.80854   0.00000  Uiso   1.00
O968   O     0.91149   0.50737   0.69145   0.00000  Uiso   1.00
O969   O     0.85532   0.50207   0.81671   0.00000  Uiso   1.00
O970   O     0.81134   0.49793   0.68329   0.00000  Uiso   1.00
O971   O     0.98402   0.44445   0.53247   0.00000  Uiso   1.00
C972   C     0.97472   0.40769   0.56485   0.00000  Uiso   1.00
H973   H     0.67783   0.38340   0.55763   0.00000  Uiso   1.00
H974   H     0.92866   0.38021   0.56637   0.00000  Uiso   1.00
H975   H     0.97221   0.42843   0.59724   0.00000  Uiso   1.00
O976   O     0.67121   0.59249   0.97379   0.00000  Uiso   1.00
C977   C     0.66800   0.64354   0.96420   0.00000  Uiso   1.00
H978   H     0.96995   0.66186   0.99138   0.00000  Uiso   1.00
H979   H     0.98602   0.64278   0.93331   0.00000  Uiso   1.00
H980   H     0.71572   0.33585   0.95947   0.00000  Uiso   1.00
O981   O     0.67195   0.54023   0.79518   0.00000  Uiso   1.00
C982   C     0.98523   0.58800   0.80453   0.00000  Uiso   1.00
H983   H     0.93517   0.58164   0.82212   0.00000  Uiso   1.00
H984   H     0.99553   0.61087   0.77461   0.00000  Uiso   1.00
H985   H     0.67909   0.61239   0.82684   0.00000  Uiso   1.00
O986   O     0.98742   0.44473   0.71733   0.00000  Uiso   1.00
C987   C     0.69286   0.43502   0.67673   0.00000  Uiso   1.00
H988   H     0.70978   0.47125   0.65734   0.00000  Uiso   1.00
H989   H     0.73159   0.41742   0.68022   0.00000  Uiso   1.00
H990   H     0.99780   0.40503   0.65842   0.00000  Uiso   1.00
C991   C     0.18172   0.93334   0.75131   0.00000  Uiso   1.00
C992   C     0.15184   0.73335   0.74832   0.00000  Uiso   1.00
C993   C     0.09102   0.81451   0.54168   0.00000  Uiso   1.00
C994   C     0.23568   0.88060   0.96369   0.00000  Uiso   1.00
C995   C     0.04740   0.79951   0.51541   0.00000  Uiso   1.00
C996   C     0.27776   0.89705   0.99061   0.00000  Uiso   1.00
C997   C     0.19002   0.98942   0.75215   0.00000  Uiso   1.00
C998   C     0.14405   0.67730   0.74681   0.00000  Uiso   1.00
C999   C     0.12844   0.82972   0.83300   0.00000  Uiso   1.00
C1000  C     0.20498   0.83785   0.66706   0.00000  Uiso   1.00
C1001  C     0.10557   0.82597   0.88060   0.00000  Uiso   1.00
C1002  C     0.22791   0.84763   0.62018   0.00000  Uiso   1.00
C1003  C     0.02347   0.79717   0.94431   0.00000  Uiso   1.00
C1004  C     0.30406   0.89434   0.56044   0.00000  Uiso   1.00
C1005  C     0.04248   0.80546   0.89967   0.00000  Uiso   1.00
C1006  C     0.28747   0.87849   0.60349   0.00000  Uiso   1.00
C1007  C     0.14875   0.84068   0.90689   0.00000  Uiso   1.00
C1008  C     0.18601   0.83147   0.59312   0.00000  Uiso   1.00
C1009  C     0.13055   0.83464   0.95239   0.00000  Uiso   1.00
C1010  C     0.19988   0.84960   0.55045   0.00000  Uiso   1.00
C1011  C     0.06700   0.81050   0.97091   0.00000  Uiso   1.00
C1012  C     0.26087   0.88033   0.53365   0.00000  Uiso   1.00
C1013  C     0.17413   0.85059   0.97950   0.00000  Uiso   1.00
C1014  C     0.15494   0.83758   0.52417   0.00000  Uiso   1.00
Cu1015 Cu    0.10737   0.82775   0.74517   0.00000  Uiso   1.00
Cu1016 Cu    0.22596   0.83892   0.75483   0.00000  Uiso   1.00
H1017  H     0.14274   0.80431   0.60628   0.00000  Uiso   1.00
H1018  H     0.19702   0.85503   0.89061   0.00000  Uiso   1.00
H1019  H     0.32052   0.89153   0.62399   0.00000  Uiso   1.00
H1020  H     0.00826   0.79397   0.87990   0.00000  Uiso   1.00
H1021  H     0.30786   0.77963   0.95774   0.00000  Uiso   1.00
H1022  H     0.01726   0.91821   0.54841   0.00000  Uiso   1.00
H1023  H     0.07302   0.81034   0.57629   0.00000  Uiso   1.00
H1024  H     0.25252   0.89361   0.93069   0.00000  Uiso   1.00
H1025  H     0.23416   0.68000   0.75745   0.00000  Uiso   1.00
H1026  H     0.10024   0.98673   0.74113   0.00000  Uiso   1.00
N1027  N     0.31506   0.84735   0.76212   0.00000  Uiso   1.00
N1028  N     0.01827   0.81932   0.73788   0.00000  Uiso   1.00
O1029  O     0.12815   0.90476   0.74686   0.00000  Uiso   1.00
O1030  O     0.20518   0.76191   0.75314   0.00000  Uiso   1.00
O1031  O     0.22829   0.91420   0.75503   0.00000  Uiso   1.00
O1032  O     0.10504   0.75247   0.74497   0.00000  Uiso   1.00
O1033  O     0.08851   0.82597   0.80854   0.00000  Uiso   1.00
O1034  O     0.24482   0.84070   0.69145   0.00000  Uiso   1.00
O1035  O     0.18866   0.83540   0.81671   0.00000  Uiso   1.00
O1036  O     0.14468   0.83126   0.68329   0.00000  Uiso   1.00
O1037  O     0.31735   0.77779   0.53247   0.00000  Uiso   1.00
C1038  C     0.30805   0.74102   0.56485   0.00000  Uiso   1.00
H1039  H     0.01116   0.71673   0.55763   0.00000  Uiso   1.00
H1040  H     0.26199   0.71355   0.56637   0.00000  Uiso   1.00
H1041  H     0.30554   0.76176   0.59724   0.00000  Uiso   1.00
O1042  O     0.00455   0.92582   0.97379   0.00000  Uiso   1.00
C1043  C     0.00133   0.97687   0.96420   0.00000  Uiso   1.00
H1044  H     0.30328   0.99519   0.99138   0.00000  Uiso   1.00
H1045  H     0.31935   0.97611   0.93331   0.00000  Uiso   1.00
H1046  H     0.04905   0.66918   0.95947   0.00000  Uiso   1.00
O1047  O     0.00529   0.87357   0.79518   0.00000  Uiso   1.00
C1048  C     0.31856   0.92133   0.80453   0.00000  Uiso   1.00
H1049  H     0.26850   0.91497   0.82212   0.00000  Uiso   1.00
H1050  H     0.32886   0.94420   0.77461   0.00000  Uiso   1.00
H1051  H     0.01242   0.94572   0.82684   0.00000  Uiso   1.00
O1052  O     0.32076   0.77806   0.71733   0.00000  Uiso   1.00
C1053  C     0.02620   0.76835   0.67673   0.00000  Uiso   1.00
H1054  H     0.04311   0.80458   0.65734   0.00000  Uiso   1.00
H1055  H     0.06493   0.75075   0.68022   0.00000  Uiso   1.00
H1056  H     0.33113   0.73837   0.65842   0.00000  Uiso   1.00
C1057  C     0.51506   0.93334   0.75131   0.00000  Uiso   1.00
C1058  C     0.48517   0.73335   0.74832   0.00000  Uiso   1.00
C1059  C     0.42435   0.81451   0.54168   0.00000  Uiso   1.00
C1060  C     0.56901   0.88060   0.96369   0.00000  Uiso   1.00
C1061  C     0.38073   0.79951   0.51541   0.00000  Uiso   1.00
C1062  C     0.61110   0.89705   0.99061   0.00000  Uiso   1.00
C1063  C     0.52336   0.98942   0.75215   0.00000  Uiso   1.00
C1064  C     0.47739   0.67730   0.74681   0.00000  Uiso   1.00
C1065  C     0.46177   0.82972   0.83300   0.00000  Uiso   1.00
C1066  C     0.53832   0.83785   0.66706   0.00000  Uiso   1.00
C1067  C     0.43890   0.82597   0.88060   0.00000  Uiso   1.00
C1068  C     0.56124   0.84763   0.62018   0.00000  Uiso   1.00
C1069  C     0.35681   0.79717   0.94431   0.00000  Uiso   1.00
C1070  C     0.63740   0.89434   0.56044   0.00000  Uiso   1.00
C1071  C     0.37581   0.80546   0.89967   0.00000  Uiso   1.00
C1072  C     0.62080   0.87849   0.60349   0.00000  Uiso   1.00
C1073  C     0.48209   0.84068   0.90689   0.00000  Uiso   1.00
C1074  C     0.51934   0.83147   0.59312   0.00000  Uiso   1.00
C1075  C     0.46388   0.83464   0.95239   0.00000  Uiso   1.00
C1076  C     0.53321   0.84960   0.55045   0.00000  Uiso   1.00
C1077  C     0.40033   0.81050   0.97091   0.00000  Uiso   1.00
C1078  C     0.59420   0.88033   0.53365   0.00000  Uiso   1.00
C1079  C     0.50747   0.85059   0.97950   0.00000  Uiso   1.00
C1080  C     0.48827   0.83758   0.52417   0.00000  Uiso   1.00
Cu1081 Cu    0.44071   0.82775   0.74517   0.00000  Uiso   1.00
Cu1082 Cu    0.55929   0.83892   0.75483   0.00000  Uiso   1.00
H1083  H     0.47607   0.80431   0.60628   0.00000  Uiso   1.00
H1084  H     0.53036   0.85503   0.89061   0.00000  Uiso   1.00
H1085  H     0.65386   0.89153   0.62399   0.00000  Uiso   1.00
H1086  H     0.34159   0.79397   0.87990   0.00000  Uiso   1.00
H1087  H     0.64120   0.77963   0.95774   0.00000  Uiso   1.00
H1088  H     0.35059   0.91821   0.54841   0.00000  Uiso   1.00
H1089  H     0.40635   0.81034   0.57629   0.00000  Uiso   1.00
H1090  H     0.58585   0.89361   0.93069   0.00000  Uiso   1.00
H1091  H     0.56749   0.68000   0.75745   0.00000  Uiso   1.00
H1092  H     0.43357   0.98673   0.74113   0.00000  Uiso   1.00
N1093  N     0.64839   0.84735   0.76212   0.00000  Uiso   1.00
N1094  N     0.35161   0.81932   0.73788   0.00000  Uiso   1.00
O1095  O     0.46148   0.90476   0.74686   0.00000  Uiso   1.00
O1096  O     0.53852   0.76191   0.75314   0.00000  Uiso   1.00
O1097  O     0.56163   0.91420   0.75503   0.00000  Uiso   1.00
O1098  O     0.43837   0.75247   0.74497   0.00000  Uiso   1.00
O1099  O     0.42185   0.82597   0.80854   0.00000  Uiso   1.00
O1100  O     0.57815   0.84070   0.69145   0.00000  Uiso   1.00
O1101  O     0.52199   0.83540   0.81671   0.00000  Uiso   1.00
O1102  O     0.47801   0.83126   0.68329   0.00000  Uiso   1.00
O1103  O     0.65068   0.77779   0.53247   0.00000  Uiso   1.00
C1104  C     0.64139   0.74102   0.56485   0.00000  Uiso   1.00
H1105  H     0.34450   0.71673   0.55763   0.00000  Uiso   1.00
H1106  H     0.59532   0.71355   0.56637   0.00000  Uiso   1.00
H1107  H     0.63887   0.76176   0.59724   0.00000  Uiso   1.00
O1108  O     0.33788   0.92582   0.97379   0.00000  Uiso   1.00
C1109  C     0.33466   0.97687   0.96420   0.00000  Uiso   1.00
H1110  H     0.63661   0.99519   0.99138   0.00000  Uiso   1.00
H1111  H     0.65269   0.97611   0.93331   0.00000  Uiso   1.00
H1112  H     0.38238   0.66918   0.95947   0.00000  Uiso   1.00
O1113  O     0.33862   0.87357   0.79518   0.00000  Uiso   1.00
C1114  C     0.65190   0.92133   0.80453   0.00000  Uiso   1.00
H1115  H     0.60183   0.91497   0.82212   0.00000  Uiso   1.00
H1116  H     0.66220   0.94420   0.77461   0.00000  Uiso   1.00
H1117  H     0.34576   0.94572   0.82684   0.00000  Uiso   1.00
O1118  O     0.65409   0.77806   0.71733   0.00000  Uiso   1.00
C1119  C     0.35953   0.76835   0.67673   0.00000  Uiso   1.00
H1120  H     0.37645   0.80458   0.65734   0.00000  Uiso   1.00
H1121  H     0.39826   0.75075   0.68022   0.00000  Uiso   1.00
H1122  H     0.66446   0.73837   0.65842   0.00000  Uiso   1.00
C1123  C     0.84839   0.93334   0.75131   0.00000  Uiso   1.00
C1124  C     0.81850   0.73335   0.74832   0.00000  Uiso   1.00
C1125  C     0.75768   0.81451   0.54168   0.00000  Uiso   1.00
C1126  C     0.90234   0.88060   0.96369   0.00000  Uiso   1.00
C1127  C     0.71407   0.79951   0.51541   0.00000  Uiso   1.00
C1128  C     0.94443   0.89705   0.99061   0.00000  Uiso   1.00
C1129  C     0.85669   0.98942   0.75215   0.00000  Uiso   1.00
C1130  C     0.81072   0.67730   0.74681   0.00000  Uiso   1.00
C1131  C     0.79511   0.82972   0.83300   0.00000  Uiso   1.00
C1132  C     0.87165   0.83785   0.66706   0.00000  Uiso   1.00
C1133  C     0.77224   0.82597   0.88060   0.00000  Uiso   1.00
C1134  C     0.89457   0.84763   0.62018   0.00000  Uiso   1.00
C1135  C     0.69014   0.79717   0.94431   0.00000  Uiso   1.00
C1136  C     0.97073   0.89434   0.56044   0.00000  Uiso   1.00
C1137  C     0.70914   0.80546   0.89967   0.00000  Uiso   1.00
C1138  C     0.95414   0.87849   0.60349   0.00000  Uiso   1.00
C1139  C     0.81542   0.84068   0.90689   0.00000  Uiso   1.00
C1140  C     0.85268   0.83147   0.59312   0.00000  Uiso   1.00
C1141  C     0.79722   0.83464   0.95239   0.00000  Uiso   1.00
C1142  C     0.86655   0.84960   0.55045   0.00000  Uiso   1.00
C1143  C     0.73367   0.81050   0.97091   0.00000  Uiso   1.00
C1144  C     0.92753   0.88033   0.53365   0.00000  Uiso   1.00
C1145  C     0.84080   0.85059   0.97950   0.00000  Uiso   1.00
C1146  C     0.82161   0.83758   0.52417   0.00000  Uiso   1.00
Cu1147 Cu    0.77404   0.82775   0.74517   0.00000  Uiso   1.00
Cu1148 Cu    0.89263   0.83892   0.75483   0.00000  Uiso   1.00
H1149  H     0.80941   0.80431   0.60628   0.00000  Uiso   1.00
H1150  H     0.86369   0.85503   0.89061   0.00000  Uiso   1.00
H1151  H     0.98719   0.89153   0.62399   0.00000  Uiso   1.00
H1152  H     0.67493   0.79397   0.87990   0.00000  Uiso   1.00
H1153  H     0.97453   0.77963   0.95774   0.00000  Uiso   1.00
H1154  H     0.68392   0.91821   0.54841   0.00000  Uiso   1.00
H1155  H     0.73968   0.81034   0.57629   0.00000  Uiso   1.00
H1156  H     0.91919   0.89361   0.93069   0.00000  Uiso   1.00
H1157  H     0.90083   0.68000   0.75745   0.00000  Uiso   1.00
H1158  H     0.76690   0.98673   0.74113   0.00000  Uiso   1.00
N1159  N     0.98173   0.84735   0.76212   0.00000  Uiso   1.00
N1160  N     0.68494   0.81932   0.73788   0.00000  Uiso   1.00
O1161  O     0.79482   0.90476   0.74686   0.00000  Uiso   1.00
O1162  O     0.87185   0.76191   0.75314   0.00000  Uiso   1.00
O1163  O     0.89496   0.91420   0.75503   0.00000  Uiso   1.00
O1164  O     0.77171   0.75247   0.74497   0.00000  Uiso   1.00
O1165  O     0.75518   0.82597   0.80854   0.00000  Uiso   1.00
O1166  O     0.91149   0.84070   0.69145   0.00000  Uiso   1.00
O1167  O     0.85532   0.83540   0.81671   0.00000  Uiso   1.00
O1168  O     0.81134   0.83126   0.68329   0.00000  Uiso   1.00
O1169  O     0.98402   0.77779   0.53247   0.00000  Uiso   1.00
C1170  C     0.97472   0.74102   0.56485   0.00000  Uiso   1.00
H1171  H     0.67783   0.71673   0.55763   0.00000  Uiso   1.00
H1172  H     0.92866   0.71355   0.56637   0.00000  Uiso   1.00
H1173  H     0.97221   0.76176   0.59724   0.00000  Uiso   1.00
O1174  O     0.67121   0.92582   0.97379   0.00000  Uiso   1.00
C1175  C     0.66800   0.97687   0.96420   0.00000  Uiso   1.00
H1176  H     0.96995   0.99519   0.99138   0.00000  Uiso   1.00
H1177  H     0.98602   0.97611   0.93331   0.00000  Uiso   1.00
H1178  H     0.71572   0.66918   0.95947   0.00000  Uiso   1.00
O1179  O     0.67195   0.87357   0.79518   0.00000  Uiso   1.00
C1180  C     0.98523   0.92133   0.80453   0.00000  Uiso   1.00
H1181  H     0.93517   0.91497   0.82212   0.00000  Uiso   1.00
H1182  H     0.99553   0.94420   0.77461   0.00000  Uiso   1.00
H1183  H     0.67909   0.94572   0.82684   0.00000  Uiso   1.00
O1184  O     0.98742   0.77806   0.71733   0.00000  Uiso   1.00
C1185  C     0.69286   0.76835   0.67673   0.00000  Uiso   1.00
H1186  H     0.70978   0.80458   0.65734   0.00000  Uiso   1.00
H1187  H     0.73159   0.75075   0.68022   0.00000  Uiso   1.00
H1188  H     0.99780   0.73837   0.65842   0.00000  Uiso   1.00
loop_
_geom_bond_atom_site_label_1
_geom_bond_atom_site_label_2
_geom_bond_distance
_geom_bond_site_symmetry_2
_ccdc_geom_bond_type
C1     O41     1.293   .     A
C1     O39     1.297   .     A
C1     C7      1.428   .     S
C2     O42     1.293   .     A
C2     O40     1.296   .     A
C2     C8      1.427   .     S
C3     C24     1.416   .     A
C3     H33     1.074   .     S
C3     C5      1.406   .     A
C4     H34     1.075   .     S
C4     C6      1.398   .     A
C4     C23     1.417   .     A
C5     C615    1.401   1_554 S
C5     O179    1.395   1_455 S
C6     C616    1.400   .     S
C6     O118    1.387   .     S
C7     C206    1.330   .     S
C7     H233    1.088   .     S
C8     C403    1.330   1_545 S
C8     H432    1.086   1_545 S
C9     O45     1.302   .     A
C9     C11     1.468   .     S
C9     O43     1.307   .     A
C10    O46     1.302   .     A
C10    C12     1.468   .     S
C10    O44     1.307   .     A
C11    C17     1.399   .     A
C11    C15     1.396   .     A
C12    C18     1.397   .     A
C12    C16     1.397   .     A
C13    C15     1.390   .     A
C13    C21     1.410   .     A
C13    H163    1.083   1_455 S
C14    C16     1.393   .     A
C14    C22     1.410   .     A
C14    H98     1.083   .     S
C15    H30     1.083   .     S
C16    H29     1.083   .     S
C17    C19     1.407   .     A
C17    H28     1.074   .     S
C18    C20     1.407   .     A
C18    H27     1.076   .     S
C19    C23     1.427   .     A
C19    C21     1.421   .     A
C20    C22     1.420   .     A
C20    C24     1.427   .     A
C21    C599    1.401   .     S
C22    C600    1.400   1_554 S
C23    C618    1.418   .     S
C24    C617    1.418   1_554 S
Cu25   O42     1.949   .     S
Cu25   N38     2.034   .     S
Cu25   O43     1.945   .     S
Cu25   Cu26    2.708   .     S
Cu25   O39     1.951   .     S
Cu25   O46     1.928   .     S
Cu26   N37     2.034   .     S
Cu26   O40     1.951   .     S
Cu26   O44     1.945   .     S
Cu26   O45     1.928   .     S
Cu26   O41     1.949   .     S
H31    C79     1.083   .     S
H32    C146    1.083   1_455 S
H35    C403    1.088   1_545 S
H36    C206    1.086   .     S
N37    N104    1.286   .     S
N37    O123    1.349   .     S
N38    N169    1.286   1_455 S
N38    O194    1.347   1_455 S
O47    C48     1.411   .     S
O47    C71     1.395   .     S
C48    H50     1.109   .     S
C48    H51     1.108   .     S
C48    H115    1.114   .     S
H49    C180    1.114   1_455 S
O52    C53     1.412   .     S
O52    C138    1.387   1_455 S
C53    H186    1.114   1_455 S
C53    H187    1.111   1_455 S
C53    H254    1.109   .     S
H54    C119    1.114   .     S
H55    C119    1.111   .     S
H56    C449    1.109   1_545 S
O57    N169    1.349   1_455 S
O57    C190    1.401   1_455 S
C58    H60     1.111   .     S
C58    H59     1.106   .     S
C58    O123    1.401   .     S
C58    H127    1.109   .     S
H61    C190    1.109   1_455 S
O62    N104    1.347   .     S
O62    C129    1.398   .     S
C63    H65     1.105   .     S
C63    H64     1.112   .     S
C63    O194    1.398   1_455 S
C63    H198    1.107   1_455 S
H66    C129    1.107   .     S
C67    O107    1.293   .     A
C67    O105    1.297   .     A
C67    C73     1.428   .     S
C68    O108    1.293   .     A
C68    O106    1.296   .     A
C68    C74     1.427   .     S
C69    C90     1.416   .     A
C69    H99     1.074   .     S
C69    C71     1.406   .     A
C70    H100    1.075   .     S
C70    C72     1.398   .     A
C70    C89     1.417   .     A
C71    C681    1.401   1_554 S
C72    C682    1.400   .     S
C72    O184    1.387   .     S
C73    C272    1.330   .     S
C73    H299    1.088   .     S
C74    C469    1.330   1_545 S
C74    H498    1.086   1_545 S
C75    O111    1.302   .     A
C75    C77     1.468   .     S
C75    O109    1.307   .     A
C76    O112    1.302   .     A
C76    C78     1.468   .     S
C76    O110    1.307   .     A
C77    C83     1.399   .     A
C77    C81     1.396   .     A
C78    C84     1.397   .     A
C78    C82     1.397   .     A
C79    C81     1.390   .     A
C79    C87     1.410   .     A
C80    C82     1.393   .     A
C80    C88     1.410   .     A
C80    H164    1.083   .     S
C81    H96     1.083   .     S
C82    H95     1.083   .     S
C83    C85     1.407   .     A
C83    H94     1.074   .     S
C84    C86     1.407   .     A
C84    H93     1.076   .     S
C85    C89     1.427   .     A
C85    C87     1.421   .     A
C86    C88     1.420   .     A
C86    C90     1.427   .     A
C87    C665    1.401   .     S
C88    C666    1.400   1_554 S
C89    C684    1.418   .     S
C90    C683    1.418   1_554 S
Cu91   O108    1.949   .     S
Cu91   N104    2.034   .     S
Cu91   O109    1.945   .     S
Cu91   Cu92    2.708   .     S
Cu91   O105    1.951   .     S
Cu91   O112    1.928   .     S
Cu92   N103    2.034   .     S
Cu92   O106    1.951   .     S
Cu92   O110    1.945   .     S
Cu92   O111    1.928   .     S
Cu92   O107    1.949   .     S
H97    C145    1.083   .     S
H101   C469    1.088   1_545 S
H102   C272    1.086   .     S
N103   N170    1.286   .     S
N103   O189    1.349   .     S
O113   C114    1.411   .     S
O113   C137    1.395   .     S
C114   H116    1.109   .     S
C114   H117    1.108   .     S
C114   H181    1.114   .     S
O118   C119    1.412   .     S
C119   H320    1.109   .     S
H120   C185    1.114   .     S
H121   C185    1.111   .     S
H122   C515    1.109   1_545 S
C124   H126    1.111   .     S
C124   H125    1.106   .     S
C124   O189    1.401   .     S
C124   H193    1.109   .     S
O128   N170    1.347   .     S
O128   C195    1.398   .     S
C129   H131    1.105   .     S
C129   H130    1.112   .     S
H132   C195    1.107   .     S
C133   O173    1.293   .     A
C133   O171    1.297   .     A
C133   C139    1.428   .     S
C134   O174    1.293   .     A
C134   O172    1.296   .     A
C134   C140    1.427   .     S
C135   C156    1.416   .     A
C135   H165    1.074   .     S
C135   C137    1.406   .     A
C136   H166    1.075   .     S
C136   C138    1.398   .     A
C136   C155    1.417   .     A
C137   C747    1.401   1_554 S
C138   C748    1.400   .     S
C138   O52     1.387   1_655 S
C139   C338    1.330   .     S
C139   H365    1.088   .     S
C140   C535    1.330   1_545 S
C140   H564    1.086   1_545 S
C141   O177    1.302   .     A
C141   C143    1.468   .     S
C141   O175    1.307   .     A
C142   O178    1.302   .     A
C142   C144    1.468   .     S
C142   O176    1.307   .     A
C143   C149    1.399   .     A
C143   C147    1.396   .     A
C144   C150    1.397   .     A
C144   C148    1.397   .     A
C145   C147    1.390   .     A
C145   C153    1.410   .     A
C146   C148    1.393   .     A
C146   C154    1.410   .     A
C146   H32     1.083   1_655 S
C147   H162    1.083   .     S
C148   H161    1.083   .     S
C149   C151    1.407   .     A
C149   H160    1.074   .     S
C150   C152    1.407   .     A
C150   H159    1.076   .     S
C151   C155    1.427   .     A
C151   C153    1.421   .     A
C152   C154    1.420   .     A
C152   C156    1.427   .     A
C153   C731    1.401   .     S
C154   C732    1.400   1_554 S
C155   C750    1.418   .     S
C156   C749    1.418   1_554 S
Cu157  O174    1.949   .     S
Cu157  N170    2.034   .     S
Cu157  O175    1.945   .     S
Cu157  Cu158   2.708   .     S
Cu157  O171    1.951   .     S
Cu157  O178    1.928   .     S
Cu158  N169    2.034   .     S
Cu158  O172    1.951   .     S
Cu158  O176    1.945   .     S
Cu158  O177    1.928   .     S
Cu158  O173    1.949   .     S
H163   C13     1.083   1_655 S
H167   C535    1.088   1_545 S
H168   C338    1.086   .     S
N169   N38     1.286   1_655 S
N169   O57     1.349   1_655 S
O179   C180    1.411   .     S
O179   C5      1.395   1_655 S
C180   H182    1.109   .     S
C180   H183    1.108   .     S
C180   H49     1.114   1_655 S
O184   C185    1.412   .     S
C185   H386    1.109   .     S
H186   C53     1.114   1_655 S
H187   C53     1.111   1_655 S
H188   C581    1.109   1_545 S
C190   H192    1.111   .     S
C190   H191    1.106   .     S
C190   O57     1.401   1_655 S
C190   H61     1.109   1_655 S
O194   N38     1.347   1_655 S
O194   C63     1.398   1_655 S
C195   H197    1.105   .     S
C195   H196    1.112   .     S
H198   C63     1.107   1_655 S
C199   O239    1.293   .     A
C199   O237    1.297   .     A
C199   C205    1.428   .     S
C200   O240    1.293   .     A
C200   O238    1.296   .     A
C200   C206    1.427   .     S
C201   C222    1.416   .     A
C201   H231    1.074   .     S
C201   C203    1.406   .     A
C202   H232    1.075   .     S
C202   C204    1.398   .     A
C202   C221    1.417   .     A
C203   C813    1.401   1_554 S
C203   O377    1.395   1_455 S
C204   C814    1.400   .     S
C204   O316    1.387   .     S
C205   C404    1.330   .     S
C205   H431    1.088   .     S
C207   O243    1.302   .     A
C207   C209    1.468   .     S
C207   O241    1.307   .     A
C208   O244    1.302   .     A
C208   C210    1.468   .     S
C208   O242    1.307   .     A
C209   C215    1.399   .     A
C209   C213    1.396   .     A
C210   C216    1.397   .     A
C210   C214    1.397   .     A
C211   C213    1.390   .     A
C211   C219    1.410   .     A
C211   H361    1.083   1_455 S
C212   C214    1.393   .     A
C212   C220    1.410   .     A
C212   H296    1.083   .     S
C213   H228    1.083   .     S
C214   H227    1.083   .     S
C215   C217    1.407   .     A
C215   H226    1.074   .     S
C216   C218    1.407   .     A
C216   H225    1.076   .     S
C217   C221    1.427   .     A
C217   C219    1.421   .     A
C218   C220    1.420   .     A
C218   C222    1.427   .     A
C219   C797    1.401   .     S
C220   C798    1.400   1_554 S
C221   C816    1.418   .     S
C222   C815    1.418   1_554 S
Cu223  O240    1.949   .     S
Cu223  N236    2.034   .     S
Cu223  O241    1.945   .     S
Cu223  Cu224   2.708   .     S
Cu223  O237    1.951   .     S
Cu223  O244    1.928   .     S
Cu224  N235    2.034   .     S
Cu224  O238    1.951   .     S
Cu224  O242    1.945   .     S
Cu224  O243    1.928   .     S
Cu224  O239    1.949   .     S
H229   C277    1.083   .     S
H230   C344    1.083   1_455 S
H234   C404    1.086   .     S
N235   N302    1.286   .     S
N235   O321    1.349   .     S
N236   N367    1.286   1_455 S
N236   O392    1.347   1_455 S
O245   C246    1.411   .     S
O245   C269    1.395   .     S
C246   H248    1.109   .     S
C246   H249    1.108   .     S
C246   H313    1.114   .     S
H247   C378    1.114   1_455 S
O250   C251    1.412   .     S
O250   C336    1.387   1_455 S
C251   H384    1.114   1_455 S
C251   H385    1.111   1_455 S
C251   H452    1.109   .     S
H252   C317    1.114   .     S
H253   C317    1.111   .     S
O255   N367    1.349   1_455 S
O255   C388    1.401   1_455 S
C256   H258    1.111   .     S
C256   H257    1.106   .     S
C256   O321    1.401   .     S
C256   H325    1.109   .     S
H259   C388    1.109   1_455 S
O260   N302    1.347   .     S
O260   C327    1.398   .     S
C261   H263    1.105   .     S
C261   H262    1.112   .     S
C261   O392    1.398   1_455 S
C261   H396    1.107   1_455 S
H264   C327    1.107   .     S
C265   O305    1.293   .     A
C265   O303    1.297   .     A
C265   C271    1.428   .     S
C266   O306    1.293   .     A
C266   O304    1.296   .     A
C266   C272    1.427   .     S
C267   C288    1.416   .     A
C267   H297    1.074   .     S
C267   C269    1.406   .     A
C268   H298    1.075   .     S
C268   C270    1.398   .     A
C268   C287    1.417   .     A
C269   C879    1.401   1_554 S
C270   C880    1.400   .     S
C270   O382    1.387   .     S
C271   C470    1.330   .     S
C271   H497    1.088   .     S
C273   O309    1.302   .     A
C273   C275    1.468   .     S
C273   O307    1.307   .     A
C274   O310    1.302   .     A
C274   C276    1.468   .     S
C274   O308    1.307   .     A
C275   C281    1.399   .     A
C275   C279    1.396   .     A
C276   C282    1.397   .     A
C276   C280    1.397   .     A
C277   C279    1.390   .     A
C277   C285    1.410   .     A
C278   C280    1.393   .     A
C278   C286    1.410   .     A
C278   H362    1.083   .     S
C279   H294    1.083   .     S
C280   H293    1.083   .     S
C281   C283    1.407   .     A
C281   H292    1.074   .     S
C282   C284    1.407   .     A
C282   H291    1.076   .     S
C283   C287    1.427   .     A
C283   C285    1.421   .     A
C284   C286    1.420   .     A
C284   C288    1.427   .     A
C285   C863    1.401   .     S
C286   C864    1.400   1_554 S
C287   C882    1.418   .     S
C288   C881    1.418   1_554 S
Cu289  O306    1.949   .     S
Cu289  N302    2.034   .     S
Cu289  O307    1.945   .     S
Cu289  Cu290   2.708   .     S
Cu289  O303    1.951   .     S
Cu289  O310    1.928   .     S
Cu290  N301    2.034   .     S
Cu290  O304    1.951   .     S
Cu290  O308    1.945   .     S
Cu290  O309    1.928   .     S
Cu290  O305    1.949   .     S
H295   C343    1.083   .     S
H300   C470    1.086   .     S
N301   N368    1.286   .     S
N301   O387    1.349   .     S
O311   C312    1.411   .     S
O311   C335    1.395   .     S
C312   H314    1.109   .     S
C312   H315    1.108   .     S
C312   H379    1.114   .     S
O316   C317    1.412   .     S
C317   H518    1.109   .     S
H318   C383    1.114   .     S
H319   C383    1.111   .     S
C322   H324    1.111   .     S
C322   H323    1.106   .     S
C322   O387    1.401   .     S
C322   H391    1.109   .     S
O326   N368    1.347   .     S
O326   C393    1.398   .     S
C327   H329    1.105   .     S
C327   H328    1.112   .     S
H330   C393    1.107   .     S
C331   O371    1.293   .     A
C331   O369    1.297   .     A
C331   C337    1.428   .     S
C332   O372    1.293   .     A
C332   O370    1.296   .     A
C332   C338    1.427   .     S
C333   C354    1.416   .     A
C333   H363    1.074   .     S
C333   C335    1.406   .     A
C334   H364    1.075   .     S
C334   C336    1.398   .     A
C334   C353    1.417   .     A
C335   C945    1.401   1_554 S
C336   C946    1.400   .     S
C336   O250    1.387   1_655 S
C337   C536    1.330   .     S
C337   H563    1.088   .     S
C339   O375    1.302   .     A
C339   C341    1.468   .     S
C339   O373    1.307   .     A
C340   O376    1.302   .     A
C340   C342    1.468   .     S
C340   O374    1.307   .     A
C341   C347    1.399   .     A
C341   C345    1.396   .     A
C342   C348    1.397   .     A
C342   C346    1.397   .     A
C343   C345    1.390   .     A
C343   C351    1.410   .     A
C344   C346    1.393   .     A
C344   C352    1.410   .     A
C344   H230    1.083   1_655 S
C345   H360    1.083   .     S
C346   H359    1.083   .     S
C347   C349    1.407   .     A
C347   H358    1.074   .     S
C348   C350    1.407   .     A
C348   H357    1.076   .     S
C349   C353    1.427   .     A
C349   C351    1.421   .     A
C350   C352    1.420   .     A
C350   C354    1.427   .     A
C351   C929    1.401   .     S
C352   C930    1.400   1_554 S
C353   C948    1.418   .     S
C354   C947    1.418   1_554 S
Cu355  O372    1.949   .     S
Cu355  N368    2.034   .     S
Cu355  O373    1.945   .     S
Cu355  Cu356   2.708   .     S
Cu355  O369    1.951   .     S
Cu355  O376    1.928   .     S
Cu356  N367    2.034   .     S
Cu356  O370    1.951   .     S
Cu356  O374    1.945   .     S
Cu356  O375    1.928   .     S
Cu356  O371    1.949   .     S
H361   C211    1.083   1_655 S
H366   C536    1.086   .     S
N367   N236    1.286   1_655 S
N367   O255    1.349   1_655 S
O377   C378    1.411   .     S
O377   C203    1.395   1_655 S
C378   H380    1.109   .     S
C378   H381    1.108   .     S
C378   H247    1.114   1_655 S
O382   C383    1.412   .     S
C383   H584    1.109   .     S
H384   C251    1.114   1_655 S
H385   C251    1.111   1_655 S
C388   H390    1.111   .     S
C388   H389    1.106   .     S
C388   O255    1.401   1_655 S
C388   H259    1.109   1_655 S
O392   N236    1.347   1_655 S
O392   C261    1.398   1_655 S
C393   H395    1.105   .     S
C393   H394    1.112   .     S
H396   C261    1.107   1_655 S
C397   O437    1.293   .     A
C397   O435    1.297   .     A
C397   C403    1.428   .     S
C398   O438    1.293   .     A
C398   O436    1.296   .     A
C398   C404    1.427   .     S
C399   C420    1.416   .     A
C399   H429    1.074   .     S
C399   C401    1.406   .     A
C400   H430    1.075   .     S
C400   C402    1.398   .     A
C400   C419    1.417   .     A
C401   C1011   1.401   1_554 S
C401   O575    1.395   1_455 S
C402   C1012   1.400   .     S
C402   O514    1.387   .     S
C403   C8      1.330   1_565 S
C403   H35     1.088   1_565 S
C405   O441    1.302   .     A
C405   C407    1.468   .     S
C405   O439    1.307   .     A
C406   O442    1.302   .     A
C406   C408    1.468   .     S
C406   O440    1.307   .     A
C407   C413    1.399   .     A
C407   C411    1.396   .     A
C408   C414    1.397   .     A
C408   C412    1.397   .     A
C409   C411    1.390   .     A
C409   C417    1.410   .     A
C409   H559    1.083   1_455 S
C410   C412    1.393   .     A
C410   C418    1.410   .     A
C410   H494    1.083   .     S
C411   H426    1.083   .     S
C412   H425    1.083   .     S
C413   C415    1.407   .     A
C413   H424    1.074   .     S
C414   C416    1.407   .     A
C414   H423    1.076   .     S
C415   C419    1.427   .     A
C415   C417    1.421   .     A
C416   C418    1.420   .     A
C416   C420    1.427   .     A
C417   C995    1.401   .     S
C418   C996    1.400   1_554 S
C419   C1014   1.418   .     S
C420   C1013   1.418   1_554 S
Cu421  O438    1.949   .     S
Cu421  N434    2.034   .     S
Cu421  O439    1.945   .     S
Cu421  Cu422   2.708   .     S
Cu421  O435    1.951   .     S
Cu421  O442    1.928   .     S
Cu422  N433    2.034   .     S
Cu422  O436    1.951   .     S
Cu422  O440    1.945   .     S
Cu422  O441    1.928   .     S
Cu422  O437    1.949   .     S
H427   C475    1.083   .     S
H428   C542    1.083   1_455 S
H432   C8      1.086   1_565 S
N433   N500    1.286   .     S
N433   O519    1.349   .     S
N434   N565    1.286   1_455 S
N434   O590    1.347   1_455 S
O443   C444    1.411   .     S
O443   C467    1.395   .     S
C444   H446    1.109   .     S
C444   H447    1.108   .     S
C444   H511    1.114   .     S
H445   C576    1.114   1_455 S
O448   C449    1.412   .     S
O448   C534    1.387   1_455 S
C449   H582    1.114   1_455 S
C449   H583    1.111   1_455 S
C449   H56     1.109   1_565 S
H450   C515    1.114   .     S
H451   C515    1.111   .     S
O453   N565    1.349   1_455 S
O453   C586    1.401   1_455 S
C454   H456    1.111   .     S
C454   H455    1.106   .     S
C454   O519    1.401   .     S
C454   H523    1.109   .     S
H457   C586    1.109   1_455 S
O458   N500    1.347   .     S
O458   C525    1.398   .     S
C459   H461    1.105   .     S
C459   H460    1.112   .     S
C459   O590    1.398   1_455 S
C459   H594    1.107   1_455 S
H462   C525    1.107   .     S
C463   O503    1.293   .     A
C463   O501    1.297   .     A
C463   C469    1.428   .     S
C464   O504    1.293   .     A
C464   O502    1.296   .     A
C464   C470    1.427   .     S
C465   C486    1.416   .     A
C465   H495    1.074   .     S
C465   C467    1.406   .     A
C466   H496    1.075   .     S
C466   C468    1.398   .     A
C466   C485    1.417   .     A
C467   C1077   1.401   1_554 S
C468   C1078   1.400   .     S
C468   O580    1.387   .     S
C469   C74     1.330   1_565 S
C469   H101    1.088   1_565 S
C471   O507    1.302   .     A
C471   C473    1.468   .     S
C471   O505    1.307   .     A
C472   O508    1.302   .     A
C472   C474    1.468   .     S
C472   O506    1.307   .     A
C473   C479    1.399   .     A
C473   C477    1.396   .     A
C474   C480    1.397   .     A
C474   C478    1.397   .     A
C475   C477    1.390   .     A
C475   C483    1.410   .     A
C476   C478    1.393   .     A
C476   C484    1.410   .     A
C476   H560    1.083   .     S
C477   H492    1.083   .     S
C478   H491    1.083   .     S
C479   C481    1.407   .     A
C479   H490    1.074   .     S
C480   C482    1.407   .     A
C480   H489    1.076   .     S
C481   C485    1.427   .     A
C481   C483    1.421   .     A
C482   C484    1.420   .     A
C482   C486    1.427   .     A
C483   C1061   1.401   .     S
C484   C1062   1.400   1_554 S
C485   C1080   1.418   .     S
C486   C1079   1.418   1_554 S
Cu487  O504    1.949   .     S
Cu487  N500    2.034   .     S
Cu487  O505    1.945   .     S
Cu487  Cu488   2.708   .     S
Cu487  O501    1.951   .     S
Cu487  O508    1.928   .     S
Cu488  N499    2.034   .     S
Cu488  O502    1.951   .     S
Cu488  O506    1.945   .     S
Cu488  O507    1.928   .     S
Cu488  O503    1.949   .     S
H493   C541    1.083   .     S
H498   C74     1.086   1_565 S
N499   N566    1.286   .     S
N499   O585    1.349   .     S
O509   C510    1.411   .     S
O509   C533    1.395   .     S
C510   H512    1.109   .     S
C510   H513    1.108   .     S
C510   H577    1.114   .     S
O514   C515    1.412   .     S
C515   H122    1.109   1_565 S
H516   C581    1.114   .     S
H517   C581    1.111   .     S
C520   H522    1.111   .     S
C520   H521    1.106   .     S
C520   O585    1.401   .     S
C520   H589    1.109   .     S
O524   N566    1.347   .     S
O524   C591    1.398   .     S
C525   H527    1.105   .     S
C525   H526    1.112   .     S
H528   C591    1.107   .     S
C529   O569    1.293   .     A
C529   O567    1.297   .     A
C529   C535    1.428   .     S
C530   O570    1.293   .     A
C530   O568    1.296   .     A
C530   C536    1.427   .     S
C531   C552    1.416   .     A
C531   H561    1.074   .     S
C531   C533    1.406   .     A
C532   H562    1.075   .     S
C532   C534    1.398   .     A
C532   C551    1.417   .     A
C533   C1143   1.401   1_554 S
C534   C1144   1.400   .     S
C534   O448    1.387   1_655 S
C535   C140    1.330   1_565 S
C535   H167    1.088   1_565 S
C537   O573    1.302   .     A
C537   C539    1.468   .     S
C537   O571    1.307   .     A
C538   O574    1.302   .     A
C538   C540    1.468   .     S
C538   O572    1.307   .     A
C539   C545    1.399   .     A
C539   C543    1.396   .     A
C540   C546    1.397   .     A
C540   C544    1.397   .     A
C541   C543    1.390   .     A
C541   C549    1.410   .     A
C542   C544    1.393   .     A
C542   C550    1.410   .     A
C542   H428    1.083   1_655 S
C543   H558    1.083   .     S
C544   H557    1.083   .     S
C545   C547    1.407   .     A
C545   H556    1.074   .     S
C546   C548    1.407   .     A
C546   H555    1.076   .     S
C547   C551    1.427   .     A
C547   C549    1.421   .     A
C548   C550    1.420   .     A
C548   C552    1.427   .     A
C549   C1127   1.401   .     S
C550   C1128   1.400   1_554 S
C551   C1146   1.418   .     S
C552   C1145   1.418   1_554 S
Cu553  O570    1.949   .     S
Cu553  N566    2.034   .     S
Cu553  O571    1.945   .     S
Cu553  Cu554   2.708   .     S
Cu553  O567    1.951   .     S
Cu553  O574    1.928   .     S
Cu554  N565    2.034   .     S
Cu554  O568    1.951   .     S
Cu554  O572    1.945   .     S
Cu554  O573    1.928   .     S
Cu554  O569    1.949   .     S
H559   C409    1.083   1_655 S
H564   C140    1.086   1_565 S
N565   N434    1.286   1_655 S
N565   O453    1.349   1_655 S
O575   C576    1.411   .     S
O575   C401    1.395   1_655 S
C576   H578    1.109   .     S
C576   H579    1.108   .     S
C576   H445    1.114   1_655 S
O580   C581    1.412   .     S
C581   H188    1.109   1_565 S
H582   C449    1.114   1_655 S
H583   C449    1.111   1_655 S
C586   H588    1.111   .     S
C586   H587    1.106   .     S
C586   O453    1.401   1_655 S
C586   H457    1.109   1_655 S
O590   N434    1.347   1_655 S
O590   C459    1.398   1_655 S
C591   H593    1.105   .     S
C591   H592    1.112   .     S
H594   C459    1.107   1_655 S
C595   O635    1.293   .     A
C595   O633    1.297   .     A
C595   C601    1.428   .     S
C596   O636    1.293   .     A
C596   O634    1.296   .     A
C596   C602    1.427   .     S
C597   C618    1.416   .     A
C597   H627    1.074   .     S
C597   C599    1.406   .     A
C598   H628    1.075   .     S
C598   C600    1.398   .     A
C598   C617    1.417   .     A
C599   O773    1.395   1_455 S
C600   C22     1.400   1_556 S
C600   O712    1.387   .     S
C601   C800    1.330   .     S
C601   H827    1.088   .     S
C602   C997    1.330   1_545 S
C602   H1026   1.086   1_545 S
C603   O639    1.302   .     A
C603   C605    1.468   .     S
C603   O637    1.307   .     A
C604   O640    1.302   .     A
C604   C606    1.468   .     S
C604   O638    1.307   .     A
C605   C611    1.399   .     A
C605   C609    1.396   .     A
C606   C612    1.397   .     A
C606   C610    1.397   .     A
C607   C609    1.390   .     A
C607   C615    1.410   .     A
C607   H757    1.083   1_455 S
C608   C610    1.393   .     A
C608   C616    1.410   .     A
C608   H692    1.083   .     S
C609   H624    1.083   .     S
C610   H623    1.083   .     S
C611   C613    1.407   .     A
C611   H622    1.074   .     S
C612   C614    1.407   .     A
C612   H621    1.076   .     S
C613   C617    1.427   .     A
C613   C615    1.421   .     A
C614   C616    1.420   .     A
C614   C618    1.427   .     A
C615   C5      1.401   1_556 S
C617   C24     1.418   1_556 S
Cu619  O636    1.949   .     S
Cu619  N632    2.034   .     S
Cu619  O637    1.945   .     S
Cu619  Cu620   2.708   .     S
Cu619  O633    1.951   .     S
Cu619  O640    1.928   .     S
Cu620  N631    2.034   .     S
Cu620  O634    1.951   .     S
Cu620  O638    1.945   .     S
Cu620  O639    1.928   .     S
Cu620  O635    1.949   .     S
H625   C673    1.083   .     S
H626   C740    1.083   1_455 S
H629   C997    1.088   1_545 S
H630   C800    1.086   .     S
N631   N698    1.286   .     S
N631   O717    1.349   .     S
N632   N763    1.286   1_455 S
N632   O788    1.347   1_455 S
O641   C642    1.411   .     S
O641   C665    1.395   .     S
C642   H644    1.109   .     S
C642   H645    1.108   .     S
C642   H709    1.114   .     S
H643   C774    1.114   1_455 S
O646   C647    1.412   .     S
O646   C732    1.387   1_455 S
C647   H780    1.114   1_455 S
C647   H781    1.111   1_455 S
C647   H848    1.109   .     S
H648   C713    1.114   .     S
H649   C713    1.111   .     S
H650   C1043   1.109   1_545 S
O651   N763    1.349   1_455 S
O651   C784    1.401   1_455 S
C652   H654    1.111   .     S
C652   H653    1.106   .     S
C652   O717    1.401   .     S
C652   H721    1.109   .     S
H655   C784    1.109   1_455 S
O656   N698    1.347   .     S
O656   C723    1.398   .     S
C657   H659    1.105   .     S
C657   H658    1.112   .     S
C657   O788    1.398   1_455 S
C657   H792    1.107   1_455 S
H660   C723    1.107   .     S
C661   O701    1.293   .     A
C661   O699    1.297   .     A
C661   C667    1.428   .     S
C662   O702    1.293   .     A
C662   O700    1.296   .     A
C662   C668    1.427   .     S
C663   C684    1.416   .     A
C663   H693    1.074   .     S
C663   C665    1.406   .     A
C664   H694    1.075   .     S
C664   C666    1.398   .     A
C664   C683    1.417   .     A
C666   C88     1.400   1_556 S
C666   O778    1.387   .     S
C667   C866    1.330   .     S
C667   H893    1.088   .     S
C668   C1063   1.330   1_545 S
C668   H1092   1.086   1_545 S
C669   O705    1.302   .     A
C669   C671    1.468   .     S
C669   O703    1.307   .     A
C670   O706    1.302   .     A
C670   C672    1.468   .     S
C670   O704    1.307   .     A
C671   C677    1.399   .     A
C671   C675    1.396   .     A
C672   C678    1.397   .     A
C672   C676    1.397   .     A
C673   C675    1.390   .     A
C673   C681    1.410   .     A
C674   C676    1.393   .     A
C674   C682    1.410   .     A
C674   H758    1.083   .     S
C675   H690    1.083   .     S
C676   H689    1.083   .     S
C677   C679    1.407   .     A
C677   H688    1.074   .     S
C678   C680    1.407   .     A
C678   H687    1.076   .     S
C679   C683    1.427   .     A
C679   C681    1.421   .     A
C680   C682    1.420   .     A
C680   C684    1.427   .     A
C681   C71     1.401   1_556 S
C683   C90     1.418   1_556 S
Cu685  O702    1.949   .     S
Cu685  N698    2.034   .     S
Cu685  O703    1.945   .     S
Cu685  Cu686   2.708   .     S
Cu685  O699    1.951   .     S
Cu685  O706    1.928   .     S
Cu686  N697    2.034   .     S
Cu686  O700    1.951   .     S
Cu686  O704    1.945   .     S
Cu686  O705    1.928   .     S
Cu686  O701    1.949   .     S
H691   C739    1.083   .     S
H695   C1063   1.088   1_545 S
H696   C866    1.086   .     S
N697   N764    1.286   .     S
N697   O783    1.349   .     S
O707   C708    1.411   .     S
O707   C731    1.395   .     S
C708   H710    1.109   .     S
C708   H711    1.108   .     S
C708   H775    1.114   .     S
O712   C713    1.412   .     S
C713   H914    1.109   .     S
H714   C779    1.114   .     S
H715   C779    1.111   .     S
H716   C1109   1.109   1_545 S
C718   H720    1.111   .     S
C718   H719    1.106   .     S
C718   O783    1.401   .     S
C718   H787    1.109   .     S
O722   N764    1.347   .     S
O722   C789    1.398   .     S
C723   H725    1.105   .     S
C723   H724    1.112   .     S
H726   C789    1.107   .     S
C727   O767    1.293   .     A
C727   O765    1.297   .     A
C727   C733    1.428   .     S
C728   O768    1.293   .     A
C728   O766    1.296   .     A
C728   C734    1.427   .     S
C729   C750    1.416   .     A
C729   H759    1.074   .     S
C729   C731    1.406   .     A
C730   H760    1.075   .     S
C730   C732    1.398   .     A
C730   C749    1.417   .     A
C732   C154    1.400   1_556 S
C732   O646    1.387   1_655 S
C733   C932    1.330   .     S
C733   H959    1.088   .     S
C734   C1129   1.330   1_545 S
C734   H1158   1.086   1_545 S
C735   O771    1.302   .     A
C735   C737    1.468   .     S
C735   O769    1.307   .     A
C736   O772    1.302   .     A
C736   C738    1.468   .     S
C736   O770    1.307   .     A
C737   C743    1.399   .     A
C737   C741    1.396   .     A
C738   C744    1.397   .     A
C738   C742    1.397   .     A
C739   C741    1.390   .     A
C739   C747    1.410   .     A
C740   C742    1.393   .     A
C740   C748    1.410   .     A
C740   H626    1.083   1_655 S
C741   H756    1.083   .     S
C742   H755    1.083   .     S
C743   C745    1.407   .     A
C743   H754    1.074   .     S
C744   C746    1.407   .     A
C744   H753    1.076   .     S
C745   C749    1.427   .     A
C745   C747    1.421   .     A
C746   C748    1.420   .     A
C746   C750    1.427   .     A
C747   C137    1.401   1_556 S
C749   C156    1.418   1_556 S
Cu751  O768    1.949   .     S
Cu751  N764    2.034   .     S
Cu751  O769    1.945   .     S
Cu751  Cu752   2.708   .     S
Cu751  O765    1.951   .     S
Cu751  O772    1.928   .     S
Cu752  N763    2.034   .     S
Cu752  O766    1.951   .     S
Cu752  O770    1.945   .     S
Cu752  O771    1.928   .     S
Cu752  O767    1.949   .     S
H757   C607    1.083   1_655 S
H761   C1129   1.088   1_545 S
H762   C932    1.086   .     S
N763   N632    1.286   1_655 S
N763   O651    1.349   1_655 S
O773   C774    1.411   .     S
O773   C599    1.395   1_655 S
C774   H776    1.109   .     S
C774   H777    1.108   .     S
C774   H643    1.114   1_655 S
O778   C779    1.412   .     S
C779   H980    1.109   .     S
H780   C647    1.114   1_655 S
H781   C647    1.111   1_655 S
H782   C1175   1.109   1_545 S
C784   H786    1.111   .     S
C784   H785    1.106   .     S
C784   O651    1.401   1_655 S
C784   H655    1.109   1_655 S
O788   N632    1.347   1_655 S
O788   C657    1.398   1_655 S
C789   H791    1.105   .     S
C789   H790    1.112   .     S
H792   C657    1.107   1_655 S
C793   O833    1.293   .     A
C793   O831    1.297   .     A
C793   C799    1.428   .     S
C794   O834    1.293   .     A
C794   O832    1.296   .     A
C794   C800    1.427   .     S
C795   C816    1.416   .     A
C795   H825    1.074   .     S
C795   C797    1.406   .     A
C796   H826    1.075   .     S
C796   C798    1.398   .     A
C796   C815    1.417   .     A
C797   O971    1.395   1_455 S
C798   C220    1.400   1_556 S
C798   O910    1.387   .     S
C799   C998    1.330   .     S
C799   H1025   1.088   .     S
C801   O837    1.302   .     A
C801   C803    1.468   .     S
C801   O835    1.307   .     A
C802   O838    1.302   .     A
C802   C804    1.468   .     S
C802   O836    1.307   .     A
C803   C809    1.399   .     A
C803   C807    1.396   .     A
C804   C810    1.397   .     A
C804   C808    1.397   .     A
C805   C807    1.390   .     A
C805   C813    1.410   .     A
C805   H955    1.083   1_455 S
C806   C808    1.393   .     A
C806   C814    1.410   .     A
C806   H890    1.083   .     S
C807   H822    1.083   .     S
C808   H821    1.083   .     S
C809   C811    1.407   .     A
C809   H820    1.074   .     S
C810   C812    1.407   .     A
C810   H819    1.076   .     S
C811   C815    1.427   .     A
C811   C813    1.421   .     A
C812   C814    1.420   .     A
C812   C816    1.427   .     A
C813   C203    1.401   1_556 S
C815   C222    1.418   1_556 S
Cu817  O834    1.949   .     S
Cu817  N830    2.034   .     S
Cu817  O835    1.945   .     S
Cu817  Cu818   2.708   .     S
Cu817  O831    1.951   .     S
Cu817  O838    1.928   .     S
Cu818  N829    2.034   .     S
Cu818  O832    1.951   .     S
Cu818  O836    1.945   .     S
Cu818  O837    1.928   .     S
Cu818  O833    1.949   .     S
H823   C871    1.083   .     S
H824   C938    1.083   1_455 S
H828   C998    1.086   .     S
N829   N896    1.286   .     S
N829   O915    1.349   .     S
N830   N961    1.286   1_455 S
N830   O986    1.347   1_455 S
O839   C840    1.411   .     S
O839   C863    1.395   .     S
C840   H842    1.109   .     S
C840   H843    1.108   .     S
C840   H907    1.114   .     S
H841   C972    1.114   1_455 S
O844   C845    1.412   .     S
O844   C930    1.387   1_455 S
C845   H978    1.114   1_455 S
C845   H979    1.111   1_455 S
C845   H1046   1.109   .     S
H846   C911    1.114   .     S
H847   C911    1.111   .     S
O849   N961    1.349   1_455 S
O849   C982    1.401   1_455 S
C850   H852    1.111   .     S
C850   H851    1.106   .     S
C850   O915    1.401   .     S
C850   H919    1.109   .     S
H853   C982    1.109   1_455 S
O854   N896    1.347   .     S
O854   C921    1.398   .     S
C855   H857    1.105   .     S
C855   H856    1.112   .     S
C855   O986    1.398   1_455 S
C855   H990    1.107   1_455 S
H858   C921    1.107   .     S
C859   O899    1.293   .     A
C859   O897    1.297   .     A
C859   C865    1.428   .     S
C860   O900    1.293   .     A
C860   O898    1.296   .     A
C860   C866    1.427   .     S
C861   C882    1.416   .     A
C861   H891    1.074   .     S
C861   C863    1.406   .     A
C862   H892    1.075   .     S
C862   C864    1.398   .     A
C862   C881    1.417   .     A
C864   C286    1.400   1_556 S
C864   O976    1.387   .     S
C865   C1064   1.330   .     S
C865   H1091   1.088   .     S
C867   O903    1.302   .     A
C867   C869    1.468   .     S
C867   O901    1.307   .     A
C868   O904    1.302   .     A
C868   C870    1.468   .     S
C868   O902    1.307   .     A
C869   C875    1.399   .     A
C869   C873    1.396   .     A
C870   C876    1.397   .     A
C870   C874    1.397   .     A
C871   C873    1.390   .     A
C871   C879    1.410   .     A
C872   C874    1.393   .     A
C872   C880    1.410   .     A
C872   H956    1.083   .     S
C873   H888    1.083   .     S
C874   H887    1.083   .     S
C875   C877    1.407   .     A
C875   H886    1.074   .     S
C876   C878    1.407   .     A
C876   H885    1.076   .     S
C877   C881    1.427   .     A
C877   C879    1.421   .     A
C878   C880    1.420   .     A
C878   C882    1.427   .     A
C879   C269    1.401   1_556 S
C881   C288    1.418   1_556 S
Cu883  O900    1.949   .     S
Cu883  N896    2.034   .     S
Cu883  O901    1.945   .     S
Cu883  Cu884   2.708   .     S
Cu883  O897    1.951   .     S
Cu883  O904    1.928   .     S
Cu884  N895    2.034   .     S
Cu884  O898    1.951   .     S
Cu884  O902    1.945   .     S
Cu884  O903    1.928   .     S
Cu884  O899    1.949   .     S
H889   C937    1.083   .     S
H894   C1064   1.086   .     S
N895   N962    1.286   .     S
N895   O981    1.349   .     S
O905   C906    1.411   .     S
O905   C929    1.395   .     S
C906   H908    1.109   .     S
C906   H909    1.108   .     S
C906   H973    1.114   .     S
O910   C911    1.412   .     S
C911   H1112   1.109   .     S
H912   C977    1.114   .     S
H913   C977    1.111   .     S
C916   H918    1.111   .     S
C916   H917    1.106   .     S
C916   O981    1.401   .     S
C916   H985    1.109   .     S
O920   N962    1.347   .     S
O920   C987    1.398   .     S
C921   H923    1.105   .     S
C921   H922    1.112   .     S
H924   C987    1.107   .     S
C925   O965    1.293   .     A
C925   O963    1.297   .     A
C925   C931    1.428   .     S
C926   O966    1.293   .     A
C926   O964    1.296   .     A
C926   C932    1.427   .     S
C927   C948    1.416   .     A
C927   H957    1.074   .     S
C927   C929    1.406   .     A
C928   H958    1.075   .     S
C928   C930    1.398   .     A
C928   C947    1.417   .     A
C930   C352    1.400   1_556 S
C930   O844    1.387   1_655 S
C931   C1130   1.330   .     S
C931   H1157   1.088   .     S
C933   O969    1.302   .     A
C933   C935    1.468   .     S
C933   O967    1.307   .     A
C934   O970    1.302   .     A
C934   C936    1.468   .     S
C934   O968    1.307   .     A
C935   C941    1.399   .     A
C935   C939    1.396   .     A
C936   C942    1.397   .     A
C936   C940    1.397   .     A
C937   C939    1.390   .     A
C937   C945    1.410   .     A
C938   C940    1.393   .     A
C938   C946    1.410   .     A
C938   H824    1.083   1_655 S
C939   H954    1.083   .     S
C940   H953    1.083   .     S
C941   C943    1.407   .     A
C941   H952    1.074   .     S
C942   C944    1.407   .     A
C942   H951    1.076   .     S
C943   C947    1.427   .     A
C943   C945    1.421   .     A
C944   C946    1.420   .     A
C944   C948    1.427   .     A
C945   C335    1.401   1_556 S
C947   C354    1.418   1_556 S
Cu949  O966    1.949   .     S
Cu949  N962    2.034   .     S
Cu949  O967    1.945   .     S
Cu949  Cu950   2.708   .     S
Cu949  O963    1.951   .     S
Cu949  O970    1.928   .     S
Cu950  N961    2.034   .     S
Cu950  O964    1.951   .     S
Cu950  O968    1.945   .     S
Cu950  O969    1.928   .     S
Cu950  O965    1.949   .     S
H955   C805    1.083   1_655 S
H960   C1130   1.086   .     S
N961   N830    1.286   1_655 S
N961   O849    1.349   1_655 S
O971   C972    1.411   .     S
O971   C797    1.395   1_655 S
C972   H974    1.109   .     S
C972   H975    1.108   .     S
C972   H841    1.114   1_655 S
O976   C977    1.412   .     S
C977   H1178   1.109   .     S
H978   C845    1.114   1_655 S
H979   C845    1.111   1_655 S
C982   H984    1.111   .     S
C982   H983    1.106   .     S
C982   O849    1.401   1_655 S
C982   H853    1.109   1_655 S
O986   N830    1.347   1_655 S
O986   C855    1.398   1_655 S
C987   H989    1.105   .     S
C987   H988    1.112   .     S
H990   C855    1.107   1_655 S
C991   O1031   1.293   .     A
C991   O1029   1.297   .     A
C991   C997    1.428   .     S
C992   O1032   1.293   .     A
C992   O1030   1.296   .     A
C992   C998    1.427   .     S
C993   C1014   1.416   .     A
C993   H1023   1.074   .     S
C993   C995    1.406   .     A
C994   H1024   1.075   .     S
C994   C996    1.398   .     A
C994   C1013   1.417   .     A
C995   O1169   1.395   1_455 S
C996   C418    1.400   1_556 S
C996   O1108   1.387   .     S
C997   C602    1.330   1_565 S
C997   H629    1.088   1_565 S
C999   O1035   1.302   .     A
C999   C1001   1.468   .     S
C999   O1033   1.307   .     A
C1000  O1036   1.302   .     A
C1000  C1002   1.468   .     S
C1000  O1034   1.307   .     A
C1001  C1007   1.399   .     A
C1001  C1005   1.396   .     A
C1002  C1008   1.397   .     A
C1002  C1006   1.397   .     A
C1003  C1005   1.390   .     A
C1003  C1011   1.410   .     A
C1003  H1153   1.083   1_455 S
C1004  C1006   1.393   .     A
C1004  C1012   1.410   .     A
C1004  H1088   1.083   .     S
C1005  H1020   1.083   .     S
C1006  H1019   1.083   .     S
C1007  C1009   1.407   .     A
C1007  H1018   1.074   .     S
C1008  C1010   1.407   .     A
C1008  H1017   1.076   .     S
C1009  C1013   1.427   .     A
C1009  C1011   1.421   .     A
C1010  C1012   1.420   .     A
C1010  C1014   1.427   .     A
C1011  C401    1.401   1_556 S
C1013  C420    1.418   1_556 S
Cu1015 O1032   1.949   .     S
Cu1015 N1028   2.034   .     S
Cu1015 O1033   1.945   .     S
Cu1015 Cu1016  2.708   .     S
Cu1015 O1029   1.951   .     S
Cu1015 O1036   1.928   .     S
Cu1016 N1027   2.034   .     S
Cu1016 O1030   1.951   .     S
Cu1016 O1034   1.945   .     S
Cu1016 O1035   1.928   .     S
Cu1016 O1031   1.949   .     S
H1021  C1069   1.083   .     S
H1022  C1136   1.083   1_455 S
H1026  C602    1.086   1_565 S
N1027  N1094   1.286   .     S
N1027  O1113   1.349   .     S
N1028  N1159   1.286   1_455 S
N1028  O1184   1.347   1_455 S
O1037  C1038   1.411   .     S
O1037  C1061   1.395   .     S
C1038  H1040   1.109   .     S
C1038  H1041   1.108   .     S
C1038  H1105   1.114   .     S
H1039  C1170   1.114   1_455 S
O1042  C1043   1.412   .     S
O1042  C1128   1.387   1_455 S
C1043  H1176   1.114   1_455 S
C1043  H1177   1.111   1_455 S
C1043  H650    1.109   1_565 S
H1044  C1109   1.114   .     S
H1045  C1109   1.111   .     S
O1047  N1159   1.349   1_455 S
O1047  C1180   1.401   1_455 S
C1048  H1050   1.111   .     S
C1048  H1049   1.106   .     S
C1048  O1113   1.401   .     S
C1048  H1117   1.109   .     S
H1051  C1180   1.109   1_455 S
O1052  N1094   1.347   .     S
O1052  C1119   1.398   .     S
C1053  H1055   1.105   .     S
C1053  H1054   1.112   .     S
C1053  O1184   1.398   1_455 S
C1053  H1188   1.107   1_455 S
H1056  C1119   1.107   .     S
C1057  O1097   1.293   .     A
C1057  O1095   1.297   .     A
C1057  C1063   1.428   .     S
C1058  O1098   1.293   .     A
C1058  O1096   1.296   .     A
C1058  C1064   1.427   .     S
C1059  C1080   1.416   .     A
C1059  H1089   1.074   .     S
C1059  C1061   1.406   .     A
C1060  H1090   1.075   .     S
C1060  C1062   1.398   .     A
C1060  C1079   1.417   .     A
C1062  C484    1.400   1_556 S
C1062  O1174   1.387   .     S
C1063  C668    1.330   1_565 S
C1063  H695    1.088   1_565 S
C1065  O1101   1.302   .     A
C1065  C1067   1.468   .     S
C1065  O1099   1.307   .     A
C1066  O1102   1.302   .     A
C1066  C1068   1.468   .     S
C1066  O1100   1.307   .     A
C1067  C1073   1.399   .     A
C1067  C1071   1.396   .     A
C1068  C1074   1.397   .     A
C1068  C1072   1.397   .     A
C1069  C1071   1.390   .     A
C1069  C1077   1.410   .     A
C1070  C1072   1.393   .     A
C1070  C1078   1.410   .     A
C1070  H1154   1.083   .     S
C1071  H1086   1.083   .     S
C1072  H1085   1.083   .     S
C1073  C1075   1.407   .     A
C1073  H1084   1.074   .     S
C1074  C1076   1.407   .     A
C1074  H1083   1.076   .     S
C1075  C1079   1.427   .     A
C1075  C1077   1.421   .     A
C1076  C1078   1.420   .     A
C1076  C1080   1.427   .     A
C1077  C467    1.401   1_556 S
C1079  C486    1.418   1_556 S
Cu1081 O1098   1.949   .     S
Cu1081 N1094   2.034   .     S
Cu1081 O1099   1.945   .     S
Cu1081 Cu1082  2.708   .     S
Cu1081 O1095   1.951   .     S
Cu1081 O1102   1.928   .     S
Cu1082 N1093   2.034   .     S
Cu1082 O1096   1.951   .     S
Cu1082 O1100   1.945   .     S
Cu1082 O1101   1.928   .     S
Cu1082 O1097   1.949   .     S
H1087  C1135   1.083   .     S
H1092  C668    1.086   1_565 S
N1093  N1160   1.286   .     S
N1093  O1179   1.349   .     S
O1103  C1104   1.411   .     S
O1103  C1127   1.395   .     S
C1104  H1106   1.109   .     S
C1104  H1107   1.108   .     S
C1104  H1171   1.114   .     S
O1108  C1109   1.412   .     S
C1109  H716    1.109   1_565 S
H1110  C1175   1.114   .     S
H1111  C1175   1.111   .     S
C1114  H1116   1.111   .     S
C1114  H1115   1.106   .     S
C1114  O1179   1.401   .     S
C1114  H1183   1.109   .     S
O1118  N1160   1.347   .     S
O1118  C1185   1.398   .     S
C1119  H1121   1.105   .     S
C1119  H1120   1.112   .     S
H1122  C1185   1.107   .     S
C1123  O1163   1.293   .     A
C1123  O1161   1.297   .     A
C1123  C1129   1.428   .     S
C1124  O1164   1.293   .     A
C1124  O1162   1.296   .     A
C1124  C1130   1.427   .     S
C1125  C1146   1.416   .     A
C1125  H1155   1.074   .     S
C1125  C1127   1.406   .     A
C1126  H1156   1.075   .     S
C1126  C1128   1.398   .     A
C1126  C1145   1.417   .     A
C1128  C550    1.400   1_556 S
C1128  O1042   1.387   1_655 S
C1129  C734    1.330   1_565 S
C1129  H761    1.088   1_565 S
C1131  O1167   1.302   .     A
C1131  C1133   1.468   .     S
C1131  O1165   1.307   .     A
C1132  O1168   1.302   .     A
C1132  C1134   1.468   .     S
C1132  O1166   1.307   .     A
C1133  C1139   1.399   .     A
C1133  C1137   1.396   .     A
C1134  C1140   1.397   .     A
C1134  C1138   1.397   .     A
C1135  C1137   1.390   .     A
C1135  C1143   1.410   .     A
C1136  C1138   1.393   .     A
C1136  C1144   1.410   .     A
C1136  H1022   1.083   1_655 S
C1137  H1152   1.083   .     S
C1138  H1151   1.083   .     S
C1139  C1141   1.407   .     A
C1139  H1150   1.074   .     S
C1140  C1142   1.407   .     A
C1140  H1149   1.076   .     S
C1141  C1145   1.427   .     A
C1141  C1143   1.421   .     A
C1142  C1144   1.420   .     A
C1142  C1146   1.427   .     A
C1143  C533    1.401   1_556 S
C1145  C552    1.418   1_556 S
Cu1147 O1164   1.949   .     S
Cu1147 N1160   2.034   .     S
Cu1147 O1165   1.945   .     S
Cu1147 Cu1148  2.708   .     S
Cu1147 O1161   1.951   .     S
Cu1147 O1168   1.928   .     S
Cu1148 N1159   2.034   .     S
Cu1148 O1162   1.951   .     S
Cu1148 O1166   1.945   .     S
Cu1148 O1167   1.928   .     S
Cu1148 O1163   1.949   .     S
H1153  C1003   1.083   1_655 S
H1158  C734    1.086   1_565 S
N1159  N1028   1.286   1_655 S
N1159  O1047   1.349   1_655 S
O1169  C1170   1.411   .     S
O1169  C995    1.395   1_655 S
C1170  H1172   1.109   .     S
C1170  H1173   1.108   .     S
C1170  H1039   1.114   1_655 S
O1174  C1175   1.412   .     S
C1175  H782    1.109   1_565 S
H1176  C1043   1.114   1_655 S
H1177  C1043   1.111   1_655 S
C1180  H1182   1.111   .     S
C1180  H1181   1.106   .     S
C1180  O1047   1.401   1_655 S
C1180  H1051   1.109   1_655 S
O1184  N1028   1.347   1_655 S
O1184  C1053   1.398   1_655 S
C1185  H1187   1.105   .     S
C1185  H1186   1.112   .     S
H1188  C1053   1.107   1_655 S
