data_str_m2_o5_o17_pcu_sym.4
_audit_creation_date              2020-01-03
_audit_creation_method            'Materials Studio'
_symmetry_space_group_name_H-M    'P1'
_symmetry_Int_Tables_number       1
_symmetry_cell_setting            triclinic
loop_
_symmetry_equiv_pos_as_xyz
  x,y,z
_cell_length_a                    30.1611
_cell_length_b                    27.7595
_cell_length_c                    23.3153
_cell_angle_alpha                 89.9968
_cell_angle_beta                  89.9939
_cell_angle_gamma                 88.8720
loop_
_atom_site_label
_atom_site_type_symbol
_atom_site_fract_x
_atom_site_fract_y
_atom_site_fract_z
_atom_site_U_iso_or_equiv
_atom_site_adp_type
_atom_site_occupancy
O1     O     0.25000   0.09613   0.21425   0.00000  Uiso   1.00
O2     O     0.25000   0.23720   0.11908   0.00000  Uiso   1.00
O3     O     0.25000   0.23720   0.21425   0.00000  Uiso   1.00
O4     O     0.25000   0.09613   0.11908   0.00000  Uiso   1.00
C5     C     0.24975   0.07325   0.16668   0.00000  Uiso   1.00
C6     C     0.25028   0.26009   0.16668   0.00000  Uiso   1.00
O7     O     0.18513   0.16667   0.21427   0.00000  Uiso   1.00
O8     O     0.31487   0.16667   0.11907   0.00000  Uiso   1.00
O9     O     0.31487   0.16667   0.21427   0.00000  Uiso   1.00
O10    O     0.18513   0.16667   0.11907   0.00000  Uiso   1.00
C11    C     0.16429   0.16825   0.16659   0.00000  Uiso   1.00
C12    C     0.33571   0.16506   0.16658   0.00000  Uiso   1.00
Cu13   Cu    0.25000   0.16667   0.22303   0.00000  Uiso   1.00
Cu14   Cu    0.25000   0.16667   0.11031   0.00000  Uiso   1.00
N15    N     0.25000   0.16667   0.02561   0.00000  Uiso   1.00
N16    N     0.25000   0.16667   0.30773   0.00000  Uiso   1.00
C17    C     0.40522   0.20937   0.16911   0.00000  Uiso   1.00
C18    C     0.09479   0.12392   0.16873   0.00000  Uiso   1.00
C19    C     0.40806   0.12173   0.15920   0.00000  Uiso   1.00
C20    C     0.09193   0.21160   0.15955   0.00000  Uiso   1.00
C21    C     0.38385   0.16515   0.16588   0.00000  Uiso   1.00
C22    C     0.11615   0.16816   0.16590   0.00000  Uiso   1.00
C23    C     0.45470   0.12233   0.16174   0.00000  Uiso   1.00
C24    C     0.04530   0.21095   0.16199   0.00000  Uiso   1.00
C25    C     0.45191   0.21013   0.17159   0.00000  Uiso   1.00
C26    C     0.04809   0.12313   0.17131   0.00000  Uiso   1.00
C27    C     0.47654   0.16637   0.16850   0.00000  Uiso   1.00
C28    C     0.02346   0.16688   0.16850   0.00000  Uiso   1.00
C29    C     0.48049   0.07992   0.15587   0.00000  Uiso   1.00
C30    C     0.01950   0.25335   0.15615   0.00000  Uiso   1.00
C31    C     0.47497   0.25363   0.17277   0.00000  Uiso   1.00
C32    C     0.02506   0.07962   0.17237   0.00000  Uiso   1.00
C33    C     0.24992   0.02168   0.16668   0.00000  Uiso   1.00
C34    C     0.25011   0.31165   0.16668   0.00000  Uiso   1.00
O35    O     0.46457   0.04115   0.12589   0.00000  Uiso   1.00
C36    C     0.47099   0.05033   0.06677   0.00000  Uiso   1.00
H37    H     0.00683   0.05283   0.05620   0.00000  Uiso   1.00
H38    H     0.45356   0.08399   0.05266   0.00000  Uiso   1.00
H39    H     0.45692   0.02044   0.04158   0.00000  Uiso   1.00
O40    O     0.03529   0.29199   0.12581   0.00000  Uiso   1.00
C41    C     0.02907   0.28232   0.06675   0.00000  Uiso   1.00
H42    H     0.49326   0.27947   0.05606   0.00000  Uiso   1.00
H43    H     0.04679   0.24871   0.05304   0.00000  Uiso   1.00
H44    H     0.04300   0.31215   0.04129   0.00000  Uiso   1.00
O45    O     0.45383   0.29702   0.18423   0.00000  Uiso   1.00
C46    C     0.44920   0.30161   0.24426   0.00000  Uiso   1.00
H47    H     0.48128   0.29560   0.26707   0.00000  Uiso   1.00
H48    H     0.42425   0.27634   0.26123   0.00000  Uiso   1.00
H49    H     0.43732   0.00544   0.25409   0.00000  Uiso   1.00
O50    O     0.04624   0.03623   0.18366   0.00000  Uiso   1.00
C51    C     0.05105   0.03156   0.24367   0.00000  Uiso   1.00
H52    H     0.01905   0.03762   0.26666   0.00000  Uiso   1.00
H53    H     0.07610   0.05675   0.26052   0.00000  Uiso   1.00
H54    H     0.06288   0.32769   0.25338   0.00000  Uiso   1.00
O55    O     0.37987   0.25155   0.16930   0.00000  Uiso   1.00
C56    C     0.37351   0.26698   0.11210   0.00000  Uiso   1.00
H57    H     0.36081   0.23802   0.08392   0.00000  Uiso   1.00
H58    H     0.40471   0.28103   0.09373   0.00000  Uiso   1.00
H59    H     0.34831   0.29658   0.11196   0.00000  Uiso   1.00
O60    O     0.12015   0.08174   0.16833   0.00000  Uiso   1.00
C61    C     0.12632   0.06677   0.11092   0.00000  Uiso   1.00
H62    H     0.13851   0.09607   0.08283   0.00000  Uiso   1.00
H63    H     0.09516   0.05242   0.09280   0.00000  Uiso   1.00
H64    H     0.15186   0.03749   0.11024   0.00000  Uiso   1.00
O65    O     0.38631   0.07821   0.15654   0.00000  Uiso   1.00
C66    C     0.36711   0.07198   0.10166   0.00000  Uiso   1.00
H67    H     0.37310   0.10159   0.07035   0.00000  Uiso   1.00
H68    H     0.33096   0.06783   0.10653   0.00000  Uiso   1.00
H69    H     0.38022   0.03810   0.08256   0.00000  Uiso   1.00
O70    O     0.11365   0.25518   0.15745   0.00000  Uiso   1.00
C71    C     0.13299   0.26186   0.10273   0.00000  Uiso   1.00
H72    H     0.12774   0.23212   0.07133   0.00000  Uiso   1.00
H73    H     0.16903   0.26679   0.10792   0.00000  Uiso   1.00
H74    H     0.11938   0.29548   0.08356   0.00000  Uiso   1.00
O75    O     0.75000   0.09613   0.21425   0.00000  Uiso   1.00
O76    O     0.75000   0.23720   0.11908   0.00000  Uiso   1.00
O77    O     0.75000   0.23720   0.21425   0.00000  Uiso   1.00
O78    O     0.75000   0.09613   0.11908   0.00000  Uiso   1.00
C79    C     0.74975   0.07325   0.16668   0.00000  Uiso   1.00
C80    C     0.75028   0.26009   0.16668   0.00000  Uiso   1.00
O81    O     0.68513   0.16667   0.21427   0.00000  Uiso   1.00
O82    O     0.81487   0.16667   0.11907   0.00000  Uiso   1.00
O83    O     0.81487   0.16667   0.21427   0.00000  Uiso   1.00
O84    O     0.68513   0.16667   0.11907   0.00000  Uiso   1.00
C85    C     0.66429   0.16825   0.16659   0.00000  Uiso   1.00
C86    C     0.83571   0.16506   0.16658   0.00000  Uiso   1.00
Cu87   Cu    0.75000   0.16667   0.22303   0.00000  Uiso   1.00
Cu88   Cu    0.75000   0.16667   0.11031   0.00000  Uiso   1.00
N89    N     0.75000   0.16667   0.02561   0.00000  Uiso   1.00
N90    N     0.75000   0.16667   0.30773   0.00000  Uiso   1.00
C91    C     0.90522   0.20937   0.16911   0.00000  Uiso   1.00
C92    C     0.59479   0.12392   0.16873   0.00000  Uiso   1.00
C93    C     0.90806   0.12173   0.15920   0.00000  Uiso   1.00
C94    C     0.59193   0.21160   0.15955   0.00000  Uiso   1.00
C95    C     0.88385   0.16515   0.16588   0.00000  Uiso   1.00
C96    C     0.61615   0.16816   0.16590   0.00000  Uiso   1.00
C97    C     0.95470   0.12233   0.16174   0.00000  Uiso   1.00
C98    C     0.54530   0.21095   0.16199   0.00000  Uiso   1.00
C99    C     0.95191   0.21013   0.17159   0.00000  Uiso   1.00
C100   C     0.54809   0.12313   0.17131   0.00000  Uiso   1.00
C101   C     0.97654   0.16637   0.16850   0.00000  Uiso   1.00
C102   C     0.52346   0.16688   0.16850   0.00000  Uiso   1.00
C103   C     0.98049   0.07992   0.15587   0.00000  Uiso   1.00
C104   C     0.51950   0.25335   0.15615   0.00000  Uiso   1.00
C105   C     0.97497   0.25363   0.17277   0.00000  Uiso   1.00
C106   C     0.52506   0.07962   0.17237   0.00000  Uiso   1.00
C107   C     0.74992   0.02168   0.16668   0.00000  Uiso   1.00
C108   C     0.75011   0.31165   0.16668   0.00000  Uiso   1.00
O109   O     0.96457   0.04115   0.12589   0.00000  Uiso   1.00
C110   C     0.97099   0.05033   0.06677   0.00000  Uiso   1.00
H111   H     0.50683   0.05283   0.05620   0.00000  Uiso   1.00
H112   H     0.95356   0.08399   0.05266   0.00000  Uiso   1.00
H113   H     0.95692   0.02044   0.04158   0.00000  Uiso   1.00
O114   O     0.53529   0.29199   0.12581   0.00000  Uiso   1.00
C115   C     0.52907   0.28232   0.06675   0.00000  Uiso   1.00
H116   H     0.99326   0.27947   0.05606   0.00000  Uiso   1.00
H117   H     0.54679   0.24871   0.05304   0.00000  Uiso   1.00
H118   H     0.54300   0.31215   0.04129   0.00000  Uiso   1.00
O119   O     0.95383   0.29702   0.18423   0.00000  Uiso   1.00
C120   C     0.94920   0.30161   0.24426   0.00000  Uiso   1.00
H121   H     0.98128   0.29560   0.26707   0.00000  Uiso   1.00
H122   H     0.92425   0.27634   0.26123   0.00000  Uiso   1.00
H123   H     0.93732   0.00544   0.25409   0.00000  Uiso   1.00
O124   O     0.54624   0.03623   0.18366   0.00000  Uiso   1.00
C125   C     0.55105   0.03156   0.24367   0.00000  Uiso   1.00
H126   H     0.51905   0.03762   0.26666   0.00000  Uiso   1.00
H127   H     0.57610   0.05675   0.26052   0.00000  Uiso   1.00
H128   H     0.56288   0.32769   0.25338   0.00000  Uiso   1.00
O129   O     0.87987   0.25155   0.16930   0.00000  Uiso   1.00
C130   C     0.87351   0.26698   0.11210   0.00000  Uiso   1.00
H131   H     0.86081   0.23802   0.08392   0.00000  Uiso   1.00
H132   H     0.90471   0.28103   0.09373   0.00000  Uiso   1.00
H133   H     0.84831   0.29658   0.11196   0.00000  Uiso   1.00
O134   O     0.62015   0.08174   0.16833   0.00000  Uiso   1.00
C135   C     0.62632   0.06677   0.11092   0.00000  Uiso   1.00
H136   H     0.63851   0.09607   0.08283   0.00000  Uiso   1.00
H137   H     0.59516   0.05242   0.09280   0.00000  Uiso   1.00
H138   H     0.65186   0.03749   0.11024   0.00000  Uiso   1.00
O139   O     0.88631   0.07821   0.15654   0.00000  Uiso   1.00
C140   C     0.86711   0.07198   0.10166   0.00000  Uiso   1.00
H141   H     0.87310   0.10159   0.07035   0.00000  Uiso   1.00
H142   H     0.83096   0.06783   0.10653   0.00000  Uiso   1.00
H143   H     0.88022   0.03810   0.08256   0.00000  Uiso   1.00
O144   O     0.61365   0.25518   0.15745   0.00000  Uiso   1.00
C145   C     0.63299   0.26186   0.10273   0.00000  Uiso   1.00
H146   H     0.62774   0.23212   0.07133   0.00000  Uiso   1.00
H147   H     0.66903   0.26679   0.10792   0.00000  Uiso   1.00
H148   H     0.61938   0.29548   0.08356   0.00000  Uiso   1.00
O149   O     0.25000   0.42946   0.21425   0.00000  Uiso   1.00
O150   O     0.25000   0.57054   0.11908   0.00000  Uiso   1.00
O151   O     0.25000   0.57054   0.21425   0.00000  Uiso   1.00
O152   O     0.25000   0.42946   0.11908   0.00000  Uiso   1.00
C153   C     0.24975   0.40658   0.16668   0.00000  Uiso   1.00
C154   C     0.25028   0.59342   0.16668   0.00000  Uiso   1.00
O155   O     0.18513   0.50000   0.21427   0.00000  Uiso   1.00
O156   O     0.31487   0.50000   0.11907   0.00000  Uiso   1.00
O157   O     0.31487   0.50000   0.21427   0.00000  Uiso   1.00
O158   O     0.18513   0.50000   0.11907   0.00000  Uiso   1.00
C159   C     0.16429   0.50159   0.16659   0.00000  Uiso   1.00
C160   C     0.33571   0.49840   0.16658   0.00000  Uiso   1.00
Cu161  Cu    0.25000   0.50000   0.22303   0.00000  Uiso   1.00
Cu162  Cu    0.25000   0.50000   0.11031   0.00000  Uiso   1.00
N163   N     0.25000   0.50000   0.02561   0.00000  Uiso   1.00
N164   N     0.25000   0.50000   0.30773   0.00000  Uiso   1.00
C165   C     0.40522   0.54270   0.16911   0.00000  Uiso   1.00
C166   C     0.09479   0.45725   0.16873   0.00000  Uiso   1.00
C167   C     0.40806   0.45506   0.15920   0.00000  Uiso   1.00
C168   C     0.09193   0.54494   0.15955   0.00000  Uiso   1.00
C169   C     0.38385   0.49849   0.16588   0.00000  Uiso   1.00
C170   C     0.11615   0.50149   0.16590   0.00000  Uiso   1.00
C171   C     0.45470   0.45567   0.16174   0.00000  Uiso   1.00
C172   C     0.04530   0.54428   0.16199   0.00000  Uiso   1.00
C173   C     0.45191   0.54346   0.17159   0.00000  Uiso   1.00
C174   C     0.04809   0.45647   0.17131   0.00000  Uiso   1.00
C175   C     0.47654   0.49971   0.16850   0.00000  Uiso   1.00
C176   C     0.02346   0.50021   0.16850   0.00000  Uiso   1.00
C177   C     0.48049   0.41325   0.15587   0.00000  Uiso   1.00
C178   C     0.01950   0.58668   0.15615   0.00000  Uiso   1.00
C179   C     0.47497   0.58697   0.17277   0.00000  Uiso   1.00
C180   C     0.02506   0.41295   0.17237   0.00000  Uiso   1.00
C181   C     0.24992   0.35501   0.16668   0.00000  Uiso   1.00
C182   C     0.25011   0.64499   0.16668   0.00000  Uiso   1.00
O183   O     0.46457   0.37449   0.12589   0.00000  Uiso   1.00
C184   C     0.47099   0.38367   0.06677   0.00000  Uiso   1.00
H185   H     0.00683   0.38616   0.05620   0.00000  Uiso   1.00
H186   H     0.45356   0.41732   0.05266   0.00000  Uiso   1.00
H187   H     0.45692   0.35377   0.04158   0.00000  Uiso   1.00
O188   O     0.03529   0.62532   0.12581   0.00000  Uiso   1.00
C189   C     0.02907   0.61566   0.06675   0.00000  Uiso   1.00
H190   H     0.49326   0.61280   0.05606   0.00000  Uiso   1.00
H191   H     0.04679   0.58205   0.05304   0.00000  Uiso   1.00
H192   H     0.04300   0.64548   0.04129   0.00000  Uiso   1.00
O193   O     0.45383   0.63035   0.18423   0.00000  Uiso   1.00
C194   C     0.44920   0.63494   0.24426   0.00000  Uiso   1.00
H195   H     0.48128   0.62893   0.26707   0.00000  Uiso   1.00
H196   H     0.42425   0.60967   0.26123   0.00000  Uiso   1.00
H197   H     0.43732   0.33878   0.25409   0.00000  Uiso   1.00
O198   O     0.04624   0.36956   0.18366   0.00000  Uiso   1.00
C199   C     0.05105   0.36489   0.24367   0.00000  Uiso   1.00
H200   H     0.01905   0.37096   0.26666   0.00000  Uiso   1.00
H201   H     0.07610   0.39008   0.26052   0.00000  Uiso   1.00
H202   H     0.06288   0.66102   0.25338   0.00000  Uiso   1.00
O203   O     0.37987   0.58488   0.16930   0.00000  Uiso   1.00
C204   C     0.37351   0.60031   0.11210   0.00000  Uiso   1.00
H205   H     0.36081   0.57136   0.08392   0.00000  Uiso   1.00
H206   H     0.40471   0.61437   0.09373   0.00000  Uiso   1.00
H207   H     0.34831   0.62991   0.11196   0.00000  Uiso   1.00
O208   O     0.12015   0.41507   0.16833   0.00000  Uiso   1.00
C209   C     0.12632   0.40010   0.11092   0.00000  Uiso   1.00
H210   H     0.13851   0.42940   0.08283   0.00000  Uiso   1.00
H211   H     0.09516   0.38576   0.09280   0.00000  Uiso   1.00
H212   H     0.15186   0.37083   0.11024   0.00000  Uiso   1.00
O213   O     0.38631   0.41154   0.15654   0.00000  Uiso   1.00
C214   C     0.36711   0.40531   0.10166   0.00000  Uiso   1.00
H215   H     0.37310   0.43492   0.07035   0.00000  Uiso   1.00
H216   H     0.33096   0.40117   0.10653   0.00000  Uiso   1.00
H217   H     0.38022   0.37143   0.08256   0.00000  Uiso   1.00
O218   O     0.11365   0.58851   0.15745   0.00000  Uiso   1.00
C219   C     0.13299   0.59519   0.10273   0.00000  Uiso   1.00
H220   H     0.12774   0.56546   0.07133   0.00000  Uiso   1.00
H221   H     0.16903   0.60013   0.10792   0.00000  Uiso   1.00
H222   H     0.11938   0.62882   0.08356   0.00000  Uiso   1.00
O223   O     0.75000   0.42946   0.21425   0.00000  Uiso   1.00
O224   O     0.75000   0.57054   0.11908   0.00000  Uiso   1.00
O225   O     0.75000   0.57054   0.21425   0.00000  Uiso   1.00
O226   O     0.75000   0.42946   0.11908   0.00000  Uiso   1.00
C227   C     0.74975   0.40658   0.16668   0.00000  Uiso   1.00
C228   C     0.75028   0.59342   0.16668   0.00000  Uiso   1.00
O229   O     0.68513   0.50000   0.21427   0.00000  Uiso   1.00
O230   O     0.81487   0.50000   0.11907   0.00000  Uiso   1.00
O231   O     0.81487   0.50000   0.21427   0.00000  Uiso   1.00
O232   O     0.68513   0.50000   0.11907   0.00000  Uiso   1.00
C233   C     0.66429   0.50159   0.16659   0.00000  Uiso   1.00
C234   C     0.83571   0.49840   0.16658   0.00000  Uiso   1.00
Cu235  Cu    0.75000   0.50000   0.22303   0.00000  Uiso   1.00
Cu236  Cu    0.75000   0.50000   0.11031   0.00000  Uiso   1.00
N237   N     0.75000   0.50000   0.02561   0.00000  Uiso   1.00
N238   N     0.75000   0.50000   0.30773   0.00000  Uiso   1.00
C239   C     0.90522   0.54270   0.16911   0.00000  Uiso   1.00
C240   C     0.59479   0.45725   0.16873   0.00000  Uiso   1.00
C241   C     0.90806   0.45506   0.15920   0.00000  Uiso   1.00
C242   C     0.59193   0.54494   0.15955   0.00000  Uiso   1.00
C243   C     0.88385   0.49849   0.16588   0.00000  Uiso   1.00
C244   C     0.61615   0.50149   0.16590   0.00000  Uiso   1.00
C245   C     0.95470   0.45567   0.16174   0.00000  Uiso   1.00
C246   C     0.54530   0.54428   0.16199   0.00000  Uiso   1.00
C247   C     0.95191   0.54346   0.17159   0.00000  Uiso   1.00
C248   C     0.54809   0.45647   0.17131   0.00000  Uiso   1.00
C249   C     0.97654   0.49971   0.16850   0.00000  Uiso   1.00
C250   C     0.52346   0.50021   0.16850   0.00000  Uiso   1.00
C251   C     0.98049   0.41325   0.15587   0.00000  Uiso   1.00
C252   C     0.51950   0.58668   0.15615   0.00000  Uiso   1.00
C253   C     0.97497   0.58697   0.17277   0.00000  Uiso   1.00
C254   C     0.52506   0.41295   0.17237   0.00000  Uiso   1.00
C255   C     0.74992   0.35501   0.16668   0.00000  Uiso   1.00
C256   C     0.75011   0.64499   0.16668   0.00000  Uiso   1.00
O257   O     0.96457   0.37449   0.12589   0.00000  Uiso   1.00
C258   C     0.97099   0.38367   0.06677   0.00000  Uiso   1.00
H259   H     0.50683   0.38616   0.05620   0.00000  Uiso   1.00
H260   H     0.95356   0.41732   0.05266   0.00000  Uiso   1.00
H261   H     0.95692   0.35377   0.04158   0.00000  Uiso   1.00
O262   O     0.53529   0.62532   0.12581   0.00000  Uiso   1.00
C263   C     0.52907   0.61566   0.06675   0.00000  Uiso   1.00
H264   H     0.99326   0.61280   0.05606   0.00000  Uiso   1.00
H265   H     0.54679   0.58205   0.05304   0.00000  Uiso   1.00
H266   H     0.54300   0.64548   0.04129   0.00000  Uiso   1.00
O267   O     0.95383   0.63035   0.18423   0.00000  Uiso   1.00
C268   C     0.94920   0.63494   0.24426   0.00000  Uiso   1.00
H269   H     0.98128   0.62893   0.26707   0.00000  Uiso   1.00
H270   H     0.92425   0.60967   0.26123   0.00000  Uiso   1.00
H271   H     0.93732   0.33878   0.25409   0.00000  Uiso   1.00
O272   O     0.54624   0.36956   0.18366   0.00000  Uiso   1.00
C273   C     0.55105   0.36489   0.24367   0.00000  Uiso   1.00
H274   H     0.51905   0.37096   0.26666   0.00000  Uiso   1.00
H275   H     0.57610   0.39008   0.26052   0.00000  Uiso   1.00
H276   H     0.56288   0.66102   0.25338   0.00000  Uiso   1.00
O277   O     0.87987   0.58488   0.16930   0.00000  Uiso   1.00
C278   C     0.87351   0.60031   0.11210   0.00000  Uiso   1.00
H279   H     0.86081   0.57136   0.08392   0.00000  Uiso   1.00
H280   H     0.90471   0.61437   0.09373   0.00000  Uiso   1.00
H281   H     0.84831   0.62991   0.11196   0.00000  Uiso   1.00
O282   O     0.62015   0.41507   0.16833   0.00000  Uiso   1.00
C283   C     0.62632   0.40010   0.11092   0.00000  Uiso   1.00
H284   H     0.63851   0.42940   0.08283   0.00000  Uiso   1.00
H285   H     0.59516   0.38576   0.09280   0.00000  Uiso   1.00
H286   H     0.65186   0.37083   0.11024   0.00000  Uiso   1.00
O287   O     0.88631   0.41154   0.15654   0.00000  Uiso   1.00
C288   C     0.86711   0.40531   0.10166   0.00000  Uiso   1.00
H289   H     0.87310   0.43492   0.07035   0.00000  Uiso   1.00
H290   H     0.83096   0.40117   0.10653   0.00000  Uiso   1.00
H291   H     0.88022   0.37143   0.08256   0.00000  Uiso   1.00
O292   O     0.61365   0.58851   0.15745   0.00000  Uiso   1.00
C293   C     0.63299   0.59519   0.10273   0.00000  Uiso   1.00
H294   H     0.62774   0.56546   0.07133   0.00000  Uiso   1.00
H295   H     0.66903   0.60013   0.10792   0.00000  Uiso   1.00
H296   H     0.61938   0.62882   0.08356   0.00000  Uiso   1.00
O297   O     0.25000   0.76280   0.21425   0.00000  Uiso   1.00
O298   O     0.25000   0.90387   0.11908   0.00000  Uiso   1.00
O299   O     0.25000   0.90387   0.21425   0.00000  Uiso   1.00
O300   O     0.25000   0.76280   0.11908   0.00000  Uiso   1.00
C301   C     0.24975   0.73991   0.16668   0.00000  Uiso   1.00
C302   C     0.25028   0.92675   0.16668   0.00000  Uiso   1.00
O303   O     0.18513   0.83333   0.21427   0.00000  Uiso   1.00
O304   O     0.31487   0.83333   0.11907   0.00000  Uiso   1.00
O305   O     0.31487   0.83333   0.21427   0.00000  Uiso   1.00
O306   O     0.18513   0.83333   0.11907   0.00000  Uiso   1.00
C307   C     0.16429   0.83492   0.16659   0.00000  Uiso   1.00
C308   C     0.33571   0.83173   0.16658   0.00000  Uiso   1.00
Cu309  Cu    0.25000   0.83333   0.22303   0.00000  Uiso   1.00
Cu310  Cu    0.25000   0.83333   0.11031   0.00000  Uiso   1.00
N311   N     0.25000   0.83333   0.02561   0.00000  Uiso   1.00
N312   N     0.25000   0.83333   0.30773   0.00000  Uiso   1.00
C313   C     0.40522   0.87603   0.16911   0.00000  Uiso   1.00
C314   C     0.09479   0.79058   0.16873   0.00000  Uiso   1.00
C315   C     0.40806   0.78840   0.15920   0.00000  Uiso   1.00
C316   C     0.09193   0.87827   0.15955   0.00000  Uiso   1.00
C317   C     0.38385   0.83182   0.16588   0.00000  Uiso   1.00
C318   C     0.11615   0.83482   0.16590   0.00000  Uiso   1.00
C319   C     0.45470   0.78900   0.16174   0.00000  Uiso   1.00
C320   C     0.04530   0.87761   0.16199   0.00000  Uiso   1.00
C321   C     0.45191   0.87679   0.17159   0.00000  Uiso   1.00
C322   C     0.04809   0.78980   0.17131   0.00000  Uiso   1.00
C323   C     0.47654   0.83304   0.16850   0.00000  Uiso   1.00
C324   C     0.02346   0.83355   0.16850   0.00000  Uiso   1.00
C325   C     0.48049   0.74658   0.15587   0.00000  Uiso   1.00
C326   C     0.01950   0.92002   0.15615   0.00000  Uiso   1.00
C327   C     0.47497   0.92030   0.17277   0.00000  Uiso   1.00
C328   C     0.02506   0.74629   0.17237   0.00000  Uiso   1.00
C329   C     0.24992   0.68835   0.16668   0.00000  Uiso   1.00
C330   C     0.25011   0.97832   0.16668   0.00000  Uiso   1.00
O331   O     0.46457   0.70782   0.12589   0.00000  Uiso   1.00
C332   C     0.47099   0.71700   0.06677   0.00000  Uiso   1.00
H333   H     0.00683   0.71949   0.05620   0.00000  Uiso   1.00
H334   H     0.45356   0.75066   0.05266   0.00000  Uiso   1.00
H335   H     0.45692   0.68710   0.04158   0.00000  Uiso   1.00
O336   O     0.03529   0.95865   0.12581   0.00000  Uiso   1.00
C337   C     0.02907   0.94899   0.06675   0.00000  Uiso   1.00
H338   H     0.49326   0.94614   0.05606   0.00000  Uiso   1.00
H339   H     0.04679   0.91538   0.05304   0.00000  Uiso   1.00
H340   H     0.04300   0.97881   0.04129   0.00000  Uiso   1.00
O341   O     0.45383   0.96368   0.18423   0.00000  Uiso   1.00
C342   C     0.44920   0.96828   0.24426   0.00000  Uiso   1.00
H343   H     0.48128   0.96226   0.26707   0.00000  Uiso   1.00
H344   H     0.42425   0.94301   0.26123   0.00000  Uiso   1.00
H345   H     0.43732   0.67211   0.25409   0.00000  Uiso   1.00
O346   O     0.04624   0.70289   0.18366   0.00000  Uiso   1.00
C347   C     0.05105   0.69823   0.24367   0.00000  Uiso   1.00
H348   H     0.01905   0.70429   0.26666   0.00000  Uiso   1.00
H349   H     0.07610   0.72342   0.26052   0.00000  Uiso   1.00
H350   H     0.06288   0.99436   0.25338   0.00000  Uiso   1.00
O351   O     0.37987   0.91821   0.16930   0.00000  Uiso   1.00
C352   C     0.37351   0.93365   0.11210   0.00000  Uiso   1.00
H353   H     0.36081   0.90469   0.08392   0.00000  Uiso   1.00
H354   H     0.40471   0.94770   0.09373   0.00000  Uiso   1.00
H355   H     0.34831   0.96325   0.11196   0.00000  Uiso   1.00
O356   O     0.12015   0.74841   0.16833   0.00000  Uiso   1.00
C357   C     0.12632   0.73343   0.11092   0.00000  Uiso   1.00
H358   H     0.13851   0.76274   0.08283   0.00000  Uiso   1.00
H359   H     0.09516   0.71909   0.09280   0.00000  Uiso   1.00
H360   H     0.15186   0.70416   0.11024   0.00000  Uiso   1.00
O361   O     0.38631   0.74488   0.15654   0.00000  Uiso   1.00
C362   C     0.36711   0.73865   0.10166   0.00000  Uiso   1.00
H363   H     0.37310   0.76825   0.07035   0.00000  Uiso   1.00
H364   H     0.33096   0.73450   0.10653   0.00000  Uiso   1.00
H365   H     0.38022   0.70477   0.08256   0.00000  Uiso   1.00
O366   O     0.11365   0.92184   0.15745   0.00000  Uiso   1.00
C367   C     0.13299   0.92853   0.10273   0.00000  Uiso   1.00
H368   H     0.12774   0.89879   0.07133   0.00000  Uiso   1.00
H369   H     0.16903   0.93346   0.10792   0.00000  Uiso   1.00
H370   H     0.11938   0.96215   0.08356   0.00000  Uiso   1.00
O371   O     0.75000   0.76280   0.21425   0.00000  Uiso   1.00
O372   O     0.75000   0.90387   0.11908   0.00000  Uiso   1.00
O373   O     0.75000   0.90387   0.21425   0.00000  Uiso   1.00
O374   O     0.75000   0.76280   0.11908   0.00000  Uiso   1.00
C375   C     0.74975   0.73991   0.16668   0.00000  Uiso   1.00
C376   C     0.75028   0.92675   0.16668   0.00000  Uiso   1.00
O377   O     0.68513   0.83333   0.21427   0.00000  Uiso   1.00
O378   O     0.81487   0.83333   0.11907   0.00000  Uiso   1.00
O379   O     0.81487   0.83333   0.21427   0.00000  Uiso   1.00
O380   O     0.68513   0.83333   0.11907   0.00000  Uiso   1.00
C381   C     0.66429   0.83492   0.16659   0.00000  Uiso   1.00
C382   C     0.83571   0.83173   0.16658   0.00000  Uiso   1.00
Cu383  Cu    0.75000   0.83333   0.22303   0.00000  Uiso   1.00
Cu384  Cu    0.75000   0.83333   0.11031   0.00000  Uiso   1.00
N385   N     0.75000   0.83333   0.02561   0.00000  Uiso   1.00
N386   N     0.75000   0.83333   0.30773   0.00000  Uiso   1.00
C387   C     0.90522   0.87603   0.16911   0.00000  Uiso   1.00
C388   C     0.59479   0.79058   0.16873   0.00000  Uiso   1.00
C389   C     0.90806   0.78840   0.15920   0.00000  Uiso   1.00
C390   C     0.59193   0.87827   0.15955   0.00000  Uiso   1.00
C391   C     0.88385   0.83182   0.16588   0.00000  Uiso   1.00
C392   C     0.61615   0.83482   0.16590   0.00000  Uiso   1.00
C393   C     0.95470   0.78900   0.16174   0.00000  Uiso   1.00
C394   C     0.54530   0.87761   0.16199   0.00000  Uiso   1.00
C395   C     0.95191   0.87679   0.17159   0.00000  Uiso   1.00
C396   C     0.54809   0.78980   0.17131   0.00000  Uiso   1.00
C397   C     0.97654   0.83304   0.16850   0.00000  Uiso   1.00
C398   C     0.52346   0.83355   0.16850   0.00000  Uiso   1.00
C399   C     0.98049   0.74658   0.15587   0.00000  Uiso   1.00
C400   C     0.51950   0.92002   0.15615   0.00000  Uiso   1.00
C401   C     0.97497   0.92030   0.17277   0.00000  Uiso   1.00
C402   C     0.52506   0.74629   0.17237   0.00000  Uiso   1.00
C403   C     0.74992   0.68835   0.16668   0.00000  Uiso   1.00
C404   C     0.75011   0.97832   0.16668   0.00000  Uiso   1.00
O405   O     0.96457   0.70782   0.12589   0.00000  Uiso   1.00
C406   C     0.97099   0.71700   0.06677   0.00000  Uiso   1.00
H407   H     0.50683   0.71949   0.05620   0.00000  Uiso   1.00
H408   H     0.95356   0.75066   0.05266   0.00000  Uiso   1.00
H409   H     0.95692   0.68710   0.04158   0.00000  Uiso   1.00
O410   O     0.53529   0.95865   0.12581   0.00000  Uiso   1.00
C411   C     0.52907   0.94899   0.06675   0.00000  Uiso   1.00
H412   H     0.99326   0.94614   0.05606   0.00000  Uiso   1.00
H413   H     0.54679   0.91538   0.05304   0.00000  Uiso   1.00
H414   H     0.54300   0.97881   0.04129   0.00000  Uiso   1.00
O415   O     0.95383   0.96368   0.18423   0.00000  Uiso   1.00
C416   C     0.94920   0.96828   0.24426   0.00000  Uiso   1.00
H417   H     0.98128   0.96226   0.26707   0.00000  Uiso   1.00
H418   H     0.92425   0.94301   0.26123   0.00000  Uiso   1.00
H419   H     0.93732   0.67211   0.25409   0.00000  Uiso   1.00
O420   O     0.54624   0.70289   0.18366   0.00000  Uiso   1.00
C421   C     0.55105   0.69823   0.24367   0.00000  Uiso   1.00
H422   H     0.51905   0.70429   0.26666   0.00000  Uiso   1.00
H423   H     0.57610   0.72342   0.26052   0.00000  Uiso   1.00
H424   H     0.56288   0.99436   0.25338   0.00000  Uiso   1.00
O425   O     0.87987   0.91821   0.16930   0.00000  Uiso   1.00
C426   C     0.87351   0.93365   0.11210   0.00000  Uiso   1.00
H427   H     0.86081   0.90469   0.08392   0.00000  Uiso   1.00
H428   H     0.90471   0.94770   0.09373   0.00000  Uiso   1.00
H429   H     0.84831   0.96325   0.11196   0.00000  Uiso   1.00
O430   O     0.62015   0.74841   0.16833   0.00000  Uiso   1.00
C431   C     0.62632   0.73343   0.11092   0.00000  Uiso   1.00
H432   H     0.63851   0.76274   0.08283   0.00000  Uiso   1.00
H433   H     0.59516   0.71909   0.09280   0.00000  Uiso   1.00
H434   H     0.65186   0.70416   0.11024   0.00000  Uiso   1.00
O435   O     0.88631   0.74488   0.15654   0.00000  Uiso   1.00
C436   C     0.86711   0.73865   0.10166   0.00000  Uiso   1.00
H437   H     0.87310   0.76825   0.07035   0.00000  Uiso   1.00
H438   H     0.83096   0.73450   0.10653   0.00000  Uiso   1.00
H439   H     0.88022   0.70477   0.08256   0.00000  Uiso   1.00
O440   O     0.61365   0.92184   0.15745   0.00000  Uiso   1.00
C441   C     0.63299   0.92853   0.10273   0.00000  Uiso   1.00
H442   H     0.62774   0.89879   0.07133   0.00000  Uiso   1.00
H443   H     0.66903   0.93346   0.10792   0.00000  Uiso   1.00
H444   H     0.61938   0.96215   0.08356   0.00000  Uiso   1.00
O445   O     0.25000   0.09613   0.54759   0.00000  Uiso   1.00
O446   O     0.25000   0.23720   0.45241   0.00000  Uiso   1.00
O447   O     0.25000   0.23720   0.54759   0.00000  Uiso   1.00
O448   O     0.25000   0.09613   0.45241   0.00000  Uiso   1.00
C449   C     0.24975   0.07325   0.50001   0.00000  Uiso   1.00
C450   C     0.25028   0.26009   0.50001   0.00000  Uiso   1.00
O451   O     0.18513   0.16667   0.54760   0.00000  Uiso   1.00
O452   O     0.31487   0.16667   0.45240   0.00000  Uiso   1.00
O453   O     0.31487   0.16667   0.54760   0.00000  Uiso   1.00
O454   O     0.18513   0.16667   0.45240   0.00000  Uiso   1.00
C455   C     0.16429   0.16825   0.49992   0.00000  Uiso   1.00
C456   C     0.33571   0.16506   0.49991   0.00000  Uiso   1.00
Cu457  Cu    0.25000   0.16667   0.55636   0.00000  Uiso   1.00
Cu458  Cu    0.25000   0.16667   0.44364   0.00000  Uiso   1.00
N459   N     0.25000   0.16667   0.35894   0.00000  Uiso   1.00
N460   N     0.25000   0.16667   0.64106   0.00000  Uiso   1.00
C461   C     0.40522   0.20937   0.50244   0.00000  Uiso   1.00
C462   C     0.09479   0.12392   0.50207   0.00000  Uiso   1.00
C463   C     0.40806   0.12173   0.49253   0.00000  Uiso   1.00
C464   C     0.09193   0.21160   0.49289   0.00000  Uiso   1.00
C465   C     0.38385   0.16515   0.49922   0.00000  Uiso   1.00
C466   C     0.11615   0.16816   0.49923   0.00000  Uiso   1.00
C467   C     0.45470   0.12233   0.49507   0.00000  Uiso   1.00
C468   C     0.04530   0.21095   0.49532   0.00000  Uiso   1.00
C469   C     0.45191   0.21013   0.50492   0.00000  Uiso   1.00
C470   C     0.04809   0.12313   0.50465   0.00000  Uiso   1.00
C471   C     0.47654   0.16637   0.50183   0.00000  Uiso   1.00
C472   C     0.02346   0.16688   0.50183   0.00000  Uiso   1.00
C473   C     0.48049   0.07992   0.48920   0.00000  Uiso   1.00
C474   C     0.01950   0.25335   0.48949   0.00000  Uiso   1.00
C475   C     0.47497   0.25363   0.50611   0.00000  Uiso   1.00
C476   C     0.02506   0.07962   0.50570   0.00000  Uiso   1.00
C477   C     0.24992   0.02168   0.50001   0.00000  Uiso   1.00
C478   C     0.25011   0.31165   0.50001   0.00000  Uiso   1.00
O479   O     0.46457   0.04115   0.45923   0.00000  Uiso   1.00
C480   C     0.47099   0.05033   0.40011   0.00000  Uiso   1.00
H481   H     0.00683   0.05283   0.38953   0.00000  Uiso   1.00
H482   H     0.45356   0.08399   0.38599   0.00000  Uiso   1.00
H483   H     0.45692   0.02044   0.37491   0.00000  Uiso   1.00
O484   O     0.03529   0.29199   0.45914   0.00000  Uiso   1.00
C485   C     0.02907   0.28232   0.40009   0.00000  Uiso   1.00
H486   H     0.49326   0.27947   0.38939   0.00000  Uiso   1.00
H487   H     0.04679   0.24871   0.38637   0.00000  Uiso   1.00
H488   H     0.04300   0.31215   0.37463   0.00000  Uiso   1.00
O489   O     0.45383   0.29702   0.51757   0.00000  Uiso   1.00
C490   C     0.44920   0.30161   0.57760   0.00000  Uiso   1.00
H491   H     0.48128   0.29560   0.60040   0.00000  Uiso   1.00
H492   H     0.42425   0.27634   0.59456   0.00000  Uiso   1.00
H493   H     0.43732   0.00544   0.58743   0.00000  Uiso   1.00
O494   O     0.04624   0.03623   0.51700   0.00000  Uiso   1.00
C495   C     0.05105   0.03156   0.57700   0.00000  Uiso   1.00
H496   H     0.01905   0.03762   0.59999   0.00000  Uiso   1.00
H497   H     0.07610   0.05675   0.59386   0.00000  Uiso   1.00
H498   H     0.06288   0.32769   0.58672   0.00000  Uiso   1.00
O499   O     0.37987   0.25155   0.50263   0.00000  Uiso   1.00
C500   C     0.37351   0.26698   0.44543   0.00000  Uiso   1.00
H501   H     0.36081   0.23802   0.41725   0.00000  Uiso   1.00
H502   H     0.40471   0.28103   0.42707   0.00000  Uiso   1.00
H503   H     0.34831   0.29658   0.44530   0.00000  Uiso   1.00
O504   O     0.12015   0.08174   0.50167   0.00000  Uiso   1.00
C505   C     0.12632   0.06677   0.44425   0.00000  Uiso   1.00
H506   H     0.13851   0.09607   0.41616   0.00000  Uiso   1.00
H507   H     0.09516   0.05242   0.42613   0.00000  Uiso   1.00
H508   H     0.15186   0.03749   0.44357   0.00000  Uiso   1.00
O509   O     0.38631   0.07821   0.48987   0.00000  Uiso   1.00
C510   C     0.36711   0.07198   0.43499   0.00000  Uiso   1.00
H511   H     0.37310   0.10159   0.40368   0.00000  Uiso   1.00
H512   H     0.33096   0.06783   0.43987   0.00000  Uiso   1.00
H513   H     0.38022   0.03810   0.41590   0.00000  Uiso   1.00
O514   O     0.11365   0.25518   0.49079   0.00000  Uiso   1.00
C515   C     0.13299   0.26186   0.43606   0.00000  Uiso   1.00
H516   H     0.12774   0.23212   0.40467   0.00000  Uiso   1.00
H517   H     0.16903   0.26679   0.44126   0.00000  Uiso   1.00
H518   H     0.11938   0.29548   0.41690   0.00000  Uiso   1.00
O519   O     0.75000   0.09613   0.54759   0.00000  Uiso   1.00
O520   O     0.75000   0.23720   0.45241   0.00000  Uiso   1.00
O521   O     0.75000   0.23720   0.54759   0.00000  Uiso   1.00
O522   O     0.75000   0.09613   0.45241   0.00000  Uiso   1.00
C523   C     0.74975   0.07325   0.50001   0.00000  Uiso   1.00
C524   C     0.75028   0.26009   0.50001   0.00000  Uiso   1.00
O525   O     0.68513   0.16667   0.54760   0.00000  Uiso   1.00
O526   O     0.81487   0.16667   0.45240   0.00000  Uiso   1.00
O527   O     0.81487   0.16667   0.54760   0.00000  Uiso   1.00
O528   O     0.68513   0.16667   0.45240   0.00000  Uiso   1.00
C529   C     0.66429   0.16825   0.49992   0.00000  Uiso   1.00
C530   C     0.83571   0.16506   0.49991   0.00000  Uiso   1.00
Cu531  Cu    0.75000   0.16667   0.55636   0.00000  Uiso   1.00
Cu532  Cu    0.75000   0.16667   0.44364   0.00000  Uiso   1.00
N533   N     0.75000   0.16667   0.35894   0.00000  Uiso   1.00
N534   N     0.75000   0.16667   0.64106   0.00000  Uiso   1.00
C535   C     0.90522   0.20937   0.50244   0.00000  Uiso   1.00
C536   C     0.59479   0.12392   0.50207   0.00000  Uiso   1.00
C537   C     0.90806   0.12173   0.49253   0.00000  Uiso   1.00
C538   C     0.59193   0.21160   0.49289   0.00000  Uiso   1.00
C539   C     0.88385   0.16515   0.49922   0.00000  Uiso   1.00
C540   C     0.61615   0.16816   0.49923   0.00000  Uiso   1.00
C541   C     0.95470   0.12233   0.49507   0.00000  Uiso   1.00
C542   C     0.54530   0.21095   0.49532   0.00000  Uiso   1.00
C543   C     0.95191   0.21013   0.50492   0.00000  Uiso   1.00
C544   C     0.54809   0.12313   0.50465   0.00000  Uiso   1.00
C545   C     0.97654   0.16637   0.50183   0.00000  Uiso   1.00
C546   C     0.52346   0.16688   0.50183   0.00000  Uiso   1.00
C547   C     0.98049   0.07992   0.48920   0.00000  Uiso   1.00
C548   C     0.51950   0.25335   0.48949   0.00000  Uiso   1.00
C549   C     0.97497   0.25363   0.50611   0.00000  Uiso   1.00
C550   C     0.52506   0.07962   0.50570   0.00000  Uiso   1.00
C551   C     0.74992   0.02168   0.50001   0.00000  Uiso   1.00
C552   C     0.75011   0.31165   0.50001   0.00000  Uiso   1.00
O553   O     0.96457   0.04115   0.45923   0.00000  Uiso   1.00
C554   C     0.97099   0.05033   0.40011   0.00000  Uiso   1.00
H555   H     0.50683   0.05283   0.38953   0.00000  Uiso   1.00
H556   H     0.95356   0.08399   0.38599   0.00000  Uiso   1.00
H557   H     0.95692   0.02044   0.37491   0.00000  Uiso   1.00
O558   O     0.53529   0.29199   0.45914   0.00000  Uiso   1.00
C559   C     0.52907   0.28232   0.40009   0.00000  Uiso   1.00
H560   H     0.99326   0.27947   0.38939   0.00000  Uiso   1.00
H561   H     0.54679   0.24871   0.38637   0.00000  Uiso   1.00
H562   H     0.54300   0.31215   0.37463   0.00000  Uiso   1.00
O563   O     0.95383   0.29702   0.51757   0.00000  Uiso   1.00
C564   C     0.94920   0.30161   0.57760   0.00000  Uiso   1.00
H565   H     0.98128   0.29560   0.60040   0.00000  Uiso   1.00
H566   H     0.92425   0.27634   0.59456   0.00000  Uiso   1.00
H567   H     0.93732   0.00544   0.58743   0.00000  Uiso   1.00
O568   O     0.54624   0.03623   0.51700   0.00000  Uiso   1.00
C569   C     0.55105   0.03156   0.57700   0.00000  Uiso   1.00
H570   H     0.51905   0.03762   0.59999   0.00000  Uiso   1.00
H571   H     0.57610   0.05675   0.59386   0.00000  Uiso   1.00
H572   H     0.56288   0.32769   0.58672   0.00000  Uiso   1.00
O573   O     0.87987   0.25155   0.50263   0.00000  Uiso   1.00
C574   C     0.87351   0.26698   0.44543   0.00000  Uiso   1.00
H575   H     0.86081   0.23802   0.41725   0.00000  Uiso   1.00
H576   H     0.90471   0.28103   0.42707   0.00000  Uiso   1.00
H577   H     0.84831   0.29658   0.44530   0.00000  Uiso   1.00
O578   O     0.62015   0.08174   0.50167   0.00000  Uiso   1.00
C579   C     0.62632   0.06677   0.44425   0.00000  Uiso   1.00
H580   H     0.63851   0.09607   0.41616   0.00000  Uiso   1.00
H581   H     0.59516   0.05242   0.42613   0.00000  Uiso   1.00
H582   H     0.65186   0.03749   0.44357   0.00000  Uiso   1.00
O583   O     0.88631   0.07821   0.48987   0.00000  Uiso   1.00
C584   C     0.86711   0.07198   0.43499   0.00000  Uiso   1.00
H585   H     0.87310   0.10159   0.40368   0.00000  Uiso   1.00
H586   H     0.83096   0.06783   0.43987   0.00000  Uiso   1.00
H587   H     0.88022   0.03810   0.41590   0.00000  Uiso   1.00
O588   O     0.61365   0.25518   0.49079   0.00000  Uiso   1.00
C589   C     0.63299   0.26186   0.43606   0.00000  Uiso   1.00
H590   H     0.62774   0.23212   0.40467   0.00000  Uiso   1.00
H591   H     0.66903   0.26679   0.44126   0.00000  Uiso   1.00
H592   H     0.61938   0.29548   0.41690   0.00000  Uiso   1.00
O593   O     0.25000   0.42946   0.54759   0.00000  Uiso   1.00
O594   O     0.25000   0.57054   0.45241   0.00000  Uiso   1.00
O595   O     0.25000   0.57054   0.54759   0.00000  Uiso   1.00
O596   O     0.25000   0.42946   0.45241   0.00000  Uiso   1.00
C597   C     0.24975   0.40658   0.50001   0.00000  Uiso   1.00
C598   C     0.25028   0.59342   0.50001   0.00000  Uiso   1.00
O599   O     0.18513   0.50000   0.54760   0.00000  Uiso   1.00
O600   O     0.31487   0.50000   0.45240   0.00000  Uiso   1.00
O601   O     0.31487   0.50000   0.54760   0.00000  Uiso   1.00
O602   O     0.18513   0.50000   0.45240   0.00000  Uiso   1.00
C603   C     0.16429   0.50159   0.49992   0.00000  Uiso   1.00
C604   C     0.33571   0.49840   0.49991   0.00000  Uiso   1.00
Cu605  Cu    0.25000   0.50000   0.55636   0.00000  Uiso   1.00
Cu606  Cu    0.25000   0.50000   0.44364   0.00000  Uiso   1.00
N607   N     0.25000   0.50000   0.35894   0.00000  Uiso   1.00
N608   N     0.25000   0.50000   0.64106   0.00000  Uiso   1.00
C609   C     0.40522   0.54270   0.50244   0.00000  Uiso   1.00
C610   C     0.09479   0.45725   0.50207   0.00000  Uiso   1.00
C611   C     0.40806   0.45506   0.49253   0.00000  Uiso   1.00
C612   C     0.09193   0.54494   0.49289   0.00000  Uiso   1.00
C613   C     0.38385   0.49849   0.49922   0.00000  Uiso   1.00
C614   C     0.11615   0.50149   0.49923   0.00000  Uiso   1.00
C615   C     0.45470   0.45567   0.49507   0.00000  Uiso   1.00
C616   C     0.04530   0.54428   0.49532   0.00000  Uiso   1.00
C617   C     0.45191   0.54346   0.50492   0.00000  Uiso   1.00
C618   C     0.04809   0.45647   0.50465   0.00000  Uiso   1.00
C619   C     0.47654   0.49971   0.50183   0.00000  Uiso   1.00
C620   C     0.02346   0.50021   0.50183   0.00000  Uiso   1.00
C621   C     0.48049   0.41325   0.48920   0.00000  Uiso   1.00
C622   C     0.01950   0.58668   0.48949   0.00000  Uiso   1.00
C623   C     0.47497   0.58697   0.50611   0.00000  Uiso   1.00
C624   C     0.02506   0.41295   0.50570   0.00000  Uiso   1.00
C625   C     0.24992   0.35501   0.50001   0.00000  Uiso   1.00
C626   C     0.25011   0.64499   0.50001   0.00000  Uiso   1.00
O627   O     0.46457   0.37449   0.45923   0.00000  Uiso   1.00
C628   C     0.47099   0.38367   0.40011   0.00000  Uiso   1.00
H629   H     0.00683   0.38616   0.38953   0.00000  Uiso   1.00
H630   H     0.45356   0.41732   0.38599   0.00000  Uiso   1.00
H631   H     0.45692   0.35377   0.37491   0.00000  Uiso   1.00
O632   O     0.03529   0.62532   0.45914   0.00000  Uiso   1.00
C633   C     0.02907   0.61566   0.40009   0.00000  Uiso   1.00
H634   H     0.49326   0.61280   0.38939   0.00000  Uiso   1.00
H635   H     0.04679   0.58205   0.38637   0.00000  Uiso   1.00
H636   H     0.04300   0.64548   0.37463   0.00000  Uiso   1.00
O637   O     0.45383   0.63035   0.51757   0.00000  Uiso   1.00
C638   C     0.44920   0.63494   0.57760   0.00000  Uiso   1.00
H639   H     0.48128   0.62893   0.60040   0.00000  Uiso   1.00
H640   H     0.42425   0.60967   0.59456   0.00000  Uiso   1.00
H641   H     0.43732   0.33878   0.58743   0.00000  Uiso   1.00
O642   O     0.04624   0.36956   0.51700   0.00000  Uiso   1.00
C643   C     0.05105   0.36489   0.57700   0.00000  Uiso   1.00
H644   H     0.01905   0.37096   0.59999   0.00000  Uiso   1.00
H645   H     0.07610   0.39008   0.59386   0.00000  Uiso   1.00
H646   H     0.06288   0.66102   0.58672   0.00000  Uiso   1.00
O647   O     0.37987   0.58488   0.50263   0.00000  Uiso   1.00
C648   C     0.37351   0.60031   0.44543   0.00000  Uiso   1.00
H649   H     0.36081   0.57136   0.41725   0.00000  Uiso   1.00
H650   H     0.40471   0.61437   0.42707   0.00000  Uiso   1.00
H651   H     0.34831   0.62991   0.44530   0.00000  Uiso   1.00
O652   O     0.12015   0.41507   0.50167   0.00000  Uiso   1.00
C653   C     0.12632   0.40010   0.44425   0.00000  Uiso   1.00
H654   H     0.13851   0.42940   0.41616   0.00000  Uiso   1.00
H655   H     0.09516   0.38576   0.42613   0.00000  Uiso   1.00
H656   H     0.15186   0.37083   0.44357   0.00000  Uiso   1.00
O657   O     0.38631   0.41154   0.48987   0.00000  Uiso   1.00
C658   C     0.36711   0.40531   0.43499   0.00000  Uiso   1.00
H659   H     0.37310   0.43492   0.40368   0.00000  Uiso   1.00
H660   H     0.33096   0.40117   0.43987   0.00000  Uiso   1.00
H661   H     0.38022   0.37143   0.41590   0.00000  Uiso   1.00
O662   O     0.11365   0.58851   0.49079   0.00000  Uiso   1.00
C663   C     0.13299   0.59519   0.43606   0.00000  Uiso   1.00
H664   H     0.12774   0.56546   0.40467   0.00000  Uiso   1.00
H665   H     0.16903   0.60013   0.44126   0.00000  Uiso   1.00
H666   H     0.11938   0.62882   0.41690   0.00000  Uiso   1.00
O667   O     0.75000   0.42946   0.54759   0.00000  Uiso   1.00
O668   O     0.75000   0.57054   0.45241   0.00000  Uiso   1.00
O669   O     0.75000   0.57054   0.54759   0.00000  Uiso   1.00
O670   O     0.75000   0.42946   0.45241   0.00000  Uiso   1.00
C671   C     0.74975   0.40658   0.50001   0.00000  Uiso   1.00
C672   C     0.75028   0.59342   0.50001   0.00000  Uiso   1.00
O673   O     0.68513   0.50000   0.54760   0.00000  Uiso   1.00
O674   O     0.81487   0.50000   0.45240   0.00000  Uiso   1.00
O675   O     0.81487   0.50000   0.54760   0.00000  Uiso   1.00
O676   O     0.68513   0.50000   0.45240   0.00000  Uiso   1.00
C677   C     0.66429   0.50159   0.49992   0.00000  Uiso   1.00
C678   C     0.83571   0.49840   0.49991   0.00000  Uiso   1.00
Cu679  Cu    0.75000   0.50000   0.55636   0.00000  Uiso   1.00
Cu680  Cu    0.75000   0.50000   0.44364   0.00000  Uiso   1.00
N681   N     0.75000   0.50000   0.35894   0.00000  Uiso   1.00
N682   N     0.75000   0.50000   0.64106   0.00000  Uiso   1.00
C683   C     0.90522   0.54270   0.50244   0.00000  Uiso   1.00
C684   C     0.59479   0.45725   0.50207   0.00000  Uiso   1.00
C685   C     0.90806   0.45506   0.49253   0.00000  Uiso   1.00
C686   C     0.59193   0.54494   0.49289   0.00000  Uiso   1.00
C687   C     0.88385   0.49849   0.49922   0.00000  Uiso   1.00
C688   C     0.61615   0.50149   0.49923   0.00000  Uiso   1.00
C689   C     0.95470   0.45567   0.49507   0.00000  Uiso   1.00
C690   C     0.54530   0.54428   0.49532   0.00000  Uiso   1.00
C691   C     0.95191   0.54346   0.50492   0.00000  Uiso   1.00
C692   C     0.54809   0.45647   0.50465   0.00000  Uiso   1.00
C693   C     0.97654   0.49971   0.50183   0.00000  Uiso   1.00
C694   C     0.52346   0.50021   0.50183   0.00000  Uiso   1.00
C695   C     0.98049   0.41325   0.48920   0.00000  Uiso   1.00
C696   C     0.51950   0.58668   0.48949   0.00000  Uiso   1.00
C697   C     0.97497   0.58697   0.50611   0.00000  Uiso   1.00
C698   C     0.52506   0.41295   0.50570   0.00000  Uiso   1.00
C699   C     0.74992   0.35501   0.50001   0.00000  Uiso   1.00
C700   C     0.75011   0.64499   0.50001   0.00000  Uiso   1.00
O701   O     0.96457   0.37449   0.45923   0.00000  Uiso   1.00
C702   C     0.97099   0.38367   0.40011   0.00000  Uiso   1.00
H703   H     0.50683   0.38616   0.38953   0.00000  Uiso   1.00
H704   H     0.95356   0.41732   0.38599   0.00000  Uiso   1.00
H705   H     0.95692   0.35377   0.37491   0.00000  Uiso   1.00
O706   O     0.53529   0.62532   0.45914   0.00000  Uiso   1.00
C707   C     0.52907   0.61566   0.40009   0.00000  Uiso   1.00
H708   H     0.99326   0.61280   0.38939   0.00000  Uiso   1.00
H709   H     0.54679   0.58205   0.38637   0.00000  Uiso   1.00
H710   H     0.54300   0.64548   0.37463   0.00000  Uiso   1.00
O711   O     0.95383   0.63035   0.51757   0.00000  Uiso   1.00
C712   C     0.94920   0.63494   0.57760   0.00000  Uiso   1.00
H713   H     0.98128   0.62893   0.60040   0.00000  Uiso   1.00
H714   H     0.92425   0.60967   0.59456   0.00000  Uiso   1.00
H715   H     0.93732   0.33878   0.58743   0.00000  Uiso   1.00
O716   O     0.54624   0.36956   0.51700   0.00000  Uiso   1.00
C717   C     0.55105   0.36489   0.57700   0.00000  Uiso   1.00
H718   H     0.51905   0.37096   0.59999   0.00000  Uiso   1.00
H719   H     0.57610   0.39008   0.59386   0.00000  Uiso   1.00
H720   H     0.56288   0.66102   0.58672   0.00000  Uiso   1.00
O721   O     0.87987   0.58488   0.50263   0.00000  Uiso   1.00
C722   C     0.87351   0.60031   0.44543   0.00000  Uiso   1.00
H723   H     0.86081   0.57136   0.41725   0.00000  Uiso   1.00
H724   H     0.90471   0.61437   0.42707   0.00000  Uiso   1.00
H725   H     0.84831   0.62991   0.44530   0.00000  Uiso   1.00
O726   O     0.62015   0.41507   0.50167   0.00000  Uiso   1.00
C727   C     0.62632   0.40010   0.44425   0.00000  Uiso   1.00
H728   H     0.63851   0.42940   0.41616   0.00000  Uiso   1.00
H729   H     0.59516   0.38576   0.42613   0.00000  Uiso   1.00
H730   H     0.65186   0.37083   0.44357   0.00000  Uiso   1.00
O731   O     0.88631   0.41154   0.48987   0.00000  Uiso   1.00
C732   C     0.86711   0.40531   0.43499   0.00000  Uiso   1.00
H733   H     0.87310   0.43492   0.40368   0.00000  Uiso   1.00
H734   H     0.83096   0.40117   0.43987   0.00000  Uiso   1.00
H735   H     0.88022   0.37143   0.41590   0.00000  Uiso   1.00
O736   O     0.61365   0.58851   0.49079   0.00000  Uiso   1.00
C737   C     0.63299   0.59519   0.43606   0.00000  Uiso   1.00
H738   H     0.62774   0.56546   0.40467   0.00000  Uiso   1.00
H739   H     0.66903   0.60013   0.44126   0.00000  Uiso   1.00
H740   H     0.61938   0.62882   0.41690   0.00000  Uiso   1.00
O741   O     0.25000   0.76280   0.54759   0.00000  Uiso   1.00
O742   O     0.25000   0.90387   0.45241   0.00000  Uiso   1.00
O743   O     0.25000   0.90387   0.54759   0.00000  Uiso   1.00
O744   O     0.25000   0.76280   0.45241   0.00000  Uiso   1.00
C745   C     0.24975   0.73991   0.50001   0.00000  Uiso   1.00
C746   C     0.25028   0.92675   0.50001   0.00000  Uiso   1.00
O747   O     0.18513   0.83333   0.54760   0.00000  Uiso   1.00
O748   O     0.31487   0.83333   0.45240   0.00000  Uiso   1.00
O749   O     0.31487   0.83333   0.54760   0.00000  Uiso   1.00
O750   O     0.18513   0.83333   0.45240   0.00000  Uiso   1.00
C751   C     0.16429   0.83492   0.49992   0.00000  Uiso   1.00
C752   C     0.33571   0.83173   0.49991   0.00000  Uiso   1.00
Cu753  Cu    0.25000   0.83333   0.55636   0.00000  Uiso   1.00
Cu754  Cu    0.25000   0.83333   0.44364   0.00000  Uiso   1.00
N755   N     0.25000   0.83333   0.35894   0.00000  Uiso   1.00
N756   N     0.25000   0.83333   0.64106   0.00000  Uiso   1.00
C757   C     0.40522   0.87603   0.50244   0.00000  Uiso   1.00
C758   C     0.09479   0.79058   0.50207   0.00000  Uiso   1.00
C759   C     0.40806   0.78840   0.49253   0.00000  Uiso   1.00
C760   C     0.09193   0.87827   0.49289   0.00000  Uiso   1.00
C761   C     0.38385   0.83182   0.49922   0.00000  Uiso   1.00
C762   C     0.11615   0.83482   0.49923   0.00000  Uiso   1.00
C763   C     0.45470   0.78900   0.49507   0.00000  Uiso   1.00
C764   C     0.04530   0.87761   0.49532   0.00000  Uiso   1.00
C765   C     0.45191   0.87679   0.50492   0.00000  Uiso   1.00
C766   C     0.04809   0.78980   0.50465   0.00000  Uiso   1.00
C767   C     0.47654   0.83304   0.50183   0.00000  Uiso   1.00
C768   C     0.02346   0.83355   0.50183   0.00000  Uiso   1.00
C769   C     0.48049   0.74658   0.48920   0.00000  Uiso   1.00
C770   C     0.01950   0.92002   0.48949   0.00000  Uiso   1.00
C771   C     0.47497   0.92030   0.50611   0.00000  Uiso   1.00
C772   C     0.02506   0.74629   0.50570   0.00000  Uiso   1.00
C773   C     0.24992   0.68835   0.50001   0.00000  Uiso   1.00
C774   C     0.25011   0.97832   0.50001   0.00000  Uiso   1.00
O775   O     0.46457   0.70782   0.45923   0.00000  Uiso   1.00
C776   C     0.47099   0.71700   0.40011   0.00000  Uiso   1.00
H777   H     0.00683   0.71949   0.38953   0.00000  Uiso   1.00
H778   H     0.45356   0.75066   0.38599   0.00000  Uiso   1.00
H779   H     0.45692   0.68710   0.37491   0.00000  Uiso   1.00
O780   O     0.03529   0.95865   0.45914   0.00000  Uiso   1.00
C781   C     0.02907   0.94899   0.40009   0.00000  Uiso   1.00
H782   H     0.49326   0.94614   0.38939   0.00000  Uiso   1.00
H783   H     0.04679   0.91538   0.38637   0.00000  Uiso   1.00
H784   H     0.04300   0.97881   0.37463   0.00000  Uiso   1.00
O785   O     0.45383   0.96368   0.51757   0.00000  Uiso   1.00
C786   C     0.44920   0.96828   0.57760   0.00000  Uiso   1.00
H787   H     0.48128   0.96226   0.60040   0.00000  Uiso   1.00
H788   H     0.42425   0.94301   0.59456   0.00000  Uiso   1.00
H789   H     0.43732   0.67211   0.58743   0.00000  Uiso   1.00
O790   O     0.04624   0.70289   0.51700   0.00000  Uiso   1.00
C791   C     0.05105   0.69823   0.57700   0.00000  Uiso   1.00
H792   H     0.01905   0.70429   0.59999   0.00000  Uiso   1.00
H793   H     0.07610   0.72342   0.59386   0.00000  Uiso   1.00
H794   H     0.06288   0.99436   0.58672   0.00000  Uiso   1.00
O795   O     0.37987   0.91821   0.50263   0.00000  Uiso   1.00
C796   C     0.37351   0.93365   0.44543   0.00000  Uiso   1.00
H797   H     0.36081   0.90469   0.41725   0.00000  Uiso   1.00
H798   H     0.40471   0.94770   0.42707   0.00000  Uiso   1.00
H799   H     0.34831   0.96325   0.44530   0.00000  Uiso   1.00
O800   O     0.12015   0.74841   0.50167   0.00000  Uiso   1.00
C801   C     0.12632   0.73343   0.44425   0.00000  Uiso   1.00
H802   H     0.13851   0.76274   0.41616   0.00000  Uiso   1.00
H803   H     0.09516   0.71909   0.42613   0.00000  Uiso   1.00
H804   H     0.15186   0.70416   0.44357   0.00000  Uiso   1.00
O805   O     0.38631   0.74488   0.48987   0.00000  Uiso   1.00
C806   C     0.36711   0.73865   0.43499   0.00000  Uiso   1.00
H807   H     0.37310   0.76825   0.40368   0.00000  Uiso   1.00
H808   H     0.33096   0.73450   0.43987   0.00000  Uiso   1.00
H809   H     0.38022   0.70477   0.41590   0.00000  Uiso   1.00
O810   O     0.11365   0.92184   0.49079   0.00000  Uiso   1.00
C811   C     0.13299   0.92853   0.43606   0.00000  Uiso   1.00
H812   H     0.12774   0.89879   0.40467   0.00000  Uiso   1.00
H813   H     0.16903   0.93346   0.44126   0.00000  Uiso   1.00
H814   H     0.11938   0.96215   0.41690   0.00000  Uiso   1.00
O815   O     0.75000   0.76280   0.54759   0.00000  Uiso   1.00
O816   O     0.75000   0.90387   0.45241   0.00000  Uiso   1.00
O817   O     0.75000   0.90387   0.54759   0.00000  Uiso   1.00
O818   O     0.75000   0.76280   0.45241   0.00000  Uiso   1.00
C819   C     0.74975   0.73991   0.50001   0.00000  Uiso   1.00
C820   C     0.75028   0.92675   0.50001   0.00000  Uiso   1.00
O821   O     0.68513   0.83333   0.54760   0.00000  Uiso   1.00
O822   O     0.81487   0.83333   0.45240   0.00000  Uiso   1.00
O823   O     0.81487   0.83333   0.54760   0.00000  Uiso   1.00
O824   O     0.68513   0.83333   0.45240   0.00000  Uiso   1.00
C825   C     0.66429   0.83492   0.49992   0.00000  Uiso   1.00
C826   C     0.83571   0.83173   0.49991   0.00000  Uiso   1.00
Cu827  Cu    0.75000   0.83333   0.55636   0.00000  Uiso   1.00
Cu828  Cu    0.75000   0.83333   0.44364   0.00000  Uiso   1.00
N829   N     0.75000   0.83333   0.35894   0.00000  Uiso   1.00
N830   N     0.75000   0.83333   0.64106   0.00000  Uiso   1.00
C831   C     0.90522   0.87603   0.50244   0.00000  Uiso   1.00
C832   C     0.59479   0.79058   0.50207   0.00000  Uiso   1.00
C833   C     0.90806   0.78840   0.49253   0.00000  Uiso   1.00
C834   C     0.59193   0.87827   0.49289   0.00000  Uiso   1.00
C835   C     0.88385   0.83182   0.49922   0.00000  Uiso   1.00
C836   C     0.61615   0.83482   0.49923   0.00000  Uiso   1.00
C837   C     0.95470   0.78900   0.49507   0.00000  Uiso   1.00
C838   C     0.54530   0.87761   0.49532   0.00000  Uiso   1.00
C839   C     0.95191   0.87679   0.50492   0.00000  Uiso   1.00
C840   C     0.54809   0.78980   0.50465   0.00000  Uiso   1.00
C841   C     0.97654   0.83304   0.50183   0.00000  Uiso   1.00
C842   C     0.52346   0.83355   0.50183   0.00000  Uiso   1.00
C843   C     0.98049   0.74658   0.48920   0.00000  Uiso   1.00
C844   C     0.51950   0.92002   0.48949   0.00000  Uiso   1.00
C845   C     0.97497   0.92030   0.50611   0.00000  Uiso   1.00
C846   C     0.52506   0.74629   0.50570   0.00000  Uiso   1.00
C847   C     0.74992   0.68835   0.50001   0.00000  Uiso   1.00
C848   C     0.75011   0.97832   0.50001   0.00000  Uiso   1.00
O849   O     0.96457   0.70782   0.45923   0.00000  Uiso   1.00
C850   C     0.97099   0.71700   0.40011   0.00000  Uiso   1.00
H851   H     0.50683   0.71949   0.38953   0.00000  Uiso   1.00
H852   H     0.95356   0.75066   0.38599   0.00000  Uiso   1.00
H853   H     0.95692   0.68710   0.37491   0.00000  Uiso   1.00
O854   O     0.53529   0.95865   0.45914   0.00000  Uiso   1.00
C855   C     0.52907   0.94899   0.40009   0.00000  Uiso   1.00
H856   H     0.99326   0.94614   0.38939   0.00000  Uiso   1.00
H857   H     0.54679   0.91538   0.38637   0.00000  Uiso   1.00
H858   H     0.54300   0.97881   0.37463   0.00000  Uiso   1.00
O859   O     0.95383   0.96368   0.51757   0.00000  Uiso   1.00
C860   C     0.94920   0.96828   0.57760   0.00000  Uiso   1.00
H861   H     0.98128   0.96226   0.60040   0.00000  Uiso   1.00
H862   H     0.92425   0.94301   0.59456   0.00000  Uiso   1.00
H863   H     0.93732   0.67211   0.58743   0.00000  Uiso   1.00
O864   O     0.54624   0.70289   0.51700   0.00000  Uiso   1.00
C865   C     0.55105   0.69823   0.57700   0.00000  Uiso   1.00
H866   H     0.51905   0.70429   0.59999   0.00000  Uiso   1.00
H867   H     0.57610   0.72342   0.59386   0.00000  Uiso   1.00
H868   H     0.56288   0.99436   0.58672   0.00000  Uiso   1.00
O869   O     0.87987   0.91821   0.50263   0.00000  Uiso   1.00
C870   C     0.87351   0.93365   0.44543   0.00000  Uiso   1.00
H871   H     0.86081   0.90469   0.41725   0.00000  Uiso   1.00
H872   H     0.90471   0.94770   0.42707   0.00000  Uiso   1.00
H873   H     0.84831   0.96325   0.44530   0.00000  Uiso   1.00
O874   O     0.62015   0.74841   0.50167   0.00000  Uiso   1.00
C875   C     0.62632   0.73343   0.44425   0.00000  Uiso   1.00
H876   H     0.63851   0.76274   0.41616   0.00000  Uiso   1.00
H877   H     0.59516   0.71909   0.42613   0.00000  Uiso   1.00
H878   H     0.65186   0.70416   0.44357   0.00000  Uiso   1.00
O879   O     0.88631   0.74488   0.48987   0.00000  Uiso   1.00
C880   C     0.86711   0.73865   0.43499   0.00000  Uiso   1.00
H881   H     0.87310   0.76825   0.40368   0.00000  Uiso   1.00
H882   H     0.83096   0.73450   0.43987   0.00000  Uiso   1.00
H883   H     0.88022   0.70477   0.41590   0.00000  Uiso   1.00
O884   O     0.61365   0.92184   0.49079   0.00000  Uiso   1.00
C885   C     0.63299   0.92853   0.43606   0.00000  Uiso   1.00
H886   H     0.62774   0.89879   0.40467   0.00000  Uiso   1.00
H887   H     0.66903   0.93346   0.44126   0.00000  Uiso   1.00
H888   H     0.61938   0.96215   0.41690   0.00000  Uiso   1.00
O889   O     0.25000   0.09613   0.88092   0.00000  Uiso   1.00
O890   O     0.25000   0.23720   0.78575   0.00000  Uiso   1.00
O891   O     0.25000   0.23720   0.88092   0.00000  Uiso   1.00
O892   O     0.25000   0.09613   0.78575   0.00000  Uiso   1.00
C893   C     0.24975   0.07325   0.83335   0.00000  Uiso   1.00
C894   C     0.25028   0.26009   0.83334   0.00000  Uiso   1.00
O895   O     0.18513   0.16667   0.88093   0.00000  Uiso   1.00
O896   O     0.31487   0.16667   0.78573   0.00000  Uiso   1.00
O897   O     0.31487   0.16667   0.88093   0.00000  Uiso   1.00
O898   O     0.18513   0.16667   0.78573   0.00000  Uiso   1.00
C899   C     0.16429   0.16825   0.83325   0.00000  Uiso   1.00
C900   C     0.33571   0.16506   0.83325   0.00000  Uiso   1.00
Cu901  Cu    0.25000   0.16667   0.88969   0.00000  Uiso   1.00
Cu902  Cu    0.25000   0.16667   0.77697   0.00000  Uiso   1.00
N903   N     0.25000   0.16667   0.69227   0.00000  Uiso   1.00
N904   N     0.25000   0.16667   0.97439   0.00000  Uiso   1.00
C905   C     0.40522   0.20937   0.83577   0.00000  Uiso   1.00
C906   C     0.09479   0.12392   0.83540   0.00000  Uiso   1.00
C907   C     0.40806   0.12173   0.82586   0.00000  Uiso   1.00
C908   C     0.09193   0.21160   0.82622   0.00000  Uiso   1.00
C909   C     0.38385   0.16515   0.83255   0.00000  Uiso   1.00
C910   C     0.11615   0.16816   0.83257   0.00000  Uiso   1.00
C911   C     0.45470   0.12233   0.82841   0.00000  Uiso   1.00
C912   C     0.04530   0.21095   0.82865   0.00000  Uiso   1.00
C913   C     0.45191   0.21013   0.83825   0.00000  Uiso   1.00
C914   C     0.04809   0.12313   0.83798   0.00000  Uiso   1.00
C915   C     0.47654   0.16637   0.83516   0.00000  Uiso   1.00
C916   C     0.02346   0.16688   0.83517   0.00000  Uiso   1.00
C917   C     0.48049   0.07992   0.82254   0.00000  Uiso   1.00
C918   C     0.01950   0.25335   0.82282   0.00000  Uiso   1.00
C919   C     0.47497   0.25363   0.83944   0.00000  Uiso   1.00
C920   C     0.02506   0.07962   0.83903   0.00000  Uiso   1.00
C921   C     0.24992   0.02168   0.83335   0.00000  Uiso   1.00
C922   C     0.25011   0.31165   0.83334   0.00000  Uiso   1.00
O923   O     0.46457   0.04115   0.79256   0.00000  Uiso   1.00
C924   C     0.47099   0.05033   0.73344   0.00000  Uiso   1.00
H925   H     0.00683   0.05283   0.72286   0.00000  Uiso   1.00
H926   H     0.45356   0.08399   0.71932   0.00000  Uiso   1.00
H927   H     0.45692   0.02044   0.70825   0.00000  Uiso   1.00
O928   O     0.03529   0.29199   0.79248   0.00000  Uiso   1.00
C929   C     0.02907   0.28232   0.73342   0.00000  Uiso   1.00
H930   H     0.49326   0.27947   0.72273   0.00000  Uiso   1.00
H931   H     0.04679   0.24871   0.71970   0.00000  Uiso   1.00
H932   H     0.04300   0.31215   0.70796   0.00000  Uiso   1.00
O933   O     0.45383   0.29702   0.85090   0.00000  Uiso   1.00
C934   C     0.44920   0.30161   0.91093   0.00000  Uiso   1.00
H935   H     0.48128   0.29560   0.93373   0.00000  Uiso   1.00
H936   H     0.42425   0.27634   0.92789   0.00000  Uiso   1.00
H937   H     0.43732   0.00544   0.92076   0.00000  Uiso   1.00
O938   O     0.04624   0.03623   0.85033   0.00000  Uiso   1.00
C939   C     0.05105   0.03156   0.91033   0.00000  Uiso   1.00
H940   H     0.01905   0.03762   0.93332   0.00000  Uiso   1.00
H941   H     0.07610   0.05675   0.92719   0.00000  Uiso   1.00
H942   H     0.06288   0.32769   0.92005   0.00000  Uiso   1.00
O943   O     0.37987   0.25155   0.83596   0.00000  Uiso   1.00
C944   C     0.37351   0.26698   0.77877   0.00000  Uiso   1.00
H945   H     0.36081   0.23802   0.75059   0.00000  Uiso   1.00
H946   H     0.40471   0.28103   0.76040   0.00000  Uiso   1.00
H947   H     0.34831   0.29658   0.77863   0.00000  Uiso   1.00
O948   O     0.12015   0.08174   0.83500   0.00000  Uiso   1.00
C949   C     0.12632   0.06677   0.77759   0.00000  Uiso   1.00
H950   H     0.13851   0.09607   0.74949   0.00000  Uiso   1.00
H951   H     0.09516   0.05242   0.75946   0.00000  Uiso   1.00
H952   H     0.15186   0.03749   0.77690   0.00000  Uiso   1.00
O953   O     0.38631   0.07821   0.82320   0.00000  Uiso   1.00
C954   C     0.36711   0.07198   0.76833   0.00000  Uiso   1.00
H955   H     0.37310   0.10159   0.73702   0.00000  Uiso   1.00
H956   H     0.33096   0.06783   0.77320   0.00000  Uiso   1.00
H957   H     0.38022   0.03810   0.74923   0.00000  Uiso   1.00
O958   O     0.11365   0.25518   0.82412   0.00000  Uiso   1.00
C959   C     0.13299   0.26186   0.76940   0.00000  Uiso   1.00
H960   H     0.12774   0.23212   0.73800   0.00000  Uiso   1.00
H961   H     0.16903   0.26679   0.77459   0.00000  Uiso   1.00
H962   H     0.11938   0.29548   0.75023   0.00000  Uiso   1.00
O963   O     0.75000   0.09613   0.88092   0.00000  Uiso   1.00
O964   O     0.75000   0.23720   0.78575   0.00000  Uiso   1.00
O965   O     0.75000   0.23720   0.88092   0.00000  Uiso   1.00
O966   O     0.75000   0.09613   0.78575   0.00000  Uiso   1.00
C967   C     0.74975   0.07325   0.83335   0.00000  Uiso   1.00
C968   C     0.75028   0.26009   0.83334   0.00000  Uiso   1.00
O969   O     0.68513   0.16667   0.88093   0.00000  Uiso   1.00
O970   O     0.81487   0.16667   0.78573   0.00000  Uiso   1.00
O971   O     0.81487   0.16667   0.88093   0.00000  Uiso   1.00
O972   O     0.68513   0.16667   0.78573   0.00000  Uiso   1.00
C973   C     0.66429   0.16825   0.83325   0.00000  Uiso   1.00
C974   C     0.83571   0.16506   0.83325   0.00000  Uiso   1.00
Cu975  Cu    0.75000   0.16667   0.88969   0.00000  Uiso   1.00
Cu976  Cu    0.75000   0.16667   0.77697   0.00000  Uiso   1.00
N977   N     0.75000   0.16667   0.69227   0.00000  Uiso   1.00
N978   N     0.75000   0.16667   0.97439   0.00000  Uiso   1.00
C979   C     0.90522   0.20937   0.83577   0.00000  Uiso   1.00
C980   C     0.59479   0.12392   0.83540   0.00000  Uiso   1.00
C981   C     0.90806   0.12173   0.82586   0.00000  Uiso   1.00
C982   C     0.59193   0.21160   0.82622   0.00000  Uiso   1.00
C983   C     0.88385   0.16515   0.83255   0.00000  Uiso   1.00
C984   C     0.61615   0.16816   0.83257   0.00000  Uiso   1.00
C985   C     0.95470   0.12233   0.82841   0.00000  Uiso   1.00
C986   C     0.54530   0.21095   0.82865   0.00000  Uiso   1.00
C987   C     0.95191   0.21013   0.83825   0.00000  Uiso   1.00
C988   C     0.54809   0.12313   0.83798   0.00000  Uiso   1.00
C989   C     0.97654   0.16637   0.83516   0.00000  Uiso   1.00
C990   C     0.52346   0.16688   0.83517   0.00000  Uiso   1.00
C991   C     0.98049   0.07992   0.82254   0.00000  Uiso   1.00
C992   C     0.51950   0.25335   0.82282   0.00000  Uiso   1.00
C993   C     0.97497   0.25363   0.83944   0.00000  Uiso   1.00
C994   C     0.52506   0.07962   0.83903   0.00000  Uiso   1.00
C995   C     0.74992   0.02168   0.83335   0.00000  Uiso   1.00
C996   C     0.75011   0.31165   0.83334   0.00000  Uiso   1.00
O997   O     0.96457   0.04115   0.79256   0.00000  Uiso   1.00
C998   C     0.97099   0.05033   0.73344   0.00000  Uiso   1.00
H999   H     0.50683   0.05283   0.72286   0.00000  Uiso   1.00
H1000  H     0.95356   0.08399   0.71932   0.00000  Uiso   1.00
H1001  H     0.95692   0.02044   0.70825   0.00000  Uiso   1.00
O1002  O     0.53529   0.29199   0.79248   0.00000  Uiso   1.00
C1003  C     0.52907   0.28232   0.73342   0.00000  Uiso   1.00
H1004  H     0.99326   0.27947   0.72273   0.00000  Uiso   1.00
H1005  H     0.54679   0.24871   0.71970   0.00000  Uiso   1.00
H1006  H     0.54300   0.31215   0.70796   0.00000  Uiso   1.00
O1007  O     0.95383   0.29702   0.85090   0.00000  Uiso   1.00
C1008  C     0.94920   0.30161   0.91093   0.00000  Uiso   1.00
H1009  H     0.98128   0.29560   0.93373   0.00000  Uiso   1.00
H1010  H     0.92425   0.27634   0.92789   0.00000  Uiso   1.00
H1011  H     0.93732   0.00544   0.92076   0.00000  Uiso   1.00
O1012  O     0.54624   0.03623   0.85033   0.00000  Uiso   1.00
C1013  C     0.55105   0.03156   0.91033   0.00000  Uiso   1.00
H1014  H     0.51905   0.03762   0.93332   0.00000  Uiso   1.00
H1015  H     0.57610   0.05675   0.92719   0.00000  Uiso   1.00
H1016  H     0.56288   0.32769   0.92005   0.00000  Uiso   1.00
O1017  O     0.87987   0.25155   0.83596   0.00000  Uiso   1.00
C1018  C     0.87351   0.26698   0.77877   0.00000  Uiso   1.00
H1019  H     0.86081   0.23802   0.75059   0.00000  Uiso   1.00
H1020  H     0.90471   0.28103   0.76040   0.00000  Uiso   1.00
H1021  H     0.84831   0.29658   0.77863   0.00000  Uiso   1.00
O1022  O     0.62015   0.08174   0.83500   0.00000  Uiso   1.00
C1023  C     0.62632   0.06677   0.77759   0.00000  Uiso   1.00
H1024  H     0.63851   0.09607   0.74949   0.00000  Uiso   1.00
H1025  H     0.59516   0.05242   0.75946   0.00000  Uiso   1.00
H1026  H     0.65186   0.03749   0.77690   0.00000  Uiso   1.00
O1027  O     0.88631   0.07821   0.82320   0.00000  Uiso   1.00
C1028  C     0.86711   0.07198   0.76833   0.00000  Uiso   1.00
H1029  H     0.87310   0.10159   0.73702   0.00000  Uiso   1.00
H1030  H     0.83096   0.06783   0.77320   0.00000  Uiso   1.00
H1031  H     0.88022   0.03810   0.74923   0.00000  Uiso   1.00
O1032  O     0.61365   0.25518   0.82412   0.00000  Uiso   1.00
C1033  C     0.63299   0.26186   0.76940   0.00000  Uiso   1.00
H1034  H     0.62774   0.23212   0.73800   0.00000  Uiso   1.00
H1035  H     0.66903   0.26679   0.77459   0.00000  Uiso   1.00
H1036  H     0.61938   0.29548   0.75023   0.00000  Uiso   1.00
O1037  O     0.25000   0.42946   0.88092   0.00000  Uiso   1.00
O1038  O     0.25000   0.57054   0.78575   0.00000  Uiso   1.00
O1039  O     0.25000   0.57054   0.88092   0.00000  Uiso   1.00
O1040  O     0.25000   0.42946   0.78575   0.00000  Uiso   1.00
C1041  C     0.24975   0.40658   0.83335   0.00000  Uiso   1.00
C1042  C     0.25028   0.59342   0.83334   0.00000  Uiso   1.00
O1043  O     0.18513   0.50000   0.88093   0.00000  Uiso   1.00
O1044  O     0.31487   0.50000   0.78573   0.00000  Uiso   1.00
O1045  O     0.31487   0.50000   0.88093   0.00000  Uiso   1.00
O1046  O     0.18513   0.50000   0.78573   0.00000  Uiso   1.00
C1047  C     0.16429   0.50159   0.83325   0.00000  Uiso   1.00
C1048  C     0.33571   0.49840   0.83325   0.00000  Uiso   1.00
Cu1049 Cu    0.25000   0.50000   0.88969   0.00000  Uiso   1.00
Cu1050 Cu    0.25000   0.50000   0.77697   0.00000  Uiso   1.00
N1051  N     0.25000   0.50000   0.69227   0.00000  Uiso   1.00
N1052  N     0.25000   0.50000   0.97439   0.00000  Uiso   1.00
C1053  C     0.40522   0.54270   0.83577   0.00000  Uiso   1.00
C1054  C     0.09479   0.45725   0.83540   0.00000  Uiso   1.00
C1055  C     0.40806   0.45506   0.82586   0.00000  Uiso   1.00
C1056  C     0.09193   0.54494   0.82622   0.00000  Uiso   1.00
C1057  C     0.38385   0.49849   0.83255   0.00000  Uiso   1.00
C1058  C     0.11615   0.50149   0.83257   0.00000  Uiso   1.00
C1059  C     0.45470   0.45567   0.82841   0.00000  Uiso   1.00
C1060  C     0.04530   0.54428   0.82865   0.00000  Uiso   1.00
C1061  C     0.45191   0.54346   0.83825   0.00000  Uiso   1.00
C1062  C     0.04809   0.45647   0.83798   0.00000  Uiso   1.00
C1063  C     0.47654   0.49971   0.83516   0.00000  Uiso   1.00
C1064  C     0.02346   0.50021   0.83517   0.00000  Uiso   1.00
C1065  C     0.48049   0.41325   0.82254   0.00000  Uiso   1.00
C1066  C     0.01950   0.58668   0.82282   0.00000  Uiso   1.00
C1067  C     0.47497   0.58697   0.83944   0.00000  Uiso   1.00
C1068  C     0.02506   0.41295   0.83903   0.00000  Uiso   1.00
C1069  C     0.24992   0.35501   0.83335   0.00000  Uiso   1.00
C1070  C     0.25011   0.64499   0.83334   0.00000  Uiso   1.00
O1071  O     0.46457   0.37449   0.79256   0.00000  Uiso   1.00
C1072  C     0.47099   0.38367   0.73344   0.00000  Uiso   1.00
H1073  H     0.00683   0.38616   0.72286   0.00000  Uiso   1.00
H1074  H     0.45356   0.41732   0.71932   0.00000  Uiso   1.00
H1075  H     0.45692   0.35377   0.70825   0.00000  Uiso   1.00
O1076  O     0.03529   0.62532   0.79248   0.00000  Uiso   1.00
C1077  C     0.02907   0.61566   0.73342   0.00000  Uiso   1.00
H1078  H     0.49326   0.61280   0.72273   0.00000  Uiso   1.00
H1079  H     0.04679   0.58205   0.71970   0.00000  Uiso   1.00
H1080  H     0.04300   0.64548   0.70796   0.00000  Uiso   1.00
O1081  O     0.45383   0.63035   0.85090   0.00000  Uiso   1.00
C1082  C     0.44920   0.63494   0.91093   0.00000  Uiso   1.00
H1083  H     0.48128   0.62893   0.93373   0.00000  Uiso   1.00
H1084  H     0.42425   0.60967   0.92789   0.00000  Uiso   1.00
H1085  H     0.43732   0.33878   0.92076   0.00000  Uiso   1.00
O1086  O     0.04624   0.36956   0.85033   0.00000  Uiso   1.00
C1087  C     0.05105   0.36489   0.91033   0.00000  Uiso   1.00
H1088  H     0.01905   0.37096   0.93332   0.00000  Uiso   1.00
H1089  H     0.07610   0.39008   0.92719   0.00000  Uiso   1.00
H1090  H     0.06288   0.66102   0.92005   0.00000  Uiso   1.00
O1091  O     0.37987   0.58488   0.83596   0.00000  Uiso   1.00
C1092  C     0.37351   0.60031   0.77877   0.00000  Uiso   1.00
H1093  H     0.36081   0.57136   0.75059   0.00000  Uiso   1.00
H1094  H     0.40471   0.61437   0.76040   0.00000  Uiso   1.00
H1095  H     0.34831   0.62991   0.77863   0.00000  Uiso   1.00
O1096  O     0.12015   0.41507   0.83500   0.00000  Uiso   1.00
C1097  C     0.12632   0.40010   0.77759   0.00000  Uiso   1.00
H1098  H     0.13851   0.42940   0.74949   0.00000  Uiso   1.00
H1099  H     0.09516   0.38576   0.75946   0.00000  Uiso   1.00
H1100  H     0.15186   0.37083   0.77690   0.00000  Uiso   1.00
O1101  O     0.38631   0.41154   0.82320   0.00000  Uiso   1.00
C1102  C     0.36711   0.40531   0.76833   0.00000  Uiso   1.00
H1103  H     0.37310   0.43492   0.73702   0.00000  Uiso   1.00
H1104  H     0.33096   0.40117   0.77320   0.00000  Uiso   1.00
H1105  H     0.38022   0.37143   0.74923   0.00000  Uiso   1.00
O1106  O     0.11365   0.58851   0.82412   0.00000  Uiso   1.00
C1107  C     0.13299   0.59519   0.76940   0.00000  Uiso   1.00
H1108  H     0.12774   0.56546   0.73800   0.00000  Uiso   1.00
H1109  H     0.16903   0.60013   0.77459   0.00000  Uiso   1.00
H1110  H     0.11938   0.62882   0.75023   0.00000  Uiso   1.00
O1111  O     0.75000   0.42946   0.88092   0.00000  Uiso   1.00
O1112  O     0.75000   0.57054   0.78575   0.00000  Uiso   1.00
O1113  O     0.75000   0.57054   0.88092   0.00000  Uiso   1.00
O1114  O     0.75000   0.42946   0.78575   0.00000  Uiso   1.00
C1115  C     0.74975   0.40658   0.83335   0.00000  Uiso   1.00
C1116  C     0.75028   0.59342   0.83334   0.00000  Uiso   1.00
O1117  O     0.68513   0.50000   0.88093   0.00000  Uiso   1.00
O1118  O     0.81487   0.50000   0.78573   0.00000  Uiso   1.00
O1119  O     0.81487   0.50000   0.88093   0.00000  Uiso   1.00
O1120  O     0.68513   0.50000   0.78573   0.00000  Uiso   1.00
C1121  C     0.66429   0.50159   0.83325   0.00000  Uiso   1.00
C1122  C     0.83571   0.49840   0.83325   0.00000  Uiso   1.00
Cu1123 Cu    0.75000   0.50000   0.88969   0.00000  Uiso   1.00
Cu1124 Cu    0.75000   0.50000   0.77697   0.00000  Uiso   1.00
N1125  N     0.75000   0.50000   0.69227   0.00000  Uiso   1.00
N1126  N     0.75000   0.50000   0.97439   0.00000  Uiso   1.00
C1127  C     0.90522   0.54270   0.83577   0.00000  Uiso   1.00
C1128  C     0.59479   0.45725   0.83540   0.00000  Uiso   1.00
C1129  C     0.90806   0.45506   0.82586   0.00000  Uiso   1.00
C1130  C     0.59193   0.54494   0.82622   0.00000  Uiso   1.00
C1131  C     0.88385   0.49849   0.83255   0.00000  Uiso   1.00
C1132  C     0.61615   0.50149   0.83257   0.00000  Uiso   1.00
C1133  C     0.95470   0.45567   0.82841   0.00000  Uiso   1.00
C1134  C     0.54530   0.54428   0.82865   0.00000  Uiso   1.00
C1135  C     0.95191   0.54346   0.83825   0.00000  Uiso   1.00
C1136  C     0.54809   0.45647   0.83798   0.00000  Uiso   1.00
C1137  C     0.97654   0.49971   0.83516   0.00000  Uiso   1.00
C1138  C     0.52346   0.50021   0.83517   0.00000  Uiso   1.00
C1139  C     0.98049   0.41325   0.82254   0.00000  Uiso   1.00
C1140  C     0.51950   0.58668   0.82282   0.00000  Uiso   1.00
C1141  C     0.97497   0.58697   0.83944   0.00000  Uiso   1.00
C1142  C     0.52506   0.41295   0.83903   0.00000  Uiso   1.00
C1143  C     0.74992   0.35501   0.83335   0.00000  Uiso   1.00
C1144  C     0.75011   0.64499   0.83334   0.00000  Uiso   1.00
O1145  O     0.96457   0.37449   0.79256   0.00000  Uiso   1.00
C1146  C     0.97099   0.38367   0.73344   0.00000  Uiso   1.00
H1147  H     0.50683   0.38616   0.72286   0.00000  Uiso   1.00
H1148  H     0.95356   0.41732   0.71932   0.00000  Uiso   1.00
H1149  H     0.95692   0.35377   0.70825   0.00000  Uiso   1.00
O1150  O     0.53529   0.62532   0.79248   0.00000  Uiso   1.00
C1151  C     0.52907   0.61566   0.73342   0.00000  Uiso   1.00
H1152  H     0.99326   0.61280   0.72273   0.00000  Uiso   1.00
H1153  H     0.54679   0.58205   0.71970   0.00000  Uiso   1.00
H1154  H     0.54300   0.64548   0.70796   0.00000  Uiso   1.00
O1155  O     0.95383   0.63035   0.85090   0.00000  Uiso   1.00
C1156  C     0.94920   0.63494   0.91093   0.00000  Uiso   1.00
H1157  H     0.98128   0.62893   0.93373   0.00000  Uiso   1.00
H1158  H     0.92425   0.60967   0.92789   0.00000  Uiso   1.00
H1159  H     0.93732   0.33878   0.92076   0.00000  Uiso   1.00
O1160  O     0.54624   0.36956   0.85033   0.00000  Uiso   1.00
C1161  C     0.55105   0.36489   0.91033   0.00000  Uiso   1.00
H1162  H     0.51905   0.37096   0.93332   0.00000  Uiso   1.00
H1163  H     0.57610   0.39008   0.92719   0.00000  Uiso   1.00
H1164  H     0.56288   0.66102   0.92005   0.00000  Uiso   1.00
O1165  O     0.87987   0.58488   0.83596   0.00000  Uiso   1.00
C1166  C     0.87351   0.60031   0.77877   0.00000  Uiso   1.00
H1167  H     0.86081   0.57136   0.75059   0.00000  Uiso   1.00
H1168  H     0.90471   0.61437   0.76040   0.00000  Uiso   1.00
H1169  H     0.84831   0.62991   0.77863   0.00000  Uiso   1.00
O1170  O     0.62015   0.41507   0.83500   0.00000  Uiso   1.00
C1171  C     0.62632   0.40010   0.77759   0.00000  Uiso   1.00
H1172  H     0.63851   0.42940   0.74949   0.00000  Uiso   1.00
H1173  H     0.59516   0.38576   0.75946   0.00000  Uiso   1.00
H1174  H     0.65186   0.37083   0.77690   0.00000  Uiso   1.00
O1175  O     0.88631   0.41154   0.82320   0.00000  Uiso   1.00
C1176  C     0.86711   0.40531   0.76833   0.00000  Uiso   1.00
H1177  H     0.87310   0.43492   0.73702   0.00000  Uiso   1.00
H1178  H     0.83096   0.40117   0.77320   0.00000  Uiso   1.00
H1179  H     0.88022   0.37143   0.74923   0.00000  Uiso   1.00
O1180  O     0.61365   0.58851   0.82412   0.00000  Uiso   1.00
C1181  C     0.63299   0.59519   0.76940   0.00000  Uiso   1.00
H1182  H     0.62774   0.56546   0.73800   0.00000  Uiso   1.00
H1183  H     0.66903   0.60013   0.77459   0.00000  Uiso   1.00
H1184  H     0.61938   0.62882   0.75023   0.00000  Uiso   1.00
O1185  O     0.25000   0.76280   0.88092   0.00000  Uiso   1.00
O1186  O     0.25000   0.90387   0.78575   0.00000  Uiso   1.00
O1187  O     0.25000   0.90387   0.88092   0.00000  Uiso   1.00
O1188  O     0.25000   0.76280   0.78575   0.00000  Uiso   1.00
C1189  C     0.24975   0.73991   0.83335   0.00000  Uiso   1.00
C1190  C     0.25028   0.92675   0.83334   0.00000  Uiso   1.00
O1191  O     0.18513   0.83333   0.88093   0.00000  Uiso   1.00
O1192  O     0.31487   0.83333   0.78573   0.00000  Uiso   1.00
O1193  O     0.31487   0.83333   0.88093   0.00000  Uiso   1.00
O1194  O     0.18513   0.83333   0.78573   0.00000  Uiso   1.00
C1195  C     0.16429   0.83492   0.83325   0.00000  Uiso   1.00
C1196  C     0.33571   0.83173   0.83325   0.00000  Uiso   1.00
Cu1197 Cu    0.25000   0.83333   0.88969   0.00000  Uiso   1.00
Cu1198 Cu    0.25000   0.83333   0.77697   0.00000  Uiso   1.00
N1199  N     0.25000   0.83333   0.69227   0.00000  Uiso   1.00
N1200  N     0.25000   0.83333   0.97439   0.00000  Uiso   1.00
C1201  C     0.40522   0.87603   0.83577   0.00000  Uiso   1.00
C1202  C     0.09479   0.79058   0.83540   0.00000  Uiso   1.00
C1203  C     0.40806   0.78840   0.82586   0.00000  Uiso   1.00
C1204  C     0.09193   0.87827   0.82622   0.00000  Uiso   1.00
C1205  C     0.38385   0.83182   0.83255   0.00000  Uiso   1.00
C1206  C     0.11615   0.83482   0.83257   0.00000  Uiso   1.00
C1207  C     0.45470   0.78900   0.82841   0.00000  Uiso   1.00
C1208  C     0.04530   0.87761   0.82865   0.00000  Uiso   1.00
C1209  C     0.45191   0.87679   0.83825   0.00000  Uiso   1.00
C1210  C     0.04809   0.78980   0.83798   0.00000  Uiso   1.00
C1211  C     0.47654   0.83304   0.83516   0.00000  Uiso   1.00
C1212  C     0.02346   0.83355   0.83517   0.00000  Uiso   1.00
C1213  C     0.48049   0.74658   0.82254   0.00000  Uiso   1.00
C1214  C     0.01950   0.92002   0.82282   0.00000  Uiso   1.00
C1215  C     0.47497   0.92030   0.83944   0.00000  Uiso   1.00
C1216  C     0.02506   0.74629   0.83903   0.00000  Uiso   1.00
C1217  C     0.24992   0.68835   0.83335   0.00000  Uiso   1.00
C1218  C     0.25011   0.97832   0.83334   0.00000  Uiso   1.00
O1219  O     0.46457   0.70782   0.79256   0.00000  Uiso   1.00
C1220  C     0.47099   0.71700   0.73344   0.00000  Uiso   1.00
H1221  H     0.00683   0.71949   0.72286   0.00000  Uiso   1.00
H1222  H     0.45356   0.75066   0.71932   0.00000  Uiso   1.00
H1223  H     0.45692   0.68710   0.70825   0.00000  Uiso   1.00
O1224  O     0.03529   0.95865   0.79248   0.00000  Uiso   1.00
C1225  C     0.02907   0.94899   0.73342   0.00000  Uiso   1.00
H1226  H     0.49326   0.94614   0.72273   0.00000  Uiso   1.00
H1227  H     0.04679   0.91538   0.71970   0.00000  Uiso   1.00
H1228  H     0.04300   0.97881   0.70796   0.00000  Uiso   1.00
O1229  O     0.45383   0.96368   0.85090   0.00000  Uiso   1.00
C1230  C     0.44920   0.96828   0.91093   0.00000  Uiso   1.00
H1231  H     0.48128   0.96226   0.93373   0.00000  Uiso   1.00
H1232  H     0.42425   0.94301   0.92789   0.00000  Uiso   1.00
H1233  H     0.43732   0.67211   0.92076   0.00000  Uiso   1.00
O1234  O     0.04624   0.70289   0.85033   0.00000  Uiso   1.00
C1235  C     0.05105   0.69823   0.91033   0.00000  Uiso   1.00
H1236  H     0.01905   0.70429   0.93332   0.00000  Uiso   1.00
H1237  H     0.07610   0.72342   0.92719   0.00000  Uiso   1.00
H1238  H     0.06288   0.99436   0.92005   0.00000  Uiso   1.00
O1239  O     0.37987   0.91821   0.83596   0.00000  Uiso   1.00
C1240  C     0.37351   0.93365   0.77877   0.00000  Uiso   1.00
H1241  H     0.36081   0.90469   0.75059   0.00000  Uiso   1.00
H1242  H     0.40471   0.94770   0.76040   0.00000  Uiso   1.00
H1243  H     0.34831   0.96325   0.77863   0.00000  Uiso   1.00
O1244  O     0.12015   0.74841   0.83500   0.00000  Uiso   1.00
C1245  C     0.12632   0.73343   0.77759   0.00000  Uiso   1.00
H1246  H     0.13851   0.76274   0.74949   0.00000  Uiso   1.00
H1247  H     0.09516   0.71909   0.75946   0.00000  Uiso   1.00
H1248  H     0.15186   0.70416   0.77690   0.00000  Uiso   1.00
O1249  O     0.38631   0.74488   0.82320   0.00000  Uiso   1.00
C1250  C     0.36711   0.73865   0.76833   0.00000  Uiso   1.00
H1251  H     0.37310   0.76825   0.73702   0.00000  Uiso   1.00
H1252  H     0.33096   0.73450   0.77320   0.00000  Uiso   1.00
H1253  H     0.38022   0.70477   0.74923   0.00000  Uiso   1.00
O1254  O     0.11365   0.92184   0.82412   0.00000  Uiso   1.00
C1255  C     0.13299   0.92853   0.76940   0.00000  Uiso   1.00
H1256  H     0.12774   0.89879   0.73800   0.00000  Uiso   1.00
H1257  H     0.16903   0.93346   0.77459   0.00000  Uiso   1.00
H1258  H     0.11938   0.96215   0.75023   0.00000  Uiso   1.00
O1259  O     0.75000   0.76280   0.88092   0.00000  Uiso   1.00
O1260  O     0.75000   0.90387   0.78575   0.00000  Uiso   1.00
O1261  O     0.75000   0.90387   0.88092   0.00000  Uiso   1.00
O1262  O     0.75000   0.76280   0.78575   0.00000  Uiso   1.00
C1263  C     0.74975   0.73991   0.83335   0.00000  Uiso   1.00
C1264  C     0.75028   0.92675   0.83334   0.00000  Uiso   1.00
O1265  O     0.68513   0.83333   0.88093   0.00000  Uiso   1.00
O1266  O     0.81487   0.83333   0.78573   0.00000  Uiso   1.00
O1267  O     0.81487   0.83333   0.88093   0.00000  Uiso   1.00
O1268  O     0.68513   0.83333   0.78573   0.00000  Uiso   1.00
C1269  C     0.66429   0.83492   0.83325   0.00000  Uiso   1.00
C1270  C     0.83571   0.83173   0.83325   0.00000  Uiso   1.00
Cu1271 Cu    0.75000   0.83333   0.88969   0.00000  Uiso   1.00
Cu1272 Cu    0.75000   0.83333   0.77697   0.00000  Uiso   1.00
N1273  N     0.75000   0.83333   0.69227   0.00000  Uiso   1.00
N1274  N     0.75000   0.83333   0.97439   0.00000  Uiso   1.00
C1275  C     0.90522   0.87603   0.83577   0.00000  Uiso   1.00
C1276  C     0.59479   0.79058   0.83540   0.00000  Uiso   1.00
C1277  C     0.90806   0.78840   0.82586   0.00000  Uiso   1.00
C1278  C     0.59193   0.87827   0.82622   0.00000  Uiso   1.00
C1279  C     0.88385   0.83182   0.83255   0.00000  Uiso   1.00
C1280  C     0.61615   0.83482   0.83257   0.00000  Uiso   1.00
C1281  C     0.95470   0.78900   0.82841   0.00000  Uiso   1.00
C1282  C     0.54530   0.87761   0.82865   0.00000  Uiso   1.00
C1283  C     0.95191   0.87679   0.83825   0.00000  Uiso   1.00
C1284  C     0.54809   0.78980   0.83798   0.00000  Uiso   1.00
C1285  C     0.97654   0.83304   0.83516   0.00000  Uiso   1.00
C1286  C     0.52346   0.83355   0.83517   0.00000  Uiso   1.00
C1287  C     0.98049   0.74658   0.82254   0.00000  Uiso   1.00
C1288  C     0.51950   0.92002   0.82282   0.00000  Uiso   1.00
C1289  C     0.97497   0.92030   0.83944   0.00000  Uiso   1.00
C1290  C     0.52506   0.74629   0.83903   0.00000  Uiso   1.00
C1291  C     0.74992   0.68835   0.83335   0.00000  Uiso   1.00
C1292  C     0.75011   0.97832   0.83334   0.00000  Uiso   1.00
O1293  O     0.96457   0.70782   0.79256   0.00000  Uiso   1.00
C1294  C     0.97099   0.71700   0.73344   0.00000  Uiso   1.00
H1295  H     0.50683   0.71949   0.72286   0.00000  Uiso   1.00
H1296  H     0.95356   0.75066   0.71932   0.00000  Uiso   1.00
H1297  H     0.95692   0.68710   0.70825   0.00000  Uiso   1.00
O1298  O     0.53529   0.95865   0.79248   0.00000  Uiso   1.00
C1299  C     0.52907   0.94899   0.73342   0.00000  Uiso   1.00
H1300  H     0.99326   0.94614   0.72273   0.00000  Uiso   1.00
H1301  H     0.54679   0.91538   0.71970   0.00000  Uiso   1.00
H1302  H     0.54300   0.97881   0.70796   0.00000  Uiso   1.00
O1303  O     0.95383   0.96368   0.85090   0.00000  Uiso   1.00
C1304  C     0.94920   0.96828   0.91093   0.00000  Uiso   1.00
H1305  H     0.98128   0.96226   0.93373   0.00000  Uiso   1.00
H1306  H     0.92425   0.94301   0.92789   0.00000  Uiso   1.00
H1307  H     0.93732   0.67211   0.92076   0.00000  Uiso   1.00
O1308  O     0.54624   0.70289   0.85033   0.00000  Uiso   1.00
C1309  C     0.55105   0.69823   0.91033   0.00000  Uiso   1.00
H1310  H     0.51905   0.70429   0.93332   0.00000  Uiso   1.00
H1311  H     0.57610   0.72342   0.92719   0.00000  Uiso   1.00
H1312  H     0.56288   0.99436   0.92005   0.00000  Uiso   1.00
O1313  O     0.87987   0.91821   0.83596   0.00000  Uiso   1.00
C1314  C     0.87351   0.93365   0.77877   0.00000  Uiso   1.00
H1315  H     0.86081   0.90469   0.75059   0.00000  Uiso   1.00
H1316  H     0.90471   0.94770   0.76040   0.00000  Uiso   1.00
H1317  H     0.84831   0.96325   0.77863   0.00000  Uiso   1.00
O1318  O     0.62015   0.74841   0.83500   0.00000  Uiso   1.00
C1319  C     0.62632   0.73343   0.77759   0.00000  Uiso   1.00
H1320  H     0.63851   0.76274   0.74949   0.00000  Uiso   1.00
H1321  H     0.59516   0.71909   0.75946   0.00000  Uiso   1.00
H1322  H     0.65186   0.70416   0.77690   0.00000  Uiso   1.00
O1323  O     0.88631   0.74488   0.82320   0.00000  Uiso   1.00
C1324  C     0.86711   0.73865   0.76833   0.00000  Uiso   1.00
H1325  H     0.87310   0.76825   0.73702   0.00000  Uiso   1.00
H1326  H     0.83096   0.73450   0.77320   0.00000  Uiso   1.00
H1327  H     0.88022   0.70477   0.74923   0.00000  Uiso   1.00
O1328  O     0.61365   0.92184   0.82412   0.00000  Uiso   1.00
C1329  C     0.63299   0.92853   0.76940   0.00000  Uiso   1.00
H1330  H     0.62774   0.89879   0.73800   0.00000  Uiso   1.00
H1331  H     0.66903   0.93346   0.77459   0.00000  Uiso   1.00
H1332  H     0.61938   0.96215   0.75023   0.00000  Uiso   1.00
loop_
_geom_bond_atom_site_label_1
_geom_bond_atom_site_label_2
_geom_bond_distance
_geom_bond_site_symmetry_2
_ccdc_geom_bond_type
O1     C5      1.278   .     A
O1     Cu13    1.969   .     S
O2     C6      1.279   .     A
O2     Cu14    1.969   .     S
O3     Cu13    1.969   .     S
O3     C6      1.278   .     A
O4     C5      1.279   .     A
O4     Cu14    1.969   .     S
C5     C33     1.431   .     S
C6     C34     1.431   .     S
O7     C11     1.277   .     A
O7     Cu13    1.967   .     S
O8     C12     1.274   .     A
O8     Cu14    1.967   .     S
O9     C12     1.277   .     A
O9     Cu13    1.967   .     S
O10    C11     1.274   .     A
O10    Cu14    1.967   .     S
C11    C22     1.452   .     S
C12    C21     1.452   .     S
Cu13   Cu14    2.628   .     S
Cu13   N16     1.975   .     S
Cu14   N15     1.975   .     S
N15    N904    1.194   1_554 S
N16    N459    1.194   .     S
C17    O55     1.386   .     S
C17    C25     1.410   .     A
C17    C21     1.400   .     A
C18    C22     1.400   .     A
C18    O60     1.386   .     S
C18    C26     1.410   .     A
C19    C23     1.408   .     A
C19    C21     1.406   .     A
C19    O65     1.387   .     S
C20    O70     1.388   .     S
C20    C22     1.406   .     A
C20    C24     1.408   .     A
C23    C27     1.409   .     A
C23    C29     1.405   .     A
C24    C30     1.405   .     A
C24    C28     1.409   .     A
C25    C31     1.406   .     A
C25    C27     1.413   .     A
C26    C32     1.405   .     A
C26    C28     1.413   .     A
C27    C102    1.415   .     S
C28    C101    1.415   1_455 S
C29    O35     1.377   .     S
C29    C106    1.398   .     S
C30    O40     1.378   .     S
C30    C105    1.398   1_455 S
C31    O45     1.378   .     S
C31    C104    1.398   .     S
C32    O50     1.378   .     S
C32    C103    1.398   1_455 S
C33    C330    1.204   1_545 S
C34    C181    1.204   .     S
O35    C36     1.416   .     S
C36    H38     1.113   .     S
C36    H39     1.108   .     S
C36    H111    1.112   .     S
H37    C110    1.112   1_455 S
O40    C41     1.416   .     S
C41    H43     1.113   .     S
C41    H44     1.108   .     S
C41    H116    1.113   1_455 S
H42    C115    1.113   .     S
O45    C46     1.412   .     S
C46    H48     1.111   .     S
C46    H47     1.114   .     S
C46    H197    1.109   .     S
H49    C342    1.109   1_545 S
O50    C51     1.412   .     S
C51    H52     1.114   .     S
C51    H53     1.111   .     S
C51    H350    1.109   1_545 S
H54    C199    1.109   .     S
O55    C56     1.413   .     S
C56    H59     1.108   .     S
C56    H58     1.111   .     S
C56    H57     1.112   .     S
O60    C61     1.413   .     S
C61    H64     1.109   .     S
C61    H62     1.112   .     S
C61    H63     1.111   .     S
O65    C66     1.416   .     S
C66    H68     1.104   .     S
C66    H69     1.106   .     S
C66    H67     1.117   .     S
O70    C71     1.417   .     S
C71    H74     1.106   .     S
C71    H72     1.117   .     S
C71    H73     1.105   .     S
O75    C79     1.278   .     A
O75    Cu87    1.969   .     S
O76    C80     1.279   .     A
O76    Cu88    1.969   .     S
O77    Cu87    1.969   .     S
O77    C80     1.278   .     A
O78    C79     1.279   .     A
O78    Cu88    1.969   .     S
C79    C107    1.431   .     S
C80    C108    1.431   .     S
O81    C85     1.277   .     A
O81    Cu87    1.967   .     S
O82    C86     1.274   .     A
O82    Cu88    1.967   .     S
O83    C86     1.277   .     A
O83    Cu87    1.967   .     S
O84    C85     1.274   .     A
O84    Cu88    1.967   .     S
C85    C96     1.452   .     S
C86    C95     1.452   .     S
Cu87   Cu88    2.628   .     S
Cu87   N90     1.975   .     S
Cu88   N89     1.975   .     S
N89    N978    1.194   1_554 S
N90    N533    1.194   .     S
C91    O129    1.386   .     S
C91    C99     1.410   .     A
C91    C95     1.400   .     A
C92    C96     1.400   .     A
C92    O134    1.386   .     S
C92    C100    1.410   .     A
C93    C97     1.408   .     A
C93    C95     1.406   .     A
C93    O139    1.387   .     S
C94    O144    1.388   .     S
C94    C96     1.406   .     A
C94    C98     1.408   .     A
C97    C101    1.409   .     A
C97    C103    1.405   .     A
C98    C104    1.405   .     A
C98    C102    1.409   .     A
C99    C105    1.406   .     A
C99    C101    1.413   .     A
C100   C106    1.405   .     A
C100   C102    1.413   .     A
C101   C28     1.415   1_655 S
C103   O109    1.377   .     S
C103   C32     1.398   1_655 S
C104   O114    1.378   .     S
C105   O119    1.378   .     S
C105   C30     1.398   1_655 S
C106   O124    1.378   .     S
C107   C404    1.204   1_545 S
C108   C255    1.204   .     S
O109   C110    1.416   .     S
C110   H112    1.113   .     S
C110   H113    1.108   .     S
C110   H37     1.112   1_655 S
O114   C115    1.416   .     S
C115   H117    1.113   .     S
C115   H118    1.108   .     S
H116   C41     1.113   1_655 S
O119   C120    1.412   .     S
C120   H122    1.111   .     S
C120   H121    1.114   .     S
C120   H271    1.109   .     S
H123   C416    1.109   1_545 S
O124   C125    1.412   .     S
C125   H126    1.114   .     S
C125   H127    1.111   .     S
C125   H424    1.109   1_545 S
H128   C273    1.109   .     S
O129   C130    1.413   .     S
C130   H133    1.108   .     S
C130   H132    1.111   .     S
C130   H131    1.112   .     S
O134   C135    1.413   .     S
C135   H138    1.109   .     S
C135   H136    1.112   .     S
C135   H137    1.111   .     S
O139   C140    1.416   .     S
C140   H142    1.104   .     S
C140   H143    1.106   .     S
C140   H141    1.117   .     S
O144   C145    1.417   .     S
C145   H148    1.106   .     S
C145   H146    1.117   .     S
C145   H147    1.105   .     S
O149   C153    1.278   .     A
O149   Cu161   1.969   .     S
O150   C154    1.279   .     A
O150   Cu162   1.969   .     S
O151   Cu161   1.969   .     S
O151   C154    1.278   .     A
O152   C153    1.279   .     A
O152   Cu162   1.969   .     S
C153   C181    1.431   .     S
C154   C182    1.431   .     S
O155   C159    1.277   .     A
O155   Cu161   1.967   .     S
O156   C160    1.274   .     A
O156   Cu162   1.967   .     S
O157   C160    1.277   .     A
O157   Cu161   1.967   .     S
O158   C159    1.274   .     A
O158   Cu162   1.967   .     S
C159   C170    1.452   .     S
C160   C169    1.452   .     S
Cu161  Cu162   2.628   .     S
Cu161  N164    1.975   .     S
Cu162  N163    1.975   .     S
N163   N1052   1.194   1_554 S
N164   N607    1.194   .     S
C165   O203    1.386   .     S
C165   C173    1.410   .     A
C165   C169    1.400   .     A
C166   C170    1.400   .     A
C166   O208    1.386   .     S
C166   C174    1.410   .     A
C167   C171    1.408   .     A
C167   C169    1.406   .     A
C167   O213    1.387   .     S
C168   O218    1.388   .     S
C168   C170    1.406   .     A
C168   C172    1.408   .     A
C171   C175    1.409   .     A
C171   C177    1.405   .     A
C172   C178    1.405   .     A
C172   C176    1.409   .     A
C173   C179    1.406   .     A
C173   C175    1.413   .     A
C174   C180    1.405   .     A
C174   C176    1.413   .     A
C175   C250    1.415   .     S
C176   C249    1.415   1_455 S
C177   O183    1.377   .     S
C177   C254    1.398   .     S
C178   O188    1.378   .     S
C178   C253    1.398   1_455 S
C179   O193    1.378   .     S
C179   C252    1.398   .     S
C180   O198    1.378   .     S
C180   C251    1.398   1_455 S
C182   C329    1.204   .     S
O183   C184    1.416   .     S
C184   H186    1.113   .     S
C184   H187    1.108   .     S
C184   H259    1.112   .     S
H185   C258    1.112   1_455 S
O188   C189    1.416   .     S
C189   H191    1.113   .     S
C189   H192    1.108   .     S
C189   H264    1.113   1_455 S
H190   C263    1.113   .     S
O193   C194    1.412   .     S
C194   H196    1.111   .     S
C194   H195    1.114   .     S
C194   H345    1.109   .     S
O198   C199    1.412   .     S
C199   H200    1.114   .     S
C199   H201    1.111   .     S
H202   C347    1.109   .     S
O203   C204    1.413   .     S
C204   H207    1.108   .     S
C204   H206    1.111   .     S
C204   H205    1.112   .     S
O208   C209    1.413   .     S
C209   H212    1.109   .     S
C209   H210    1.112   .     S
C209   H211    1.111   .     S
O213   C214    1.416   .     S
C214   H216    1.104   .     S
C214   H217    1.106   .     S
C214   H215    1.117   .     S
O218   C219    1.417   .     S
C219   H222    1.106   .     S
C219   H220    1.117   .     S
C219   H221    1.105   .     S
O223   C227    1.278   .     A
O223   Cu235   1.969   .     S
O224   C228    1.279   .     A
O224   Cu236   1.969   .     S
O225   Cu235   1.969   .     S
O225   C228    1.278   .     A
O226   C227    1.279   .     A
O226   Cu236   1.969   .     S
C227   C255    1.431   .     S
C228   C256    1.431   .     S
O229   C233    1.277   .     A
O229   Cu235   1.967   .     S
O230   C234    1.274   .     A
O230   Cu236   1.967   .     S
O231   C234    1.277   .     A
O231   Cu235   1.967   .     S
O232   C233    1.274   .     A
O232   Cu236   1.967   .     S
C233   C244    1.452   .     S
C234   C243    1.452   .     S
Cu235  Cu236   2.628   .     S
Cu235  N238    1.975   .     S
Cu236  N237    1.975   .     S
N237   N1126   1.194   1_554 S
N238   N681    1.194   .     S
C239   O277    1.386   .     S
C239   C247    1.410   .     A
C239   C243    1.400   .     A
C240   C244    1.400   .     A
C240   O282    1.386   .     S
C240   C248    1.410   .     A
C241   C245    1.408   .     A
C241   C243    1.406   .     A
C241   O287    1.387   .     S
C242   O292    1.388   .     S
C242   C244    1.406   .     A
C242   C246    1.408   .     A
C245   C249    1.409   .     A
C245   C251    1.405   .     A
C246   C252    1.405   .     A
C246   C250    1.409   .     A
C247   C253    1.406   .     A
C247   C249    1.413   .     A
C248   C254    1.405   .     A
C248   C250    1.413   .     A
C249   C176    1.415   1_655 S
C251   O257    1.377   .     S
C251   C180    1.398   1_655 S
C252   O262    1.378   .     S
C253   O267    1.378   .     S
C253   C178    1.398   1_655 S
C254   O272    1.378   .     S
C256   C403    1.204   .     S
O257   C258    1.416   .     S
C258   H260    1.113   .     S
C258   H261    1.108   .     S
C258   H185    1.112   1_655 S
O262   C263    1.416   .     S
C263   H265    1.113   .     S
C263   H266    1.108   .     S
H264   C189    1.113   1_655 S
O267   C268    1.412   .     S
C268   H270    1.111   .     S
C268   H269    1.114   .     S
C268   H419    1.109   .     S
O272   C273    1.412   .     S
C273   H274    1.114   .     S
C273   H275    1.111   .     S
H276   C421    1.109   .     S
O277   C278    1.413   .     S
C278   H281    1.108   .     S
C278   H280    1.111   .     S
C278   H279    1.112   .     S
O282   C283    1.413   .     S
C283   H286    1.109   .     S
C283   H284    1.112   .     S
C283   H285    1.111   .     S
O287   C288    1.416   .     S
C288   H290    1.104   .     S
C288   H291    1.106   .     S
C288   H289    1.117   .     S
O292   C293    1.417   .     S
C293   H296    1.106   .     S
C293   H294    1.117   .     S
C293   H295    1.105   .     S
O297   C301    1.278   .     A
O297   Cu309   1.969   .     S
O298   C302    1.279   .     A
O298   Cu310   1.969   .     S
O299   Cu309   1.969   .     S
O299   C302    1.278   .     A
O300   C301    1.279   .     A
O300   Cu310   1.969   .     S
C301   C329    1.431   .     S
C302   C330    1.431   .     S
O303   C307    1.277   .     A
O303   Cu309   1.967   .     S
O304   C308    1.274   .     A
O304   Cu310   1.967   .     S
O305   C308    1.277   .     A
O305   Cu309   1.967   .     S
O306   C307    1.274   .     A
O306   Cu310   1.967   .     S
C307   C318    1.452   .     S
C308   C317    1.452   .     S
Cu309  Cu310   2.628   .     S
Cu309  N312    1.975   .     S
Cu310  N311    1.975   .     S
N311   N1200   1.194   1_554 S
N312   N755    1.194   .     S
C313   O351    1.386   .     S
C313   C321    1.410   .     A
C313   C317    1.400   .     A
C314   C318    1.400   .     A
C314   O356    1.386   .     S
C314   C322    1.410   .     A
C315   C319    1.408   .     A
C315   C317    1.406   .     A
C315   O361    1.387   .     S
C316   O366    1.388   .     S
C316   C318    1.406   .     A
C316   C320    1.408   .     A
C319   C323    1.409   .     A
C319   C325    1.405   .     A
C320   C326    1.405   .     A
C320   C324    1.409   .     A
C321   C327    1.406   .     A
C321   C323    1.413   .     A
C322   C328    1.405   .     A
C322   C324    1.413   .     A
C323   C398    1.415   .     S
C324   C397    1.415   1_455 S
C325   O331    1.377   .     S
C325   C402    1.398   .     S
C326   O336    1.378   .     S
C326   C401    1.398   1_455 S
C327   O341    1.378   .     S
C327   C400    1.398   .     S
C328   O346    1.378   .     S
C328   C399    1.398   1_455 S
C330   C33     1.204   1_565 S
O331   C332    1.416   .     S
C332   H334    1.113   .     S
C332   H335    1.108   .     S
C332   H407    1.112   .     S
H333   C406    1.112   1_455 S
O336   C337    1.416   .     S
C337   H339    1.113   .     S
C337   H340    1.108   .     S
C337   H412    1.113   1_455 S
H338   C411    1.113   .     S
O341   C342    1.412   .     S
C342   H344    1.111   .     S
C342   H343    1.114   .     S
C342   H49     1.109   1_565 S
O346   C347    1.412   .     S
C347   H348    1.114   .     S
C347   H349    1.111   .     S
H350   C51     1.109   1_565 S
O351   C352    1.413   .     S
C352   H355    1.108   .     S
C352   H354    1.111   .     S
C352   H353    1.112   .     S
O356   C357    1.413   .     S
C357   H360    1.109   .     S
C357   H358    1.112   .     S
C357   H359    1.111   .     S
O361   C362    1.416   .     S
C362   H364    1.104   .     S
C362   H365    1.106   .     S
C362   H363    1.117   .     S
O366   C367    1.417   .     S
C367   H370    1.106   .     S
C367   H368    1.117   .     S
C367   H369    1.105   .     S
O371   C375    1.278   .     A
O371   Cu383   1.969   .     S
O372   C376    1.279   .     A
O372   Cu384   1.969   .     S
O373   Cu383   1.969   .     S
O373   C376    1.278   .     A
O374   C375    1.279   .     A
O374   Cu384   1.969   .     S
C375   C403    1.431   .     S
C376   C404    1.431   .     S
O377   C381    1.277   .     A
O377   Cu383   1.967   .     S
O378   C382    1.274   .     A
O378   Cu384   1.967   .     S
O379   C382    1.277   .     A
O379   Cu383   1.967   .     S
O380   C381    1.274   .     A
O380   Cu384   1.967   .     S
C381   C392    1.452   .     S
C382   C391    1.452   .     S
Cu383  Cu384   2.628   .     S
Cu383  N386    1.975   .     S
Cu384  N385    1.975   .     S
N385   N1274   1.194   1_554 S
N386   N829    1.194   .     S
C387   O425    1.386   .     S
C387   C395    1.410   .     A
C387   C391    1.400   .     A
C388   C392    1.400   .     A
C388   O430    1.386   .     S
C388   C396    1.410   .     A
C389   C393    1.408   .     A
C389   C391    1.406   .     A
C389   O435    1.387   .     S
C390   O440    1.388   .     S
C390   C392    1.406   .     A
C390   C394    1.408   .     A
C393   C397    1.409   .     A
C393   C399    1.405   .     A
C394   C400    1.405   .     A
C394   C398    1.409   .     A
C395   C401    1.406   .     A
C395   C397    1.413   .     A
C396   C402    1.405   .     A
C396   C398    1.413   .     A
C397   C324    1.415   1_655 S
C399   O405    1.377   .     S
C399   C328    1.398   1_655 S
C400   O410    1.378   .     S
C401   O415    1.378   .     S
C401   C326    1.398   1_655 S
C402   O420    1.378   .     S
C404   C107    1.204   1_565 S
O405   C406    1.416   .     S
C406   H408    1.113   .     S
C406   H409    1.108   .     S
C406   H333    1.112   1_655 S
O410   C411    1.416   .     S
C411   H413    1.113   .     S
C411   H414    1.108   .     S
H412   C337    1.113   1_655 S
O415   C416    1.412   .     S
C416   H418    1.111   .     S
C416   H417    1.114   .     S
C416   H123    1.109   1_565 S
O420   C421    1.412   .     S
C421   H422    1.114   .     S
C421   H423    1.111   .     S
H424   C125    1.109   1_565 S
O425   C426    1.413   .     S
C426   H429    1.108   .     S
C426   H428    1.111   .     S
C426   H427    1.112   .     S
O430   C431    1.413   .     S
C431   H434    1.109   .     S
C431   H432    1.112   .     S
C431   H433    1.111   .     S
O435   C436    1.416   .     S
C436   H438    1.104   .     S
C436   H439    1.106   .     S
C436   H437    1.117   .     S
O440   C441    1.417   .     S
C441   H444    1.106   .     S
C441   H442    1.117   .     S
C441   H443    1.105   .     S
O445   C449    1.278   .     A
O445   Cu457   1.969   .     S
O446   C450    1.279   .     A
O446   Cu458   1.969   .     S
O447   Cu457   1.969   .     S
O447   C450    1.278   .     A
O448   C449    1.279   .     A
O448   Cu458   1.969   .     S
C449   C477    1.431   .     S
C450   C478    1.431   .     S
O451   C455    1.277   .     A
O451   Cu457   1.967   .     S
O452   C456    1.274   .     A
O452   Cu458   1.967   .     S
O453   C456    1.277   .     A
O453   Cu457   1.967   .     S
O454   C455    1.274   .     A
O454   Cu458   1.967   .     S
C455   C466    1.452   .     S
C456   C465    1.452   .     S
Cu457  Cu458   2.628   .     S
Cu457  N460    1.975   .     S
Cu458  N459    1.975   .     S
N460   N903    1.194   .     S
C461   O499    1.386   .     S
C461   C469    1.410   .     A
C461   C465    1.400   .     A
C462   C466    1.400   .     A
C462   O504    1.386   .     S
C462   C470    1.410   .     A
C463   C467    1.408   .     A
C463   C465    1.406   .     A
C463   O509    1.387   .     S
C464   O514    1.388   .     S
C464   C466    1.406   .     A
C464   C468    1.408   .     A
C467   C471    1.409   .     A
C467   C473    1.405   .     A
C468   C474    1.405   .     A
C468   C472    1.409   .     A
C469   C475    1.406   .     A
C469   C471    1.413   .     A
C470   C476    1.405   .     A
C470   C472    1.413   .     A
C471   C546    1.415   .     S
C472   C545    1.415   1_455 S
C473   O479    1.377   .     S
C473   C550    1.398   .     S
C474   O484    1.378   .     S
C474   C549    1.398   1_455 S
C475   O489    1.378   .     S
C475   C548    1.398   .     S
C476   O494    1.378   .     S
C476   C547    1.398   1_455 S
C477   C774    1.204   1_545 S
C478   C625    1.204   .     S
O479   C480    1.416   .     S
C480   H482    1.113   .     S
C480   H483    1.108   .     S
C480   H555    1.112   .     S
H481   C554    1.112   1_455 S
O484   C485    1.416   .     S
C485   H487    1.113   .     S
C485   H488    1.108   .     S
C485   H560    1.113   1_455 S
H486   C559    1.113   .     S
O489   C490    1.412   .     S
C490   H492    1.111   .     S
C490   H491    1.114   .     S
C490   H641    1.109   .     S
H493   C786    1.109   1_545 S
O494   C495    1.412   .     S
C495   H496    1.114   .     S
C495   H497    1.111   .     S
C495   H794    1.109   1_545 S
H498   C643    1.109   .     S
O499   C500    1.413   .     S
C500   H503    1.108   .     S
C500   H502    1.111   .     S
C500   H501    1.112   .     S
O504   C505    1.413   .     S
C505   H508    1.109   .     S
C505   H506    1.112   .     S
C505   H507    1.111   .     S
O509   C510    1.416   .     S
C510   H512    1.104   .     S
C510   H513    1.106   .     S
C510   H511    1.117   .     S
O514   C515    1.417   .     S
C515   H518    1.106   .     S
C515   H516    1.117   .     S
C515   H517    1.105   .     S
O519   C523    1.278   .     A
O519   Cu531   1.969   .     S
O520   C524    1.279   .     A
O520   Cu532   1.969   .     S
O521   Cu531   1.969   .     S
O521   C524    1.278   .     A
O522   C523    1.279   .     A
O522   Cu532   1.969   .     S
C523   C551    1.431   .     S
C524   C552    1.431   .     S
O525   C529    1.277   .     A
O525   Cu531   1.967   .     S
O526   C530    1.274   .     A
O526   Cu532   1.967   .     S
O527   C530    1.277   .     A
O527   Cu531   1.967   .     S
O528   C529    1.274   .     A
O528   Cu532   1.967   .     S
C529   C540    1.452   .     S
C530   C539    1.452   .     S
Cu531  Cu532   2.628   .     S
Cu531  N534    1.975   .     S
Cu532  N533    1.975   .     S
N534   N977    1.194   .     S
C535   O573    1.386   .     S
C535   C543    1.410   .     A
C535   C539    1.400   .     A
C536   C540    1.400   .     A
C536   O578    1.386   .     S
C536   C544    1.410   .     A
C537   C541    1.408   .     A
C537   C539    1.406   .     A
C537   O583    1.387   .     S
C538   O588    1.388   .     S
C538   C540    1.406   .     A
C538   C542    1.408   .     A
C541   C545    1.409   .     A
C541   C547    1.405   .     A
C542   C548    1.405   .     A
C542   C546    1.409   .     A
C543   C549    1.406   .     A
C543   C545    1.413   .     A
C544   C550    1.405   .     A
C544   C546    1.413   .     A
C545   C472    1.415   1_655 S
C547   O553    1.377   .     S
C547   C476    1.398   1_655 S
C548   O558    1.378   .     S
C549   O563    1.378   .     S
C549   C474    1.398   1_655 S
C550   O568    1.378   .     S
C551   C848    1.204   1_545 S
C552   C699    1.204   .     S
O553   C554    1.416   .     S
C554   H556    1.113   .     S
C554   H557    1.108   .     S
C554   H481    1.112   1_655 S
O558   C559    1.416   .     S
C559   H561    1.113   .     S
C559   H562    1.108   .     S
H560   C485    1.113   1_655 S
O563   C564    1.412   .     S
C564   H566    1.111   .     S
C564   H565    1.114   .     S
C564   H715    1.109   .     S
H567   C860    1.109   1_545 S
O568   C569    1.412   .     S
C569   H570    1.114   .     S
C569   H571    1.111   .     S
C569   H868    1.109   1_545 S
H572   C717    1.109   .     S
O573   C574    1.413   .     S
C574   H577    1.108   .     S
C574   H576    1.111   .     S
C574   H575    1.112   .     S
O578   C579    1.413   .     S
C579   H582    1.109   .     S
C579   H580    1.112   .     S
C579   H581    1.111   .     S
O583   C584    1.416   .     S
C584   H586    1.104   .     S
C584   H587    1.106   .     S
C584   H585    1.117   .     S
O588   C589    1.417   .     S
C589   H592    1.106   .     S
C589   H590    1.117   .     S
C589   H591    1.105   .     S
O593   C597    1.278   .     A
O593   Cu605   1.969   .     S
O594   C598    1.279   .     A
O594   Cu606   1.969   .     S
O595   Cu605   1.969   .     S
O595   C598    1.278   .     A
O596   C597    1.279   .     A
O596   Cu606   1.969   .     S
C597   C625    1.431   .     S
C598   C626    1.431   .     S
O599   C603    1.277   .     A
O599   Cu605   1.967   .     S
O600   C604    1.274   .     A
O600   Cu606   1.967   .     S
O601   C604    1.277   .     A
O601   Cu605   1.967   .     S
O602   C603    1.274   .     A
O602   Cu606   1.967   .     S
C603   C614    1.452   .     S
C604   C613    1.452   .     S
Cu605  Cu606   2.628   .     S
Cu605  N608    1.975   .     S
Cu606  N607    1.975   .     S
N608   N1051   1.194   .     S
C609   O647    1.386   .     S
C609   C617    1.410   .     A
C609   C613    1.400   .     A
C610   C614    1.400   .     A
C610   O652    1.386   .     S
C610   C618    1.410   .     A
C611   C615    1.408   .     A
C611   C613    1.406   .     A
C611   O657    1.387   .     S
C612   O662    1.388   .     S
C612   C614    1.406   .     A
C612   C616    1.408   .     A
C615   C619    1.409   .     A
C615   C621    1.405   .     A
C616   C622    1.405   .     A
C616   C620    1.409   .     A
C617   C623    1.406   .     A
C617   C619    1.413   .     A
C618   C624    1.405   .     A
C618   C620    1.413   .     A
C619   C694    1.415   .     S
C620   C693    1.415   1_455 S
C621   O627    1.377   .     S
C621   C698    1.398   .     S
C622   O632    1.378   .     S
C622   C697    1.398   1_455 S
C623   O637    1.378   .     S
C623   C696    1.398   .     S
C624   O642    1.378   .     S
C624   C695    1.398   1_455 S
C626   C773    1.204   .     S
O627   C628    1.416   .     S
C628   H630    1.113   .     S
C628   H631    1.108   .     S
C628   H703    1.112   .     S
H629   C702    1.112   1_455 S
O632   C633    1.416   .     S
C633   H635    1.113   .     S
C633   H636    1.108   .     S
C633   H708    1.113   1_455 S
H634   C707    1.113   .     S
O637   C638    1.412   .     S
C638   H640    1.111   .     S
C638   H639    1.114   .     S
C638   H789    1.109   .     S
O642   C643    1.412   .     S
C643   H644    1.114   .     S
C643   H645    1.111   .     S
H646   C791    1.109   .     S
O647   C648    1.413   .     S
C648   H651    1.108   .     S
C648   H650    1.111   .     S
C648   H649    1.112   .     S
O652   C653    1.413   .     S
C653   H656    1.109   .     S
C653   H654    1.112   .     S
C653   H655    1.111   .     S
O657   C658    1.416   .     S
C658   H660    1.104   .     S
C658   H661    1.106   .     S
C658   H659    1.117   .     S
O662   C663    1.417   .     S
C663   H666    1.106   .     S
C663   H664    1.117   .     S
C663   H665    1.105   .     S
O667   C671    1.278   .     A
O667   Cu679   1.969   .     S
O668   C672    1.279   .     A
O668   Cu680   1.969   .     S
O669   Cu679   1.969   .     S
O669   C672    1.278   .     A
O670   C671    1.279   .     A
O670   Cu680   1.969   .     S
C671   C699    1.431   .     S
C672   C700    1.431   .     S
O673   C677    1.277   .     A
O673   Cu679   1.967   .     S
O674   C678    1.274   .     A
O674   Cu680   1.967   .     S
O675   C678    1.277   .     A
O675   Cu679   1.967   .     S
O676   C677    1.274   .     A
O676   Cu680   1.967   .     S
C677   C688    1.452   .     S
C678   C687    1.452   .     S
Cu679  Cu680   2.628   .     S
Cu679  N682    1.975   .     S
Cu680  N681    1.975   .     S
N682   N1125   1.194   .     S
C683   O721    1.386   .     S
C683   C691    1.410   .     A
C683   C687    1.400   .     A
C684   C688    1.400   .     A
C684   O726    1.386   .     S
C684   C692    1.410   .     A
C685   C689    1.408   .     A
C685   C687    1.406   .     A
C685   O731    1.387   .     S
C686   O736    1.388   .     S
C686   C688    1.406   .     A
C686   C690    1.408   .     A
C689   C693    1.409   .     A
C689   C695    1.405   .     A
C690   C696    1.405   .     A
C690   C694    1.409   .     A
C691   C697    1.406   .     A
C691   C693    1.413   .     A
C692   C698    1.405   .     A
C692   C694    1.413   .     A
C693   C620    1.415   1_655 S
C695   O701    1.377   .     S
C695   C624    1.398   1_655 S
C696   O706    1.378   .     S
C697   O711    1.378   .     S
C697   C622    1.398   1_655 S
C698   O716    1.378   .     S
C700   C847    1.204   .     S
O701   C702    1.416   .     S
C702   H704    1.113   .     S
C702   H705    1.108   .     S
C702   H629    1.112   1_655 S
O706   C707    1.416   .     S
C707   H709    1.113   .     S
C707   H710    1.108   .     S
H708   C633    1.113   1_655 S
O711   C712    1.412   .     S
C712   H714    1.111   .     S
C712   H713    1.114   .     S
C712   H863    1.109   .     S
O716   C717    1.412   .     S
C717   H718    1.114   .     S
C717   H719    1.111   .     S
H720   C865    1.109   .     S
O721   C722    1.413   .     S
C722   H725    1.108   .     S
C722   H724    1.111   .     S
C722   H723    1.112   .     S
O726   C727    1.413   .     S
C727   H730    1.109   .     S
C727   H728    1.112   .     S
C727   H729    1.111   .     S
O731   C732    1.416   .     S
C732   H734    1.104   .     S
C732   H735    1.106   .     S
C732   H733    1.117   .     S
O736   C737    1.417   .     S
C737   H740    1.106   .     S
C737   H738    1.117   .     S
C737   H739    1.105   .     S
O741   C745    1.278   .     A
O741   Cu753   1.969   .     S
O742   C746    1.279   .     A
O742   Cu754   1.969   .     S
O743   Cu753   1.969   .     S
O743   C746    1.278   .     A
O744   C745    1.279   .     A
O744   Cu754   1.969   .     S
C745   C773    1.431   .     S
C746   C774    1.431   .     S
O747   C751    1.277   .     A
O747   Cu753   1.967   .     S
O748   C752    1.274   .     A
O748   Cu754   1.967   .     S
O749   C752    1.277   .     A
O749   Cu753   1.967   .     S
O750   C751    1.274   .     A
O750   Cu754   1.967   .     S
C751   C762    1.452   .     S
C752   C761    1.452   .     S
Cu753  Cu754   2.628   .     S
Cu753  N756    1.975   .     S
Cu754  N755    1.975   .     S
N756   N1199   1.194   .     S
C757   O795    1.386   .     S
C757   C765    1.410   .     A
C757   C761    1.400   .     A
C758   C762    1.400   .     A
C758   O800    1.386   .     S
C758   C766    1.410   .     A
C759   C763    1.408   .     A
C759   C761    1.406   .     A
C759   O805    1.387   .     S
C760   O810    1.388   .     S
C760   C762    1.406   .     A
C760   C764    1.408   .     A
C763   C767    1.409   .     A
C763   C769    1.405   .     A
C764   C770    1.405   .     A
C764   C768    1.409   .     A
C765   C771    1.406   .     A
C765   C767    1.413   .     A
C766   C772    1.405   .     A
C766   C768    1.413   .     A
C767   C842    1.415   .     S
C768   C841    1.415   1_455 S
C769   O775    1.377   .     S
C769   C846    1.398   .     S
C770   O780    1.378   .     S
C770   C845    1.398   1_455 S
C771   O785    1.378   .     S
C771   C844    1.398   .     S
C772   O790    1.378   .     S
C772   C843    1.398   1_455 S
C774   C477    1.204   1_565 S
O775   C776    1.416   .     S
C776   H778    1.113   .     S
C776   H779    1.108   .     S
C776   H851    1.112   .     S
H777   C850    1.112   1_455 S
O780   C781    1.416   .     S
C781   H783    1.113   .     S
C781   H784    1.108   .     S
C781   H856    1.113   1_455 S
H782   C855    1.113   .     S
O785   C786    1.412   .     S
C786   H788    1.111   .     S
C786   H787    1.114   .     S
C786   H493    1.109   1_565 S
O790   C791    1.412   .     S
C791   H792    1.114   .     S
C791   H793    1.111   .     S
H794   C495    1.109   1_565 S
O795   C796    1.413   .     S
C796   H799    1.108   .     S
C796   H798    1.111   .     S
C796   H797    1.112   .     S
O800   C801    1.413   .     S
C801   H804    1.109   .     S
C801   H802    1.112   .     S
C801   H803    1.111   .     S
O805   C806    1.416   .     S
C806   H808    1.104   .     S
C806   H809    1.106   .     S
C806   H807    1.117   .     S
O810   C811    1.417   .     S
C811   H814    1.106   .     S
C811   H812    1.117   .     S
C811   H813    1.105   .     S
O815   C819    1.278   .     A
O815   Cu827   1.969   .     S
O816   C820    1.279   .     A
O816   Cu828   1.969   .     S
O817   Cu827   1.969   .     S
O817   C820    1.278   .     A
O818   C819    1.279   .     A
O818   Cu828   1.969   .     S
C819   C847    1.431   .     S
C820   C848    1.431   .     S
O821   C825    1.277   .     A
O821   Cu827   1.967   .     S
O822   C826    1.274   .     A
O822   Cu828   1.967   .     S
O823   C826    1.277   .     A
O823   Cu827   1.967   .     S
O824   C825    1.274   .     A
O824   Cu828   1.967   .     S
C825   C836    1.452   .     S
C826   C835    1.452   .     S
Cu827  Cu828   2.628   .     S
Cu827  N830    1.975   .     S
Cu828  N829    1.975   .     S
N830   N1273   1.194   .     S
C831   O869    1.386   .     S
C831   C839    1.410   .     A
C831   C835    1.400   .     A
C832   C836    1.400   .     A
C832   O874    1.386   .     S
C832   C840    1.410   .     A
C833   C837    1.408   .     A
C833   C835    1.406   .     A
C833   O879    1.387   .     S
C834   O884    1.388   .     S
C834   C836    1.406   .     A
C834   C838    1.408   .     A
C837   C841    1.409   .     A
C837   C843    1.405   .     A
C838   C844    1.405   .     A
C838   C842    1.409   .     A
C839   C845    1.406   .     A
C839   C841    1.413   .     A
C840   C846    1.405   .     A
C840   C842    1.413   .     A
C841   C768    1.415   1_655 S
C843   O849    1.377   .     S
C843   C772    1.398   1_655 S
C844   O854    1.378   .     S
C845   O859    1.378   .     S
C845   C770    1.398   1_655 S
C846   O864    1.378   .     S
C848   C551    1.204   1_565 S
O849   C850    1.416   .     S
C850   H852    1.113   .     S
C850   H853    1.108   .     S
C850   H777    1.112   1_655 S
O854   C855    1.416   .     S
C855   H857    1.113   .     S
C855   H858    1.108   .     S
H856   C781    1.113   1_655 S
O859   C860    1.412   .     S
C860   H862    1.111   .     S
C860   H861    1.114   .     S
C860   H567    1.109   1_565 S
O864   C865    1.412   .     S
C865   H866    1.114   .     S
C865   H867    1.111   .     S
H868   C569    1.109   1_565 S
O869   C870    1.413   .     S
C870   H873    1.108   .     S
C870   H872    1.111   .     S
C870   H871    1.112   .     S
O874   C875    1.413   .     S
C875   H878    1.109   .     S
C875   H876    1.112   .     S
C875   H877    1.111   .     S
O879   C880    1.416   .     S
C880   H882    1.104   .     S
C880   H883    1.106   .     S
C880   H881    1.117   .     S
O884   C885    1.417   .     S
C885   H888    1.106   .     S
C885   H886    1.117   .     S
C885   H887    1.105   .     S
O889   C893    1.278   .     A
O889   Cu901   1.969   .     S
O890   C894    1.279   .     A
O890   Cu902   1.969   .     S
O891   Cu901   1.969   .     S
O891   C894    1.278   .     A
O892   C893    1.279   .     A
O892   Cu902   1.969   .     S
C893   C921    1.431   .     S
C894   C922    1.431   .     S
O895   C899    1.277   .     A
O895   Cu901   1.967   .     S
O896   C900    1.274   .     A
O896   Cu902   1.967   .     S
O897   C900    1.277   .     A
O897   Cu901   1.967   .     S
O898   C899    1.274   .     A
O898   Cu902   1.967   .     S
C899   C910    1.452   .     S
C900   C909    1.452   .     S
Cu901  Cu902   2.628   .     S
Cu901  N904    1.975   .     S
Cu902  N903    1.975   .     S
N904   N15     1.194   1_556 S
C905   O943    1.386   .     S
C905   C913    1.410   .     A
C905   C909    1.400   .     A
C906   C910    1.400   .     A
C906   O948    1.386   .     S
C906   C914    1.410   .     A
C907   C911    1.408   .     A
C907   C909    1.406   .     A
C907   O953    1.387   .     S
C908   O958    1.388   .     S
C908   C910    1.406   .     A
C908   C912    1.408   .     A
C911   C915    1.409   .     A
C911   C917    1.405   .     A
C912   C918    1.405   .     A
C912   C916    1.409   .     A
C913   C919    1.406   .     A
C913   C915    1.413   .     A
C914   C920    1.405   .     A
C914   C916    1.413   .     A
C915   C990    1.415   .     S
C916   C989    1.415   1_455 S
C917   O923    1.377   .     S
C917   C994    1.398   .     S
C918   O928    1.378   .     S
C918   C993    1.398   1_455 S
C919   O933    1.378   .     S
C919   C992    1.398   .     S
C920   O938    1.378   .     S
C920   C991    1.398   1_455 S
C921   C1218   1.204   1_545 S
C922   C1069   1.204   .     S
O923   C924    1.416   .     S
C924   H926    1.113   .     S
C924   H927    1.108   .     S
C924   H999    1.112   .     S
H925   C998    1.112   1_455 S
O928   C929    1.416   .     S
C929   H931    1.113   .     S
C929   H932    1.108   .     S
C929   H1004   1.113   1_455 S
H930   C1003   1.113   .     S
O933   C934    1.412   .     S
C934   H936    1.111   .     S
C934   H935    1.114   .     S
C934   H1085   1.109   .     S
H937   C1230   1.109   1_545 S
O938   C939    1.412   .     S
C939   H940    1.114   .     S
C939   H941    1.111   .     S
C939   H1238   1.109   1_545 S
H942   C1087   1.109   .     S
O943   C944    1.413   .     S
C944   H947    1.108   .     S
C944   H946    1.111   .     S
C944   H945    1.112   .     S
O948   C949    1.413   .     S
C949   H952    1.109   .     S
C949   H950    1.112   .     S
C949   H951    1.111   .     S
O953   C954    1.416   .     S
C954   H956    1.104   .     S
C954   H957    1.106   .     S
C954   H955    1.117   .     S
O958   C959    1.417   .     S
C959   H962    1.106   .     S
C959   H960    1.117   .     S
C959   H961    1.105   .     S
O963   C967    1.278   .     A
O963   Cu975   1.969   .     S
O964   C968    1.279   .     A
O964   Cu976   1.969   .     S
O965   Cu975   1.969   .     S
O965   C968    1.278   .     A
O966   C967    1.279   .     A
O966   Cu976   1.969   .     S
C967   C995    1.431   .     S
C968   C996    1.431   .     S
O969   C973    1.277   .     A
O969   Cu975   1.967   .     S
O970   C974    1.274   .     A
O970   Cu976   1.967   .     S
O971   C974    1.277   .     A
O971   Cu975   1.967   .     S
O972   C973    1.274   .     A
O972   Cu976   1.967   .     S
C973   C984    1.452   .     S
C974   C983    1.452   .     S
Cu975  Cu976   2.628   .     S
Cu975  N978    1.975   .     S
Cu976  N977    1.975   .     S
N978   N89     1.194   1_556 S
C979   O1017   1.386   .     S
C979   C987    1.410   .     A
C979   C983    1.400   .     A
C980   C984    1.400   .     A
C980   O1022   1.386   .     S
C980   C988    1.410   .     A
C981   C985    1.408   .     A
C981   C983    1.406   .     A
C981   O1027   1.387   .     S
C982   O1032   1.388   .     S
C982   C984    1.406   .     A
C982   C986    1.408   .     A
C985   C989    1.409   .     A
C985   C991    1.405   .     A
C986   C992    1.405   .     A
C986   C990    1.409   .     A
C987   C993    1.406   .     A
C987   C989    1.413   .     A
C988   C994    1.405   .     A
C988   C990    1.413   .     A
C989   C916    1.415   1_655 S
C991   O997    1.377   .     S
C991   C920    1.398   1_655 S
C992   O1002   1.378   .     S
C993   O1007   1.378   .     S
C993   C918    1.398   1_655 S
C994   O1012   1.378   .     S
C995   C1292   1.204   1_545 S
C996   C1143   1.204   .     S
O997   C998    1.416   .     S
C998   H1000   1.113   .     S
C998   H1001   1.108   .     S
C998   H925    1.112   1_655 S
O1002  C1003   1.416   .     S
C1003  H1005   1.113   .     S
C1003  H1006   1.108   .     S
H1004  C929    1.113   1_655 S
O1007  C1008   1.412   .     S
C1008  H1010   1.111   .     S
C1008  H1009   1.114   .     S
C1008  H1159   1.109   .     S
H1011  C1304   1.109   1_545 S
O1012  C1013   1.412   .     S
C1013  H1014   1.114   .     S
C1013  H1015   1.111   .     S
C1013  H1312   1.109   1_545 S
H1016  C1161   1.109   .     S
O1017  C1018   1.413   .     S
C1018  H1021   1.108   .     S
C1018  H1020   1.111   .     S
C1018  H1019   1.112   .     S
O1022  C1023   1.413   .     S
C1023  H1026   1.109   .     S
C1023  H1024   1.112   .     S
C1023  H1025   1.111   .     S
O1027  C1028   1.416   .     S
C1028  H1030   1.104   .     S
C1028  H1031   1.106   .     S
C1028  H1029   1.117   .     S
O1032  C1033   1.417   .     S
C1033  H1036   1.106   .     S
C1033  H1034   1.117   .     S
C1033  H1035   1.105   .     S
O1037  C1041   1.278   .     A
O1037  Cu1049  1.969   .     S
O1038  C1042   1.279   .     A
O1038  Cu1050  1.969   .     S
O1039  Cu1049  1.969   .     S
O1039  C1042   1.278   .     A
O1040  C1041   1.279   .     A
O1040  Cu1050  1.969   .     S
C1041  C1069   1.431   .     S
C1042  C1070   1.431   .     S
O1043  C1047   1.277   .     A
O1043  Cu1049  1.967   .     S
O1044  C1048   1.274   .     A
O1044  Cu1050  1.967   .     S
O1045  C1048   1.277   .     A
O1045  Cu1049  1.967   .     S
O1046  C1047   1.274   .     A
O1046  Cu1050  1.967   .     S
C1047  C1058   1.452   .     S
C1048  C1057   1.452   .     S
Cu1049 Cu1050  2.628   .     S
Cu1049 N1052   1.975   .     S
Cu1050 N1051   1.975   .     S
N1052  N163    1.194   1_556 S
C1053  O1091   1.386   .     S
C1053  C1061   1.410   .     A
C1053  C1057   1.400   .     A
C1054  C1058   1.400   .     A
C1054  O1096   1.386   .     S
C1054  C1062   1.410   .     A
C1055  C1059   1.408   .     A
C1055  C1057   1.406   .     A
C1055  O1101   1.387   .     S
C1056  O1106   1.388   .     S
C1056  C1058   1.406   .     A
C1056  C1060   1.408   .     A
C1059  C1063   1.409   .     A
C1059  C1065   1.405   .     A
C1060  C1066   1.405   .     A
C1060  C1064   1.409   .     A
C1061  C1067   1.406   .     A
C1061  C1063   1.413   .     A
C1062  C1068   1.405   .     A
C1062  C1064   1.413   .     A
C1063  C1138   1.415   .     S
C1064  C1137   1.415   1_455 S
C1065  O1071   1.377   .     S
C1065  C1142   1.398   .     S
C1066  O1076   1.378   .     S
C1066  C1141   1.398   1_455 S
C1067  O1081   1.378   .     S
C1067  C1140   1.398   .     S
C1068  O1086   1.378   .     S
C1068  C1139   1.398   1_455 S
C1070  C1217   1.204   .     S
O1071  C1072   1.416   .     S
C1072  H1074   1.113   .     S
C1072  H1075   1.108   .     S
C1072  H1147   1.112   .     S
H1073  C1146   1.112   1_455 S
O1076  C1077   1.416   .     S
C1077  H1079   1.113   .     S
C1077  H1080   1.108   .     S
C1077  H1152   1.113   1_455 S
H1078  C1151   1.113   .     S
O1081  C1082   1.412   .     S
C1082  H1084   1.111   .     S
C1082  H1083   1.114   .     S
C1082  H1233   1.109   .     S
O1086  C1087   1.412   .     S
C1087  H1088   1.114   .     S
C1087  H1089   1.111   .     S
H1090  C1235   1.109   .     S
O1091  C1092   1.413   .     S
C1092  H1095   1.108   .     S
C1092  H1094   1.111   .     S
C1092  H1093   1.112   .     S
O1096  C1097   1.413   .     S
C1097  H1100   1.109   .     S
C1097  H1098   1.112   .     S
C1097  H1099   1.111   .     S
O1101  C1102   1.416   .     S
C1102  H1104   1.104   .     S
C1102  H1105   1.106   .     S
C1102  H1103   1.117   .     S
O1106  C1107   1.417   .     S
C1107  H1110   1.106   .     S
C1107  H1108   1.117   .     S
C1107  H1109   1.105   .     S
O1111  C1115   1.278   .     A
O1111  Cu1123  1.969   .     S
O1112  C1116   1.279   .     A
O1112  Cu1124  1.969   .     S
O1113  Cu1123  1.969   .     S
O1113  C1116   1.278   .     A
O1114  C1115   1.279   .     A
O1114  Cu1124  1.969   .     S
C1115  C1143   1.431   .     S
C1116  C1144   1.431   .     S
O1117  C1121   1.277   .     A
O1117  Cu1123  1.967   .     S
O1118  C1122   1.274   .     A
O1118  Cu1124  1.967   .     S
O1119  C1122   1.277   .     A
O1119  Cu1123  1.967   .     S
O1120  C1121   1.274   .     A
O1120  Cu1124  1.967   .     S
C1121  C1132   1.452   .     S
C1122  C1131   1.452   .     S
Cu1123 Cu1124  2.628   .     S
Cu1123 N1126   1.975   .     S
Cu1124 N1125   1.975   .     S
N1126  N237    1.194   1_556 S
C1127  O1165   1.386   .     S
C1127  C1135   1.410   .     A
C1127  C1131   1.400   .     A
C1128  C1132   1.400   .     A
C1128  O1170   1.386   .     S
C1128  C1136   1.410   .     A
C1129  C1133   1.408   .     A
C1129  C1131   1.406   .     A
C1129  O1175   1.387   .     S
C1130  O1180   1.388   .     S
C1130  C1132   1.406   .     A
C1130  C1134   1.408   .     A
C1133  C1137   1.409   .     A
C1133  C1139   1.405   .     A
C1134  C1140   1.405   .     A
C1134  C1138   1.409   .     A
C1135  C1141   1.406   .     A
C1135  C1137   1.413   .     A
C1136  C1142   1.405   .     A
C1136  C1138   1.413   .     A
C1137  C1064   1.415   1_655 S
C1139  O1145   1.377   .     S
C1139  C1068   1.398   1_655 S
C1140  O1150   1.378   .     S
C1141  O1155   1.378   .     S
C1141  C1066   1.398   1_655 S
C1142  O1160   1.378   .     S
C1144  C1291   1.204   .     S
O1145  C1146   1.416   .     S
C1146  H1148   1.113   .     S
C1146  H1149   1.108   .     S
C1146  H1073   1.112   1_655 S
O1150  C1151   1.416   .     S
C1151  H1153   1.113   .     S
C1151  H1154   1.108   .     S
H1152  C1077   1.113   1_655 S
O1155  C1156   1.412   .     S
C1156  H1158   1.111   .     S
C1156  H1157   1.114   .     S
C1156  H1307   1.109   .     S
O1160  C1161   1.412   .     S
C1161  H1162   1.114   .     S
C1161  H1163   1.111   .     S
H1164  C1309   1.109   .     S
O1165  C1166   1.413   .     S
C1166  H1169   1.108   .     S
C1166  H1168   1.111   .     S
C1166  H1167   1.112   .     S
O1170  C1171   1.413   .     S
C1171  H1174   1.109   .     S
C1171  H1172   1.112   .     S
C1171  H1173   1.111   .     S
O1175  C1176   1.416   .     S
C1176  H1178   1.104   .     S
C1176  H1179   1.106   .     S
C1176  H1177   1.117   .     S
O1180  C1181   1.417   .     S
C1181  H1184   1.106   .     S
C1181  H1182   1.117   .     S
C1181  H1183   1.105   .     S
O1185  C1189   1.278   .     A
O1185  Cu1197  1.969   .     S
O1186  C1190   1.279   .     A
O1186  Cu1198  1.969   .     S
O1187  Cu1197  1.969   .     S
O1187  C1190   1.278   .     A
O1188  C1189   1.279   .     A
O1188  Cu1198  1.969   .     S
C1189  C1217   1.431   .     S
C1190  C1218   1.431   .     S
O1191  C1195   1.277   .     A
O1191  Cu1197  1.967   .     S
O1192  C1196   1.274   .     A
O1192  Cu1198  1.967   .     S
O1193  C1196   1.277   .     A
O1193  Cu1197  1.967   .     S
O1194  C1195   1.274   .     A
O1194  Cu1198  1.967   .     S
C1195  C1206   1.452   .     S
C1196  C1205   1.452   .     S
Cu1197 Cu1198  2.628   .     S
Cu1197 N1200   1.975   .     S
Cu1198 N1199   1.975   .     S
N1200  N311    1.194   1_556 S
C1201  O1239   1.386   .     S
C1201  C1209   1.410   .     A
C1201  C1205   1.400   .     A
C1202  C1206   1.400   .     A
C1202  O1244   1.386   .     S
C1202  C1210   1.410   .     A
C1203  C1207   1.408   .     A
C1203  C1205   1.406   .     A
C1203  O1249   1.387   .     S
C1204  O1254   1.388   .     S
C1204  C1206   1.406   .     A
C1204  C1208   1.408   .     A
C1207  C1211   1.409   .     A
C1207  C1213   1.405   .     A
C1208  C1214   1.405   .     A
C1208  C1212   1.409   .     A
C1209  C1215   1.406   .     A
C1209  C1211   1.413   .     A
C1210  C1216   1.405   .     A
C1210  C1212   1.413   .     A
C1211  C1286   1.415   .     S
C1212  C1285   1.415   1_455 S
C1213  O1219   1.377   .     S
C1213  C1290   1.398   .     S
C1214  O1224   1.378   .     S
C1214  C1289   1.398   1_455 S
C1215  O1229   1.378   .     S
C1215  C1288   1.398   .     S
C1216  O1234   1.378   .     S
C1216  C1287   1.398   1_455 S
C1218  C921    1.204   1_565 S
O1219  C1220   1.416   .     S
C1220  H1222   1.113   .     S
C1220  H1223   1.108   .     S
C1220  H1295   1.112   .     S
H1221  C1294   1.112   1_455 S
O1224  C1225   1.416   .     S
C1225  H1227   1.113   .     S
C1225  H1228   1.108   .     S
C1225  H1300   1.113   1_455 S
H1226  C1299   1.113   .     S
O1229  C1230   1.412   .     S
C1230  H1232   1.111   .     S
C1230  H1231   1.114   .     S
C1230  H937    1.109   1_565 S
O1234  C1235   1.412   .     S
C1235  H1236   1.114   .     S
C1235  H1237   1.111   .     S
H1238  C939    1.109   1_565 S
O1239  C1240   1.413   .     S
C1240  H1243   1.108   .     S
C1240  H1242   1.111   .     S
C1240  H1241   1.112   .     S
O1244  C1245   1.413   .     S
C1245  H1248   1.109   .     S
C1245  H1246   1.112   .     S
C1245  H1247   1.111   .     S
O1249  C1250   1.416   .     S
C1250  H1252   1.104   .     S
C1250  H1253   1.106   .     S
C1250  H1251   1.117   .     S
O1254  C1255   1.417   .     S
C1255  H1258   1.106   .     S
C1255  H1256   1.117   .     S
C1255  H1257   1.105   .     S
O1259  C1263   1.278   .     A
O1259  Cu1271  1.969   .     S
O1260  C1264   1.279   .     A
O1260  Cu1272  1.969   .     S
O1261  Cu1271  1.969   .     S
O1261  C1264   1.278   .     A
O1262  C1263   1.279   .     A
O1262  Cu1272  1.969   .     S
C1263  C1291   1.431   .     S
C1264  C1292   1.431   .     S
O1265  C1269   1.277   .     A
O1265  Cu1271  1.967   .     S
O1266  C1270   1.274   .     A
O1266  Cu1272  1.967   .     S
O1267  C1270   1.277   .     A
O1267  Cu1271  1.967   .     S
O1268  C1269   1.274   .     A
O1268  Cu1272  1.967   .     S
C1269  C1280   1.452   .     S
C1270  C1279   1.452   .     S
Cu1271 Cu1272  2.628   .     S
Cu1271 N1274   1.975   .     S
Cu1272 N1273   1.975   .     S
N1274  N385    1.194   1_556 S
C1275  O1313   1.386   .     S
C1275  C1283   1.410   .     A
C1275  C1279   1.400   .     A
C1276  C1280   1.400   .     A
C1276  O1318   1.386   .     S
C1276  C1284   1.410   .     A
C1277  C1281   1.408   .     A
C1277  C1279   1.406   .     A
C1277  O1323   1.387   .     S
C1278  O1328   1.388   .     S
C1278  C1280   1.406   .     A
C1278  C1282   1.408   .     A
C1281  C1285   1.409   .     A
C1281  C1287   1.405   .     A
C1282  C1288   1.405   .     A
C1282  C1286   1.409   .     A
C1283  C1289   1.406   .     A
C1283  C1285   1.413   .     A
C1284  C1290   1.405   .     A
C1284  C1286   1.413   .     A
C1285  C1212   1.415   1_655 S
C1287  O1293   1.377   .     S
C1287  C1216   1.398   1_655 S
C1288  O1298   1.378   .     S
C1289  O1303   1.378   .     S
C1289  C1214   1.398   1_655 S
C1290  O1308   1.378   .     S
C1292  C995    1.204   1_565 S
O1293  C1294   1.416   .     S
C1294  H1296   1.113   .     S
C1294  H1297   1.108   .     S
C1294  H1221   1.112   1_655 S
O1298  C1299   1.416   .     S
C1299  H1301   1.113   .     S
C1299  H1302   1.108   .     S
H1300  C1225   1.113   1_655 S
O1303  C1304   1.412   .     S
C1304  H1306   1.111   .     S
C1304  H1305   1.114   .     S
C1304  H1011   1.109   1_565 S
O1308  C1309   1.412   .     S
C1309  H1310   1.114   .     S
C1309  H1311   1.111   .     S
H1312  C1013   1.109   1_565 S
O1313  C1314   1.413   .     S
C1314  H1317   1.108   .     S
C1314  H1316   1.111   .     S
C1314  H1315   1.112   .     S
O1318  C1319   1.413   .     S
C1319  H1322   1.109   .     S
C1319  H1320   1.112   .     S
C1319  H1321   1.111   .     S
O1323  C1324   1.416   .     S
C1324  H1326   1.104   .     S
C1324  H1327   1.106   .     S
C1324  H1325   1.117   .     S
O1328  C1329   1.417   .     S
C1329  H1332   1.106   .     S
C1329  H1330   1.117   .     S
C1329  H1331   1.105   .     S
