data_str_m2_o1_o2_pcu_sym.45
_audit_creation_date              2020-01-03
_audit_creation_method            'Materials Studio'
_symmetry_space_group_name_H-M    'P1'
_symmetry_Int_Tables_number       1
_symmetry_cell_setting            triclinic
loop_
_symmetry_equiv_pos_as_xyz
  x,y,z
_cell_length_a                    32.4880
_cell_length_b                    28.9605
_cell_length_c                    30.3140
_cell_angle_alpha                 90.0000
_cell_angle_beta                  94.0353
_cell_angle_gamma                 90.0000
loop_
_atom_site_label
_atom_site_type_symbol
_atom_site_fract_x
_atom_site_fract_y
_atom_site_fract_z
_atom_site_U_iso_or_equiv
_atom_site_adp_type
_atom_site_occupancy
C1     C     0.08749   0.16666   0.25016   0.00000  Uiso   1.00
C2     C     0.31203   0.20855   0.24969   0.00000  Uiso   1.00
C3     C     0.31203   0.12469   0.24978   0.00000  Uiso   1.00
C4     C     0.02130   0.20855   0.25031   0.00000  Uiso   1.00
C5     C     0.15587   0.20582   0.04677   0.00000  Uiso   1.00
C6     C     0.15531   0.12587   0.45125   0.00000  Uiso   1.00
C7     C     0.17746   0.20582   0.45323   0.00000  Uiso   1.00
C8     C     0.17803   0.12587   0.04875   0.00000  Uiso   1.00
C9     C     0.15690   0.20638   0.09261   0.00000  Uiso   1.00
C10    C     0.15549   0.12608   0.40536   0.00000  Uiso   1.00
C11    C     0.17643   0.20638   0.40739   0.00000  Uiso   1.00
C12    C     0.24584   0.16666   0.24985   0.00000  Uiso   1.00
C13    C     0.17784   0.12608   0.09464   0.00000  Uiso   1.00
C14    C     0.16729   0.16639   0.11687   0.00000  Uiso   1.00
C15    C     0.16605   0.16639   0.38313   0.00000  Uiso   1.00
C16    C     0.16674   0.16569   0.02433   0.00000  Uiso   1.00
C17    C     0.16659   0.16569   0.47567   0.00000  Uiso   1.00
C18    C     0.29052   0.16663   0.24969   0.00000  Uiso   1.00
C19    C     0.04282   0.16663   0.25031   0.00000  Uiso   1.00
C20    C     0.16691   0.16663   0.16513   0.00000  Uiso   1.00
C21    C     0.16642   0.16663   0.33487   0.00000  Uiso   1.00
C22    C     0.13998   0.02472   0.22145   0.00000  Uiso   1.00
C23    C     0.19363   0.30868   0.27825   0.00000  Uiso   1.00
C24    C     0.19336   0.02472   0.27855   0.00000  Uiso   1.00
C25    C     0.13970   0.30868   0.22175   0.00000  Uiso   1.00
C26    C     0.02130   0.12469   0.25022   0.00000  Uiso   1.00
Cu27   Cu    0.16667   0.21355   0.25000   0.00000  Uiso   1.00
Cu28   Cu    0.16667   0.11978   0.25000   0.00000  Uiso   1.00
H29    H     0.14618   0.23682   0.02900   0.00000  Uiso   1.00
H30    H     0.29610   0.24139   0.24923   0.00000  Uiso   1.00
H31    H     0.29607   0.09186   0.24950   0.00000  Uiso   1.00
H32    H     0.03724   0.24139   0.25077   0.00000  Uiso   1.00
H33    H     0.14585   0.09470   0.46745   0.00000  Uiso   1.00
H34    H     0.18715   0.23682   0.47100   0.00000  Uiso   1.00
H35    H     0.18748   0.09470   0.03255   0.00000  Uiso   1.00
H36    H     0.14908   0.23805   0.10885   0.00000  Uiso   1.00
H37    H     0.14683   0.09489   0.38730   0.00000  Uiso   1.00
H38    H     0.18425   0.23805   0.39115   0.00000  Uiso   1.00
H39    H     0.18651   0.09489   0.11270   0.00000  Uiso   1.00
H40    H     0.03726   0.09186   0.25050   0.00000  Uiso   1.00
I41    I     0.09770   0.05955   0.17487   0.00000  Uiso   1.00
I42    I     0.23765   0.27418   0.32300   0.00000  Uiso   1.00
I43    I     0.23563   0.05955   0.32514   0.00000  Uiso   1.00
I44    I     0.09568   0.27418   0.17700   0.00000  Uiso   1.00
N45    N     0.16667   0.28402   0.25000   0.00000  Uiso   1.00
N46    N     0.16667   0.04931   0.25000   0.00000  Uiso   1.00
O47    O     0.10655   0.20625   0.25000   0.00000  Uiso   1.00
O48    O     0.22679   0.12709   0.25001   0.00000  Uiso   1.00
O49    O     0.22679   0.20625   0.25001   0.00000  Uiso   1.00
O50    O     0.10655   0.12709   0.25000   0.00000  Uiso   1.00
O51    O     0.16666   0.20626   0.18573   0.00000  Uiso   1.00
O52    O     0.16667   0.12707   0.31427   0.00000  Uiso   1.00
O53    O     0.16667   0.20626   0.31427   0.00000  Uiso   1.00
O54    O     0.16666   0.12707   0.18573   0.00000  Uiso   1.00
C55    C     0.42083   0.16666   0.25016   0.00000  Uiso   1.00
C56    C     0.64537   0.20855   0.24969   0.00000  Uiso   1.00
C57    C     0.64536   0.12469   0.24978   0.00000  Uiso   1.00
C58    C     0.35463   0.20855   0.25031   0.00000  Uiso   1.00
C59    C     0.48921   0.20582   0.04677   0.00000  Uiso   1.00
C60    C     0.48864   0.12587   0.45125   0.00000  Uiso   1.00
C61    C     0.51079   0.20582   0.45323   0.00000  Uiso   1.00
C62    C     0.51136   0.12587   0.04875   0.00000  Uiso   1.00
C63    C     0.49024   0.20638   0.09261   0.00000  Uiso   1.00
C64    C     0.48883   0.12608   0.40536   0.00000  Uiso   1.00
C65    C     0.50976   0.20638   0.40739   0.00000  Uiso   1.00
C66    C     0.57917   0.16666   0.24985   0.00000  Uiso   1.00
C67    C     0.51117   0.12608   0.09464   0.00000  Uiso   1.00
C68    C     0.50062   0.16639   0.11687   0.00000  Uiso   1.00
C69    C     0.49938   0.16639   0.38313   0.00000  Uiso   1.00
C70    C     0.50007   0.16569   0.02433   0.00000  Uiso   1.00
C71    C     0.49993   0.16569   0.47567   0.00000  Uiso   1.00
C72    C     0.62385   0.16663   0.24969   0.00000  Uiso   1.00
C73    C     0.37615   0.16663   0.25031   0.00000  Uiso   1.00
C74    C     0.50024   0.16663   0.16513   0.00000  Uiso   1.00
C75    C     0.49976   0.16663   0.33487   0.00000  Uiso   1.00
C76    C     0.47331   0.02472   0.22145   0.00000  Uiso   1.00
C77    C     0.52696   0.30868   0.27825   0.00000  Uiso   1.00
C78    C     0.52669   0.02472   0.27855   0.00000  Uiso   1.00
C79    C     0.47304   0.30868   0.22175   0.00000  Uiso   1.00
C80    C     0.35464   0.12469   0.25022   0.00000  Uiso   1.00
Cu81   Cu    0.50000   0.21355   0.25000   0.00000  Uiso   1.00
Cu82   Cu    0.50000   0.11978   0.25000   0.00000  Uiso   1.00
H83    H     0.47951   0.23682   0.02900   0.00000  Uiso   1.00
H84    H     0.62943   0.24139   0.24923   0.00000  Uiso   1.00
H85    H     0.62940   0.09186   0.24950   0.00000  Uiso   1.00
H86    H     0.37057   0.24139   0.25077   0.00000  Uiso   1.00
H87    H     0.47918   0.09470   0.46745   0.00000  Uiso   1.00
H88    H     0.52049   0.23682   0.47100   0.00000  Uiso   1.00
H89    H     0.52082   0.09470   0.03255   0.00000  Uiso   1.00
H90    H     0.48241   0.23805   0.10885   0.00000  Uiso   1.00
H91    H     0.48016   0.09489   0.38730   0.00000  Uiso   1.00
H92    H     0.51759   0.23805   0.39115   0.00000  Uiso   1.00
H93    H     0.51984   0.09489   0.11270   0.00000  Uiso   1.00
H94    H     0.37060   0.09186   0.25050   0.00000  Uiso   1.00
I95    I     0.43104   0.05955   0.17487   0.00000  Uiso   1.00
I96    I     0.57098   0.27418   0.32300   0.00000  Uiso   1.00
I97    I     0.56897   0.05955   0.32514   0.00000  Uiso   1.00
I98    I     0.42902   0.27418   0.17700   0.00000  Uiso   1.00
N99    N     0.50000   0.28402   0.25000   0.00000  Uiso   1.00
N100   N     0.50000   0.04931   0.25000   0.00000  Uiso   1.00
O101   O     0.43988   0.20625   0.25000   0.00000  Uiso   1.00
O102   O     0.56012   0.12709   0.25001   0.00000  Uiso   1.00
O103   O     0.56012   0.20625   0.25001   0.00000  Uiso   1.00
O104   O     0.43988   0.12709   0.25000   0.00000  Uiso   1.00
O105   O     0.50000   0.20626   0.18573   0.00000  Uiso   1.00
O106   O     0.50000   0.12707   0.31427   0.00000  Uiso   1.00
O107   O     0.50000   0.20626   0.31427   0.00000  Uiso   1.00
O108   O     0.50000   0.12707   0.18573   0.00000  Uiso   1.00
C109   C     0.75416   0.16666   0.25016   0.00000  Uiso   1.00
C110   C     0.97870   0.20855   0.24969   0.00000  Uiso   1.00
C111   C     0.97870   0.12469   0.24978   0.00000  Uiso   1.00
C112   C     0.68797   0.20855   0.25031   0.00000  Uiso   1.00
C113   C     0.82254   0.20582   0.04677   0.00000  Uiso   1.00
C114   C     0.82197   0.12587   0.45125   0.00000  Uiso   1.00
C115   C     0.84413   0.20582   0.45323   0.00000  Uiso   1.00
C116   C     0.84469   0.12587   0.04875   0.00000  Uiso   1.00
C117   C     0.82357   0.20638   0.09261   0.00000  Uiso   1.00
C118   C     0.82216   0.12608   0.40536   0.00000  Uiso   1.00
C119   C     0.84310   0.20638   0.40739   0.00000  Uiso   1.00
C120   C     0.91251   0.16666   0.24985   0.00000  Uiso   1.00
C121   C     0.84451   0.12608   0.09464   0.00000  Uiso   1.00
C122   C     0.83395   0.16639   0.11687   0.00000  Uiso   1.00
C123   C     0.83272   0.16639   0.38313   0.00000  Uiso   1.00
C124   C     0.83341   0.16569   0.02433   0.00000  Uiso   1.00
C125   C     0.83326   0.16569   0.47567   0.00000  Uiso   1.00
C126   C     0.95718   0.16663   0.24969   0.00000  Uiso   1.00
C127   C     0.70948   0.16663   0.25031   0.00000  Uiso   1.00
C128   C     0.83358   0.16663   0.16513   0.00000  Uiso   1.00
C129   C     0.83309   0.16663   0.33487   0.00000  Uiso   1.00
C130   C     0.80664   0.02472   0.22145   0.00000  Uiso   1.00
C131   C     0.86030   0.30868   0.27825   0.00000  Uiso   1.00
C132   C     0.86002   0.02472   0.27855   0.00000  Uiso   1.00
C133   C     0.80637   0.30868   0.22175   0.00000  Uiso   1.00
C134   C     0.68797   0.12469   0.25022   0.00000  Uiso   1.00
Cu135  Cu    0.83333   0.21355   0.25000   0.00000  Uiso   1.00
Cu136  Cu    0.83333   0.11978   0.25000   0.00000  Uiso   1.00
H137   H     0.81285   0.23682   0.02900   0.00000  Uiso   1.00
H138   H     0.96276   0.24139   0.24923   0.00000  Uiso   1.00
H139   H     0.96274   0.09186   0.24950   0.00000  Uiso   1.00
H140   H     0.70390   0.24139   0.25077   0.00000  Uiso   1.00
H141   H     0.81252   0.09470   0.46745   0.00000  Uiso   1.00
H142   H     0.85382   0.23682   0.47100   0.00000  Uiso   1.00
H143   H     0.85415   0.09470   0.03255   0.00000  Uiso   1.00
H144   H     0.81575   0.23805   0.10885   0.00000  Uiso   1.00
H145   H     0.81349   0.09489   0.38730   0.00000  Uiso   1.00
H146   H     0.85092   0.23805   0.39115   0.00000  Uiso   1.00
H147   H     0.85317   0.09489   0.11270   0.00000  Uiso   1.00
H148   H     0.70393   0.09186   0.25050   0.00000  Uiso   1.00
I149   I     0.76437   0.05955   0.17487   0.00000  Uiso   1.00
I150   I     0.90432   0.27418   0.32300   0.00000  Uiso   1.00
I151   I     0.90230   0.05955   0.32514   0.00000  Uiso   1.00
I152   I     0.76235   0.27418   0.17700   0.00000  Uiso   1.00
N153   N     0.83333   0.28402   0.25000   0.00000  Uiso   1.00
N154   N     0.83333   0.04931   0.25000   0.00000  Uiso   1.00
O155   O     0.77321   0.20625   0.25000   0.00000  Uiso   1.00
O156   O     0.89345   0.12709   0.25001   0.00000  Uiso   1.00
O157   O     0.89345   0.20625   0.25001   0.00000  Uiso   1.00
O158   O     0.77321   0.12709   0.25000   0.00000  Uiso   1.00
O159   O     0.83333   0.20626   0.18573   0.00000  Uiso   1.00
O160   O     0.83334   0.12707   0.31427   0.00000  Uiso   1.00
O161   O     0.83334   0.20626   0.31427   0.00000  Uiso   1.00
O162   O     0.83333   0.12707   0.18573   0.00000  Uiso   1.00
C163   C     0.08749   0.49999   0.25016   0.00000  Uiso   1.00
C164   C     0.31203   0.54189   0.24969   0.00000  Uiso   1.00
C165   C     0.31203   0.45803   0.24978   0.00000  Uiso   1.00
C166   C     0.02130   0.54189   0.25031   0.00000  Uiso   1.00
C167   C     0.15587   0.53915   0.04677   0.00000  Uiso   1.00
C168   C     0.15531   0.45920   0.45125   0.00000  Uiso   1.00
C169   C     0.17746   0.53915   0.45323   0.00000  Uiso   1.00
C170   C     0.17803   0.45920   0.04875   0.00000  Uiso   1.00
C171   C     0.15690   0.53971   0.09261   0.00000  Uiso   1.00
C172   C     0.15549   0.45941   0.40536   0.00000  Uiso   1.00
C173   C     0.17643   0.53971   0.40739   0.00000  Uiso   1.00
C174   C     0.24584   0.49999   0.24985   0.00000  Uiso   1.00
C175   C     0.17784   0.45941   0.09464   0.00000  Uiso   1.00
C176   C     0.16729   0.49973   0.11687   0.00000  Uiso   1.00
C177   C     0.16605   0.49973   0.38313   0.00000  Uiso   1.00
C178   C     0.16674   0.49902   0.02433   0.00000  Uiso   1.00
C179   C     0.16659   0.49902   0.47567   0.00000  Uiso   1.00
C180   C     0.29052   0.49997   0.24969   0.00000  Uiso   1.00
C181   C     0.04282   0.49997   0.25031   0.00000  Uiso   1.00
C182   C     0.16691   0.49996   0.16513   0.00000  Uiso   1.00
C183   C     0.16642   0.49996   0.33487   0.00000  Uiso   1.00
C184   C     0.13998   0.35805   0.22145   0.00000  Uiso   1.00
C185   C     0.19363   0.64202   0.27825   0.00000  Uiso   1.00
C186   C     0.19336   0.35805   0.27855   0.00000  Uiso   1.00
C187   C     0.13970   0.64202   0.22175   0.00000  Uiso   1.00
C188   C     0.02130   0.45803   0.25022   0.00000  Uiso   1.00
Cu189  Cu    0.16667   0.54689   0.25000   0.00000  Uiso   1.00
Cu190  Cu    0.16667   0.45311   0.25000   0.00000  Uiso   1.00
H191   H     0.14618   0.57015   0.02900   0.00000  Uiso   1.00
H192   H     0.29610   0.57472   0.24923   0.00000  Uiso   1.00
H193   H     0.29607   0.42520   0.24950   0.00000  Uiso   1.00
H194   H     0.03724   0.57472   0.25077   0.00000  Uiso   1.00
H195   H     0.14585   0.42803   0.46745   0.00000  Uiso   1.00
H196   H     0.18715   0.57015   0.47100   0.00000  Uiso   1.00
H197   H     0.18748   0.42803   0.03255   0.00000  Uiso   1.00
H198   H     0.14908   0.57138   0.10885   0.00000  Uiso   1.00
H199   H     0.14683   0.42822   0.38730   0.00000  Uiso   1.00
H200   H     0.18425   0.57138   0.39115   0.00000  Uiso   1.00
H201   H     0.18651   0.42822   0.11270   0.00000  Uiso   1.00
H202   H     0.03726   0.42520   0.25050   0.00000  Uiso   1.00
I203   I     0.09770   0.39288   0.17487   0.00000  Uiso   1.00
I204   I     0.23765   0.60752   0.32300   0.00000  Uiso   1.00
I205   I     0.23563   0.39288   0.32514   0.00000  Uiso   1.00
I206   I     0.09568   0.60752   0.17700   0.00000  Uiso   1.00
N207   N     0.16667   0.61736   0.25000   0.00000  Uiso   1.00
N208   N     0.16667   0.38264   0.25000   0.00000  Uiso   1.00
O209   O     0.10655   0.53958   0.25000   0.00000  Uiso   1.00
O210   O     0.22679   0.46042   0.25001   0.00000  Uiso   1.00
O211   O     0.22679   0.53958   0.25001   0.00000  Uiso   1.00
O212   O     0.10655   0.46042   0.25000   0.00000  Uiso   1.00
O213   O     0.16666   0.53959   0.18573   0.00000  Uiso   1.00
O214   O     0.16667   0.46041   0.31427   0.00000  Uiso   1.00
O215   O     0.16667   0.53959   0.31427   0.00000  Uiso   1.00
O216   O     0.16666   0.46041   0.18573   0.00000  Uiso   1.00
C217   C     0.42083   0.49999   0.25016   0.00000  Uiso   1.00
C218   C     0.64537   0.54189   0.24969   0.00000  Uiso   1.00
C219   C     0.64536   0.45803   0.24978   0.00000  Uiso   1.00
C220   C     0.35463   0.54189   0.25031   0.00000  Uiso   1.00
C221   C     0.48921   0.53915   0.04677   0.00000  Uiso   1.00
C222   C     0.48864   0.45920   0.45125   0.00000  Uiso   1.00
C223   C     0.51079   0.53915   0.45323   0.00000  Uiso   1.00
C224   C     0.51136   0.45920   0.04875   0.00000  Uiso   1.00
C225   C     0.49024   0.53971   0.09261   0.00000  Uiso   1.00
C226   C     0.48883   0.45941   0.40536   0.00000  Uiso   1.00
C227   C     0.50976   0.53971   0.40739   0.00000  Uiso   1.00
C228   C     0.57917   0.49999   0.24985   0.00000  Uiso   1.00
C229   C     0.51117   0.45941   0.09464   0.00000  Uiso   1.00
C230   C     0.50062   0.49973   0.11687   0.00000  Uiso   1.00
C231   C     0.49938   0.49973   0.38313   0.00000  Uiso   1.00
C232   C     0.50007   0.49902   0.02433   0.00000  Uiso   1.00
C233   C     0.49993   0.49902   0.47567   0.00000  Uiso   1.00
C234   C     0.62385   0.49997   0.24969   0.00000  Uiso   1.00
C235   C     0.37615   0.49997   0.25031   0.00000  Uiso   1.00
C236   C     0.50024   0.49996   0.16513   0.00000  Uiso   1.00
C237   C     0.49976   0.49996   0.33487   0.00000  Uiso   1.00
C238   C     0.47331   0.35805   0.22145   0.00000  Uiso   1.00
C239   C     0.52696   0.64202   0.27825   0.00000  Uiso   1.00
C240   C     0.52669   0.35805   0.27855   0.00000  Uiso   1.00
C241   C     0.47304   0.64202   0.22175   0.00000  Uiso   1.00
C242   C     0.35464   0.45803   0.25022   0.00000  Uiso   1.00
Cu243  Cu    0.50000   0.54689   0.25000   0.00000  Uiso   1.00
Cu244  Cu    0.50000   0.45311   0.25000   0.00000  Uiso   1.00
H245   H     0.47951   0.57015   0.02900   0.00000  Uiso   1.00
H246   H     0.62943   0.57472   0.24923   0.00000  Uiso   1.00
H247   H     0.62940   0.42520   0.24950   0.00000  Uiso   1.00
H248   H     0.37057   0.57472   0.25077   0.00000  Uiso   1.00
H249   H     0.47918   0.42803   0.46745   0.00000  Uiso   1.00
H250   H     0.52049   0.57015   0.47100   0.00000  Uiso   1.00
H251   H     0.52082   0.42803   0.03255   0.00000  Uiso   1.00
H252   H     0.48241   0.57138   0.10885   0.00000  Uiso   1.00
H253   H     0.48016   0.42822   0.38730   0.00000  Uiso   1.00
H254   H     0.51759   0.57138   0.39115   0.00000  Uiso   1.00
H255   H     0.51984   0.42822   0.11270   0.00000  Uiso   1.00
H256   H     0.37060   0.42520   0.25050   0.00000  Uiso   1.00
I257   I     0.43104   0.39288   0.17487   0.00000  Uiso   1.00
I258   I     0.57098   0.60752   0.32300   0.00000  Uiso   1.00
I259   I     0.56897   0.39288   0.32514   0.00000  Uiso   1.00
I260   I     0.42902   0.60752   0.17700   0.00000  Uiso   1.00
N261   N     0.50000   0.61736   0.25000   0.00000  Uiso   1.00
N262   N     0.50000   0.38264   0.25000   0.00000  Uiso   1.00
O263   O     0.43988   0.53958   0.25000   0.00000  Uiso   1.00
O264   O     0.56012   0.46042   0.25001   0.00000  Uiso   1.00
O265   O     0.56012   0.53958   0.25001   0.00000  Uiso   1.00
O266   O     0.43988   0.46042   0.25000   0.00000  Uiso   1.00
O267   O     0.50000   0.53959   0.18573   0.00000  Uiso   1.00
O268   O     0.50000   0.46041   0.31427   0.00000  Uiso   1.00
O269   O     0.50000   0.53959   0.31427   0.00000  Uiso   1.00
O270   O     0.50000   0.46041   0.18573   0.00000  Uiso   1.00
C271   C     0.75416   0.49999   0.25016   0.00000  Uiso   1.00
C272   C     0.97870   0.54189   0.24969   0.00000  Uiso   1.00
C273   C     0.97870   0.45803   0.24978   0.00000  Uiso   1.00
C274   C     0.68797   0.54189   0.25031   0.00000  Uiso   1.00
C275   C     0.82254   0.53915   0.04677   0.00000  Uiso   1.00
C276   C     0.82197   0.45920   0.45125   0.00000  Uiso   1.00
C277   C     0.84413   0.53915   0.45323   0.00000  Uiso   1.00
C278   C     0.84469   0.45920   0.04875   0.00000  Uiso   1.00
C279   C     0.82357   0.53971   0.09261   0.00000  Uiso   1.00
C280   C     0.82216   0.45941   0.40536   0.00000  Uiso   1.00
C281   C     0.84310   0.53971   0.40739   0.00000  Uiso   1.00
C282   C     0.91251   0.49999   0.24985   0.00000  Uiso   1.00
C283   C     0.84451   0.45941   0.09464   0.00000  Uiso   1.00
C284   C     0.83395   0.49973   0.11687   0.00000  Uiso   1.00
C285   C     0.83272   0.49973   0.38313   0.00000  Uiso   1.00
C286   C     0.83341   0.49902   0.02433   0.00000  Uiso   1.00
C287   C     0.83326   0.49902   0.47567   0.00000  Uiso   1.00
C288   C     0.95718   0.49997   0.24969   0.00000  Uiso   1.00
C289   C     0.70948   0.49997   0.25031   0.00000  Uiso   1.00
C290   C     0.83358   0.49996   0.16513   0.00000  Uiso   1.00
C291   C     0.83309   0.49996   0.33487   0.00000  Uiso   1.00
C292   C     0.80664   0.35805   0.22145   0.00000  Uiso   1.00
C293   C     0.86030   0.64202   0.27825   0.00000  Uiso   1.00
C294   C     0.86002   0.35805   0.27855   0.00000  Uiso   1.00
C295   C     0.80637   0.64202   0.22175   0.00000  Uiso   1.00
C296   C     0.68797   0.45803   0.25022   0.00000  Uiso   1.00
Cu297  Cu    0.83333   0.54689   0.25000   0.00000  Uiso   1.00
Cu298  Cu    0.83333   0.45311   0.25000   0.00000  Uiso   1.00
H299   H     0.81285   0.57015   0.02900   0.00000  Uiso   1.00
H300   H     0.96276   0.57472   0.24923   0.00000  Uiso   1.00
H301   H     0.96274   0.42520   0.24950   0.00000  Uiso   1.00
H302   H     0.70390   0.57472   0.25077   0.00000  Uiso   1.00
H303   H     0.81252   0.42803   0.46745   0.00000  Uiso   1.00
H304   H     0.85382   0.57015   0.47100   0.00000  Uiso   1.00
H305   H     0.85415   0.42803   0.03255   0.00000  Uiso   1.00
H306   H     0.81575   0.57138   0.10885   0.00000  Uiso   1.00
H307   H     0.81349   0.42822   0.38730   0.00000  Uiso   1.00
H308   H     0.85092   0.57138   0.39115   0.00000  Uiso   1.00
H309   H     0.85317   0.42822   0.11270   0.00000  Uiso   1.00
H310   H     0.70393   0.42520   0.25050   0.00000  Uiso   1.00
I311   I     0.76437   0.39288   0.17487   0.00000  Uiso   1.00
I312   I     0.90432   0.60752   0.32300   0.00000  Uiso   1.00
I313   I     0.90230   0.39288   0.32514   0.00000  Uiso   1.00
I314   I     0.76235   0.60752   0.17700   0.00000  Uiso   1.00
N315   N     0.83333   0.61736   0.25000   0.00000  Uiso   1.00
N316   N     0.83333   0.38264   0.25000   0.00000  Uiso   1.00
O317   O     0.77321   0.53958   0.25000   0.00000  Uiso   1.00
O318   O     0.89345   0.46042   0.25001   0.00000  Uiso   1.00
O319   O     0.89345   0.53958   0.25001   0.00000  Uiso   1.00
O320   O     0.77321   0.46042   0.25000   0.00000  Uiso   1.00
O321   O     0.83333   0.53959   0.18573   0.00000  Uiso   1.00
O322   O     0.83334   0.46041   0.31427   0.00000  Uiso   1.00
O323   O     0.83334   0.53959   0.31427   0.00000  Uiso   1.00
O324   O     0.83333   0.46041   0.18573   0.00000  Uiso   1.00
C325   C     0.08749   0.83333   0.25016   0.00000  Uiso   1.00
C326   C     0.31203   0.87522   0.24969   0.00000  Uiso   1.00
C327   C     0.31203   0.79136   0.24978   0.00000  Uiso   1.00
C328   C     0.02130   0.87522   0.25031   0.00000  Uiso   1.00
C329   C     0.15587   0.87249   0.04677   0.00000  Uiso   1.00
C330   C     0.15531   0.79254   0.45125   0.00000  Uiso   1.00
C331   C     0.17746   0.87249   0.45323   0.00000  Uiso   1.00
C332   C     0.17803   0.79254   0.04875   0.00000  Uiso   1.00
C333   C     0.15690   0.87305   0.09261   0.00000  Uiso   1.00
C334   C     0.15549   0.79275   0.40536   0.00000  Uiso   1.00
C335   C     0.17643   0.87305   0.40739   0.00000  Uiso   1.00
C336   C     0.24584   0.83333   0.24985   0.00000  Uiso   1.00
C337   C     0.17784   0.79275   0.09464   0.00000  Uiso   1.00
C338   C     0.16729   0.83306   0.11687   0.00000  Uiso   1.00
C339   C     0.16605   0.83306   0.38313   0.00000  Uiso   1.00
C340   C     0.16674   0.83235   0.02433   0.00000  Uiso   1.00
C341   C     0.16659   0.83235   0.47567   0.00000  Uiso   1.00
C342   C     0.29052   0.83330   0.24969   0.00000  Uiso   1.00
C343   C     0.04282   0.83330   0.25031   0.00000  Uiso   1.00
C344   C     0.16691   0.83330   0.16513   0.00000  Uiso   1.00
C345   C     0.16642   0.83330   0.33487   0.00000  Uiso   1.00
C346   C     0.13998   0.69139   0.22145   0.00000  Uiso   1.00
C347   C     0.19363   0.97535   0.27825   0.00000  Uiso   1.00
C348   C     0.19336   0.69139   0.27855   0.00000  Uiso   1.00
C349   C     0.13970   0.97535   0.22175   0.00000  Uiso   1.00
C350   C     0.02130   0.79136   0.25022   0.00000  Uiso   1.00
Cu351  Cu    0.16667   0.88022   0.25000   0.00000  Uiso   1.00
Cu352  Cu    0.16667   0.78645   0.25000   0.00000  Uiso   1.00
H353   H     0.14618   0.90349   0.02900   0.00000  Uiso   1.00
H354   H     0.29610   0.90806   0.24923   0.00000  Uiso   1.00
H355   H     0.29607   0.75853   0.24950   0.00000  Uiso   1.00
H356   H     0.03724   0.90805   0.25077   0.00000  Uiso   1.00
H357   H     0.14585   0.76137   0.46745   0.00000  Uiso   1.00
H358   H     0.18715   0.90349   0.47100   0.00000  Uiso   1.00
H359   H     0.18748   0.76137   0.03255   0.00000  Uiso   1.00
H360   H     0.14908   0.90472   0.10885   0.00000  Uiso   1.00
H361   H     0.14683   0.76155   0.38730   0.00000  Uiso   1.00
H362   H     0.18425   0.90472   0.39115   0.00000  Uiso   1.00
H363   H     0.18651   0.76155   0.11270   0.00000  Uiso   1.00
H364   H     0.03726   0.75853   0.25050   0.00000  Uiso   1.00
I365   I     0.09770   0.72621   0.17487   0.00000  Uiso   1.00
I366   I     0.23765   0.94085   0.32300   0.00000  Uiso   1.00
I367   I     0.23563   0.72621   0.32514   0.00000  Uiso   1.00
I368   I     0.09568   0.94085   0.17700   0.00000  Uiso   1.00
N369   N     0.16667   0.95069   0.25000   0.00000  Uiso   1.00
N370   N     0.16667   0.71598   0.25000   0.00000  Uiso   1.00
O371   O     0.10655   0.87291   0.25000   0.00000  Uiso   1.00
O372   O     0.22679   0.79375   0.25001   0.00000  Uiso   1.00
O373   O     0.22679   0.87291   0.25001   0.00000  Uiso   1.00
O374   O     0.10655   0.79375   0.25000   0.00000  Uiso   1.00
O375   O     0.16666   0.87293   0.18573   0.00000  Uiso   1.00
O376   O     0.16667   0.79374   0.31427   0.00000  Uiso   1.00
O377   O     0.16667   0.87293   0.31427   0.00000  Uiso   1.00
O378   O     0.16666   0.79374   0.18573   0.00000  Uiso   1.00
C379   C     0.42083   0.83333   0.25016   0.00000  Uiso   1.00
C380   C     0.64537   0.87522   0.24969   0.00000  Uiso   1.00
C381   C     0.64536   0.79136   0.24978   0.00000  Uiso   1.00
C382   C     0.35463   0.87522   0.25031   0.00000  Uiso   1.00
C383   C     0.48921   0.87249   0.04677   0.00000  Uiso   1.00
C384   C     0.48864   0.79254   0.45125   0.00000  Uiso   1.00
C385   C     0.51079   0.87249   0.45323   0.00000  Uiso   1.00
C386   C     0.51136   0.79254   0.04875   0.00000  Uiso   1.00
C387   C     0.49024   0.87305   0.09261   0.00000  Uiso   1.00
C388   C     0.48883   0.79275   0.40536   0.00000  Uiso   1.00
C389   C     0.50976   0.87305   0.40739   0.00000  Uiso   1.00
C390   C     0.57917   0.83333   0.24985   0.00000  Uiso   1.00
C391   C     0.51117   0.79275   0.09464   0.00000  Uiso   1.00
C392   C     0.50062   0.83306   0.11687   0.00000  Uiso   1.00
C393   C     0.49938   0.83306   0.38313   0.00000  Uiso   1.00
C394   C     0.50007   0.83235   0.02433   0.00000  Uiso   1.00
C395   C     0.49993   0.83235   0.47567   0.00000  Uiso   1.00
C396   C     0.62385   0.83330   0.24969   0.00000  Uiso   1.00
C397   C     0.37615   0.83330   0.25031   0.00000  Uiso   1.00
C398   C     0.50024   0.83330   0.16513   0.00000  Uiso   1.00
C399   C     0.49976   0.83330   0.33487   0.00000  Uiso   1.00
C400   C     0.47331   0.69139   0.22145   0.00000  Uiso   1.00
C401   C     0.52696   0.97535   0.27825   0.00000  Uiso   1.00
C402   C     0.52669   0.69139   0.27855   0.00000  Uiso   1.00
C403   C     0.47304   0.97535   0.22175   0.00000  Uiso   1.00
C404   C     0.35464   0.79136   0.25022   0.00000  Uiso   1.00
Cu405  Cu    0.50000   0.88022   0.25000   0.00000  Uiso   1.00
Cu406  Cu    0.50000   0.78645   0.25000   0.00000  Uiso   1.00
H407   H     0.47951   0.90349   0.02900   0.00000  Uiso   1.00
H408   H     0.62943   0.90806   0.24923   0.00000  Uiso   1.00
H409   H     0.62940   0.75853   0.24950   0.00000  Uiso   1.00
H410   H     0.37057   0.90805   0.25077   0.00000  Uiso   1.00
H411   H     0.47918   0.76137   0.46745   0.00000  Uiso   1.00
H412   H     0.52049   0.90349   0.47100   0.00000  Uiso   1.00
H413   H     0.52082   0.76137   0.03255   0.00000  Uiso   1.00
H414   H     0.48241   0.90472   0.10885   0.00000  Uiso   1.00
H415   H     0.48016   0.76155   0.38730   0.00000  Uiso   1.00
H416   H     0.51759   0.90472   0.39115   0.00000  Uiso   1.00
H417   H     0.51984   0.76155   0.11270   0.00000  Uiso   1.00
H418   H     0.37060   0.75853   0.25050   0.00000  Uiso   1.00
I419   I     0.43104   0.72621   0.17487   0.00000  Uiso   1.00
I420   I     0.57098   0.94085   0.32300   0.00000  Uiso   1.00
I421   I     0.56897   0.72621   0.32514   0.00000  Uiso   1.00
I422   I     0.42902   0.94085   0.17700   0.00000  Uiso   1.00
N423   N     0.50000   0.95069   0.25000   0.00000  Uiso   1.00
N424   N     0.50000   0.71598   0.25000   0.00000  Uiso   1.00
O425   O     0.43988   0.87291   0.25000   0.00000  Uiso   1.00
O426   O     0.56012   0.79375   0.25001   0.00000  Uiso   1.00
O427   O     0.56012   0.87291   0.25001   0.00000  Uiso   1.00
O428   O     0.43988   0.79375   0.25000   0.00000  Uiso   1.00
O429   O     0.50000   0.87293   0.18573   0.00000  Uiso   1.00
O430   O     0.50000   0.79374   0.31427   0.00000  Uiso   1.00
O431   O     0.50000   0.87293   0.31427   0.00000  Uiso   1.00
O432   O     0.50000   0.79374   0.18573   0.00000  Uiso   1.00
C433   C     0.75416   0.83333   0.25016   0.00000  Uiso   1.00
C434   C     0.97870   0.87522   0.24969   0.00000  Uiso   1.00
C435   C     0.97870   0.79136   0.24978   0.00000  Uiso   1.00
C436   C     0.68797   0.87522   0.25031   0.00000  Uiso   1.00
C437   C     0.82254   0.87249   0.04677   0.00000  Uiso   1.00
C438   C     0.82197   0.79254   0.45125   0.00000  Uiso   1.00
C439   C     0.84413   0.87249   0.45323   0.00000  Uiso   1.00
C440   C     0.84469   0.79254   0.04875   0.00000  Uiso   1.00
C441   C     0.82357   0.87305   0.09261   0.00000  Uiso   1.00
C442   C     0.82216   0.79275   0.40536   0.00000  Uiso   1.00
C443   C     0.84310   0.87305   0.40739   0.00000  Uiso   1.00
C444   C     0.91251   0.83333   0.24985   0.00000  Uiso   1.00
C445   C     0.84451   0.79275   0.09464   0.00000  Uiso   1.00
C446   C     0.83395   0.83306   0.11687   0.00000  Uiso   1.00
C447   C     0.83272   0.83306   0.38313   0.00000  Uiso   1.00
C448   C     0.83341   0.83235   0.02433   0.00000  Uiso   1.00
C449   C     0.83326   0.83235   0.47567   0.00000  Uiso   1.00
C450   C     0.95718   0.83330   0.24969   0.00000  Uiso   1.00
C451   C     0.70948   0.83330   0.25031   0.00000  Uiso   1.00
C452   C     0.83358   0.83330   0.16513   0.00000  Uiso   1.00
C453   C     0.83309   0.83330   0.33487   0.00000  Uiso   1.00
C454   C     0.80664   0.69139   0.22145   0.00000  Uiso   1.00
C455   C     0.86030   0.97535   0.27825   0.00000  Uiso   1.00
C456   C     0.86002   0.69139   0.27855   0.00000  Uiso   1.00
C457   C     0.80637   0.97535   0.22175   0.00000  Uiso   1.00
C458   C     0.68797   0.79136   0.25022   0.00000  Uiso   1.00
Cu459  Cu    0.83333   0.88022   0.25000   0.00000  Uiso   1.00
Cu460  Cu    0.83333   0.78645   0.25000   0.00000  Uiso   1.00
H461   H     0.81285   0.90349   0.02900   0.00000  Uiso   1.00
H462   H     0.96276   0.90806   0.24923   0.00000  Uiso   1.00
H463   H     0.96274   0.75853   0.24950   0.00000  Uiso   1.00
H464   H     0.70390   0.90805   0.25077   0.00000  Uiso   1.00
H465   H     0.81252   0.76137   0.46745   0.00000  Uiso   1.00
H466   H     0.85382   0.90349   0.47100   0.00000  Uiso   1.00
H467   H     0.85415   0.76137   0.03255   0.00000  Uiso   1.00
H468   H     0.81575   0.90472   0.10885   0.00000  Uiso   1.00
H469   H     0.81349   0.76155   0.38730   0.00000  Uiso   1.00
H470   H     0.85092   0.90472   0.39115   0.00000  Uiso   1.00
H471   H     0.85317   0.76155   0.11270   0.00000  Uiso   1.00
H472   H     0.70393   0.75853   0.25050   0.00000  Uiso   1.00
I473   I     0.76437   0.72621   0.17487   0.00000  Uiso   1.00
I474   I     0.90432   0.94085   0.32300   0.00000  Uiso   1.00
I475   I     0.90230   0.72621   0.32514   0.00000  Uiso   1.00
I476   I     0.76235   0.94085   0.17700   0.00000  Uiso   1.00
N477   N     0.83333   0.95069   0.25000   0.00000  Uiso   1.00
N478   N     0.83333   0.71598   0.25000   0.00000  Uiso   1.00
O479   O     0.77321   0.87291   0.25000   0.00000  Uiso   1.00
O480   O     0.89345   0.79375   0.25001   0.00000  Uiso   1.00
O481   O     0.89345   0.87291   0.25001   0.00000  Uiso   1.00
O482   O     0.77321   0.79375   0.25000   0.00000  Uiso   1.00
O483   O     0.83333   0.87293   0.18573   0.00000  Uiso   1.00
O484   O     0.83334   0.79374   0.31427   0.00000  Uiso   1.00
O485   O     0.83334   0.87293   0.31427   0.00000  Uiso   1.00
O486   O     0.83333   0.79374   0.18573   0.00000  Uiso   1.00
C487   C     0.08749   0.16666   0.75016   0.00000  Uiso   1.00
C488   C     0.31203   0.20855   0.74969   0.00000  Uiso   1.00
C489   C     0.31203   0.12469   0.74978   0.00000  Uiso   1.00
C490   C     0.02130   0.20855   0.75031   0.00000  Uiso   1.00
C491   C     0.15587   0.20582   0.54677   0.00000  Uiso   1.00
C492   C     0.15531   0.12587   0.95125   0.00000  Uiso   1.00
C493   C     0.17746   0.20582   0.95323   0.00000  Uiso   1.00
C494   C     0.17803   0.12587   0.54875   0.00000  Uiso   1.00
C495   C     0.15690   0.20638   0.59261   0.00000  Uiso   1.00
C496   C     0.15549   0.12608   0.90536   0.00000  Uiso   1.00
C497   C     0.17643   0.20638   0.90739   0.00000  Uiso   1.00
C498   C     0.24584   0.16666   0.74985   0.00000  Uiso   1.00
C499   C     0.17784   0.12608   0.59464   0.00000  Uiso   1.00
C500   C     0.16729   0.16639   0.61687   0.00000  Uiso   1.00
C501   C     0.16605   0.16639   0.88313   0.00000  Uiso   1.00
C502   C     0.16674   0.16569   0.52433   0.00000  Uiso   1.00
C503   C     0.16659   0.16569   0.97567   0.00000  Uiso   1.00
C504   C     0.29052   0.16663   0.74969   0.00000  Uiso   1.00
C505   C     0.04282   0.16663   0.75031   0.00000  Uiso   1.00
C506   C     0.16691   0.16663   0.66513   0.00000  Uiso   1.00
C507   C     0.16642   0.16663   0.83487   0.00000  Uiso   1.00
C508   C     0.13998   0.02472   0.72145   0.00000  Uiso   1.00
C509   C     0.19363   0.30868   0.77825   0.00000  Uiso   1.00
C510   C     0.19336   0.02472   0.77855   0.00000  Uiso   1.00
C511   C     0.13970   0.30868   0.72175   0.00000  Uiso   1.00
C512   C     0.02130   0.12469   0.75022   0.00000  Uiso   1.00
Cu513  Cu    0.16667   0.21355   0.75000   0.00000  Uiso   1.00
Cu514  Cu    0.16667   0.11978   0.75000   0.00000  Uiso   1.00
H515   H     0.14618   0.23682   0.52900   0.00000  Uiso   1.00
H516   H     0.29610   0.24139   0.74923   0.00000  Uiso   1.00
H517   H     0.29607   0.09186   0.74950   0.00000  Uiso   1.00
H518   H     0.03724   0.24139   0.75077   0.00000  Uiso   1.00
H519   H     0.14585   0.09470   0.96745   0.00000  Uiso   1.00
H520   H     0.18715   0.23682   0.97100   0.00000  Uiso   1.00
H521   H     0.18748   0.09470   0.53255   0.00000  Uiso   1.00
H522   H     0.14908   0.23805   0.60885   0.00000  Uiso   1.00
H523   H     0.14683   0.09489   0.88730   0.00000  Uiso   1.00
H524   H     0.18425   0.23805   0.89115   0.00000  Uiso   1.00
H525   H     0.18651   0.09489   0.61270   0.00000  Uiso   1.00
H526   H     0.03726   0.09186   0.75050   0.00000  Uiso   1.00
I527   I     0.09770   0.05955   0.67487   0.00000  Uiso   1.00
I528   I     0.23765   0.27418   0.82300   0.00000  Uiso   1.00
I529   I     0.23563   0.05955   0.82514   0.00000  Uiso   1.00
I530   I     0.09568   0.27418   0.67700   0.00000  Uiso   1.00
N531   N     0.16667   0.28402   0.75000   0.00000  Uiso   1.00
N532   N     0.16667   0.04931   0.75000   0.00000  Uiso   1.00
O533   O     0.10655   0.20625   0.75000   0.00000  Uiso   1.00
O534   O     0.22679   0.12709   0.75001   0.00000  Uiso   1.00
O535   O     0.22679   0.20625   0.75001   0.00000  Uiso   1.00
O536   O     0.10655   0.12709   0.75000   0.00000  Uiso   1.00
O537   O     0.16666   0.20626   0.68573   0.00000  Uiso   1.00
O538   O     0.16667   0.12707   0.81427   0.00000  Uiso   1.00
O539   O     0.16667   0.20626   0.81427   0.00000  Uiso   1.00
O540   O     0.16666   0.12707   0.68573   0.00000  Uiso   1.00
C541   C     0.42083   0.16666   0.75016   0.00000  Uiso   1.00
C542   C     0.64537   0.20855   0.74969   0.00000  Uiso   1.00
C543   C     0.64536   0.12469   0.74978   0.00000  Uiso   1.00
C544   C     0.35463   0.20855   0.75031   0.00000  Uiso   1.00
C545   C     0.48921   0.20582   0.54677   0.00000  Uiso   1.00
C546   C     0.48864   0.12587   0.95125   0.00000  Uiso   1.00
C547   C     0.51079   0.20582   0.95323   0.00000  Uiso   1.00
C548   C     0.51136   0.12587   0.54875   0.00000  Uiso   1.00
C549   C     0.49024   0.20638   0.59261   0.00000  Uiso   1.00
C550   C     0.48883   0.12608   0.90536   0.00000  Uiso   1.00
C551   C     0.50976   0.20638   0.90739   0.00000  Uiso   1.00
C552   C     0.57917   0.16666   0.74985   0.00000  Uiso   1.00
C553   C     0.51117   0.12608   0.59464   0.00000  Uiso   1.00
C554   C     0.50062   0.16639   0.61687   0.00000  Uiso   1.00
C555   C     0.49938   0.16639   0.88313   0.00000  Uiso   1.00
C556   C     0.50007   0.16569   0.52433   0.00000  Uiso   1.00
C557   C     0.49993   0.16569   0.97567   0.00000  Uiso   1.00
C558   C     0.62385   0.16663   0.74969   0.00000  Uiso   1.00
C559   C     0.37615   0.16663   0.75031   0.00000  Uiso   1.00
C560   C     0.50024   0.16663   0.66513   0.00000  Uiso   1.00
C561   C     0.49976   0.16663   0.83487   0.00000  Uiso   1.00
C562   C     0.47331   0.02472   0.72145   0.00000  Uiso   1.00
C563   C     0.52696   0.30868   0.77825   0.00000  Uiso   1.00
C564   C     0.52669   0.02472   0.77855   0.00000  Uiso   1.00
C565   C     0.47304   0.30868   0.72175   0.00000  Uiso   1.00
C566   C     0.35464   0.12469   0.75022   0.00000  Uiso   1.00
Cu567  Cu    0.50000   0.21355   0.75000   0.00000  Uiso   1.00
Cu568  Cu    0.50000   0.11978   0.75000   0.00000  Uiso   1.00
H569   H     0.47951   0.23682   0.52900   0.00000  Uiso   1.00
H570   H     0.62943   0.24139   0.74923   0.00000  Uiso   1.00
H571   H     0.62940   0.09186   0.74950   0.00000  Uiso   1.00
H572   H     0.37057   0.24139   0.75077   0.00000  Uiso   1.00
H573   H     0.47918   0.09470   0.96745   0.00000  Uiso   1.00
H574   H     0.52049   0.23682   0.97100   0.00000  Uiso   1.00
H575   H     0.52082   0.09470   0.53255   0.00000  Uiso   1.00
H576   H     0.48241   0.23805   0.60885   0.00000  Uiso   1.00
H577   H     0.48016   0.09489   0.88730   0.00000  Uiso   1.00
H578   H     0.51759   0.23805   0.89115   0.00000  Uiso   1.00
H579   H     0.51984   0.09489   0.61270   0.00000  Uiso   1.00
H580   H     0.37060   0.09186   0.75050   0.00000  Uiso   1.00
I581   I     0.43104   0.05955   0.67487   0.00000  Uiso   1.00
I582   I     0.57098   0.27418   0.82300   0.00000  Uiso   1.00
I583   I     0.56897   0.05955   0.82514   0.00000  Uiso   1.00
I584   I     0.42902   0.27418   0.67700   0.00000  Uiso   1.00
N585   N     0.50000   0.28402   0.75000   0.00000  Uiso   1.00
N586   N     0.50000   0.04931   0.75000   0.00000  Uiso   1.00
O587   O     0.43988   0.20625   0.75000   0.00000  Uiso   1.00
O588   O     0.56012   0.12709   0.75001   0.00000  Uiso   1.00
O589   O     0.56012   0.20625   0.75001   0.00000  Uiso   1.00
O590   O     0.43988   0.12709   0.75000   0.00000  Uiso   1.00
O591   O     0.50000   0.20626   0.68573   0.00000  Uiso   1.00
O592   O     0.50000   0.12707   0.81427   0.00000  Uiso   1.00
O593   O     0.50000   0.20626   0.81427   0.00000  Uiso   1.00
O594   O     0.50000   0.12707   0.68573   0.00000  Uiso   1.00
C595   C     0.75416   0.16666   0.75016   0.00000  Uiso   1.00
C596   C     0.97870   0.20855   0.74969   0.00000  Uiso   1.00
C597   C     0.97870   0.12469   0.74978   0.00000  Uiso   1.00
C598   C     0.68797   0.20855   0.75031   0.00000  Uiso   1.00
C599   C     0.82254   0.20582   0.54677   0.00000  Uiso   1.00
C600   C     0.82197   0.12587   0.95125   0.00000  Uiso   1.00
C601   C     0.84413   0.20582   0.95323   0.00000  Uiso   1.00
C602   C     0.84469   0.12587   0.54875   0.00000  Uiso   1.00
C603   C     0.82357   0.20638   0.59261   0.00000  Uiso   1.00
C604   C     0.82216   0.12608   0.90536   0.00000  Uiso   1.00
C605   C     0.84310   0.20638   0.90739   0.00000  Uiso   1.00
C606   C     0.91251   0.16666   0.74985   0.00000  Uiso   1.00
C607   C     0.84451   0.12608   0.59464   0.00000  Uiso   1.00
C608   C     0.83395   0.16639   0.61687   0.00000  Uiso   1.00
C609   C     0.83272   0.16639   0.88313   0.00000  Uiso   1.00
C610   C     0.83341   0.16569   0.52433   0.00000  Uiso   1.00
C611   C     0.83326   0.16569   0.97567   0.00000  Uiso   1.00
C612   C     0.95718   0.16663   0.74969   0.00000  Uiso   1.00
C613   C     0.70948   0.16663   0.75031   0.00000  Uiso   1.00
C614   C     0.83358   0.16663   0.66513   0.00000  Uiso   1.00
C615   C     0.83309   0.16663   0.83487   0.00000  Uiso   1.00
C616   C     0.80664   0.02472   0.72145   0.00000  Uiso   1.00
C617   C     0.86030   0.30868   0.77825   0.00000  Uiso   1.00
C618   C     0.86002   0.02472   0.77855   0.00000  Uiso   1.00
C619   C     0.80637   0.30868   0.72175   0.00000  Uiso   1.00
C620   C     0.68797   0.12469   0.75022   0.00000  Uiso   1.00
Cu621  Cu    0.83333   0.21355   0.75000   0.00000  Uiso   1.00
Cu622  Cu    0.83333   0.11978   0.75000   0.00000  Uiso   1.00
H623   H     0.81285   0.23682   0.52900   0.00000  Uiso   1.00
H624   H     0.96276   0.24139   0.74923   0.00000  Uiso   1.00
H625   H     0.96274   0.09186   0.74950   0.00000  Uiso   1.00
H626   H     0.70390   0.24139   0.75077   0.00000  Uiso   1.00
H627   H     0.81252   0.09470   0.96745   0.00000  Uiso   1.00
H628   H     0.85382   0.23682   0.97100   0.00000  Uiso   1.00
H629   H     0.85415   0.09470   0.53255   0.00000  Uiso   1.00
H630   H     0.81575   0.23805   0.60885   0.00000  Uiso   1.00
H631   H     0.81349   0.09489   0.88730   0.00000  Uiso   1.00
H632   H     0.85092   0.23805   0.89115   0.00000  Uiso   1.00
H633   H     0.85317   0.09489   0.61270   0.00000  Uiso   1.00
H634   H     0.70393   0.09186   0.75050   0.00000  Uiso   1.00
I635   I     0.76437   0.05955   0.67487   0.00000  Uiso   1.00
I636   I     0.90432   0.27418   0.82300   0.00000  Uiso   1.00
I637   I     0.90230   0.05955   0.82514   0.00000  Uiso   1.00
I638   I     0.76235   0.27418   0.67700   0.00000  Uiso   1.00
N639   N     0.83333   0.28402   0.75000   0.00000  Uiso   1.00
N640   N     0.83333   0.04931   0.75000   0.00000  Uiso   1.00
O641   O     0.77321   0.20625   0.75000   0.00000  Uiso   1.00
O642   O     0.89345   0.12709   0.75001   0.00000  Uiso   1.00
O643   O     0.89345   0.20625   0.75001   0.00000  Uiso   1.00
O644   O     0.77321   0.12709   0.75000   0.00000  Uiso   1.00
O645   O     0.83333   0.20626   0.68573   0.00000  Uiso   1.00
O646   O     0.83334   0.12707   0.81427   0.00000  Uiso   1.00
O647   O     0.83334   0.20626   0.81427   0.00000  Uiso   1.00
O648   O     0.83333   0.12707   0.68573   0.00000  Uiso   1.00
C649   C     0.08749   0.49999   0.75016   0.00000  Uiso   1.00
C650   C     0.31203   0.54189   0.74969   0.00000  Uiso   1.00
C651   C     0.31203   0.45803   0.74978   0.00000  Uiso   1.00
C652   C     0.02130   0.54189   0.75031   0.00000  Uiso   1.00
C653   C     0.15587   0.53915   0.54677   0.00000  Uiso   1.00
C654   C     0.15531   0.45920   0.95125   0.00000  Uiso   1.00
C655   C     0.17746   0.53915   0.95323   0.00000  Uiso   1.00
C656   C     0.17803   0.45920   0.54875   0.00000  Uiso   1.00
C657   C     0.15690   0.53971   0.59261   0.00000  Uiso   1.00
C658   C     0.15549   0.45941   0.90536   0.00000  Uiso   1.00
C659   C     0.17643   0.53971   0.90739   0.00000  Uiso   1.00
C660   C     0.24584   0.49999   0.74985   0.00000  Uiso   1.00
C661   C     0.17784   0.45941   0.59464   0.00000  Uiso   1.00
C662   C     0.16729   0.49973   0.61687   0.00000  Uiso   1.00
C663   C     0.16605   0.49973   0.88313   0.00000  Uiso   1.00
C664   C     0.16674   0.49902   0.52433   0.00000  Uiso   1.00
C665   C     0.16659   0.49902   0.97567   0.00000  Uiso   1.00
C666   C     0.29052   0.49997   0.74969   0.00000  Uiso   1.00
C667   C     0.04282   0.49997   0.75031   0.00000  Uiso   1.00
C668   C     0.16691   0.49996   0.66513   0.00000  Uiso   1.00
C669   C     0.16642   0.49996   0.83487   0.00000  Uiso   1.00
C670   C     0.13998   0.35805   0.72145   0.00000  Uiso   1.00
C671   C     0.19363   0.64202   0.77825   0.00000  Uiso   1.00
C672   C     0.19336   0.35805   0.77855   0.00000  Uiso   1.00
C673   C     0.13970   0.64202   0.72175   0.00000  Uiso   1.00
C674   C     0.02130   0.45803   0.75022   0.00000  Uiso   1.00
Cu675  Cu    0.16667   0.54689   0.75000   0.00000  Uiso   1.00
Cu676  Cu    0.16667   0.45311   0.75000   0.00000  Uiso   1.00
H677   H     0.14618   0.57015   0.52900   0.00000  Uiso   1.00
H678   H     0.29610   0.57472   0.74923   0.00000  Uiso   1.00
H679   H     0.29607   0.42520   0.74950   0.00000  Uiso   1.00
H680   H     0.03724   0.57472   0.75077   0.00000  Uiso   1.00
H681   H     0.14585   0.42803   0.96745   0.00000  Uiso   1.00
H682   H     0.18715   0.57015   0.97100   0.00000  Uiso   1.00
H683   H     0.18748   0.42803   0.53255   0.00000  Uiso   1.00
H684   H     0.14908   0.57138   0.60885   0.00000  Uiso   1.00
H685   H     0.14683   0.42822   0.88730   0.00000  Uiso   1.00
H686   H     0.18425   0.57138   0.89115   0.00000  Uiso   1.00
H687   H     0.18651   0.42822   0.61270   0.00000  Uiso   1.00
H688   H     0.03726   0.42520   0.75050   0.00000  Uiso   1.00
I689   I     0.09770   0.39288   0.67487   0.00000  Uiso   1.00
I690   I     0.23765   0.60752   0.82300   0.00000  Uiso   1.00
I691   I     0.23563   0.39288   0.82514   0.00000  Uiso   1.00
I692   I     0.09568   0.60752   0.67700   0.00000  Uiso   1.00
N693   N     0.16667   0.61736   0.75000   0.00000  Uiso   1.00
N694   N     0.16667   0.38264   0.75000   0.00000  Uiso   1.00
O695   O     0.10655   0.53958   0.75000   0.00000  Uiso   1.00
O696   O     0.22679   0.46042   0.75001   0.00000  Uiso   1.00
O697   O     0.22679   0.53958   0.75001   0.00000  Uiso   1.00
O698   O     0.10655   0.46042   0.75000   0.00000  Uiso   1.00
O699   O     0.16666   0.53959   0.68573   0.00000  Uiso   1.00
O700   O     0.16667   0.46041   0.81427   0.00000  Uiso   1.00
O701   O     0.16667   0.53959   0.81427   0.00000  Uiso   1.00
O702   O     0.16666   0.46041   0.68573   0.00000  Uiso   1.00
C703   C     0.42083   0.49999   0.75016   0.00000  Uiso   1.00
C704   C     0.64537   0.54189   0.74969   0.00000  Uiso   1.00
C705   C     0.64536   0.45803   0.74978   0.00000  Uiso   1.00
C706   C     0.35463   0.54189   0.75031   0.00000  Uiso   1.00
C707   C     0.48921   0.53915   0.54677   0.00000  Uiso   1.00
C708   C     0.48864   0.45920   0.95125   0.00000  Uiso   1.00
C709   C     0.51079   0.53915   0.95323   0.00000  Uiso   1.00
C710   C     0.51136   0.45920   0.54875   0.00000  Uiso   1.00
C711   C     0.49024   0.53971   0.59261   0.00000  Uiso   1.00
C712   C     0.48883   0.45941   0.90536   0.00000  Uiso   1.00
C713   C     0.50976   0.53971   0.90739   0.00000  Uiso   1.00
C714   C     0.57917   0.49999   0.74985   0.00000  Uiso   1.00
C715   C     0.51117   0.45941   0.59464   0.00000  Uiso   1.00
C716   C     0.50062   0.49973   0.61687   0.00000  Uiso   1.00
C717   C     0.49938   0.49973   0.88313   0.00000  Uiso   1.00
C718   C     0.50007   0.49902   0.52433   0.00000  Uiso   1.00
C719   C     0.49993   0.49902   0.97567   0.00000  Uiso   1.00
C720   C     0.62385   0.49997   0.74969   0.00000  Uiso   1.00
C721   C     0.37615   0.49997   0.75031   0.00000  Uiso   1.00
C722   C     0.50024   0.49996   0.66513   0.00000  Uiso   1.00
C723   C     0.49976   0.49996   0.83487   0.00000  Uiso   1.00
C724   C     0.47331   0.35805   0.72145   0.00000  Uiso   1.00
C725   C     0.52696   0.64202   0.77825   0.00000  Uiso   1.00
C726   C     0.52669   0.35805   0.77855   0.00000  Uiso   1.00
C727   C     0.47304   0.64202   0.72175   0.00000  Uiso   1.00
C728   C     0.35464   0.45803   0.75022   0.00000  Uiso   1.00
Cu729  Cu    0.50000   0.54689   0.75000   0.00000  Uiso   1.00
Cu730  Cu    0.50000   0.45311   0.75000   0.00000  Uiso   1.00
H731   H     0.47951   0.57015   0.52900   0.00000  Uiso   1.00
H732   H     0.62943   0.57472   0.74923   0.00000  Uiso   1.00
H733   H     0.62940   0.42520   0.74950   0.00000  Uiso   1.00
H734   H     0.37057   0.57472   0.75077   0.00000  Uiso   1.00
H735   H     0.47918   0.42803   0.96745   0.00000  Uiso   1.00
H736   H     0.52049   0.57015   0.97100   0.00000  Uiso   1.00
H737   H     0.52082   0.42803   0.53255   0.00000  Uiso   1.00
H738   H     0.48241   0.57138   0.60885   0.00000  Uiso   1.00
H739   H     0.48016   0.42822   0.88730   0.00000  Uiso   1.00
H740   H     0.51759   0.57138   0.89115   0.00000  Uiso   1.00
H741   H     0.51984   0.42822   0.61270   0.00000  Uiso   1.00
H742   H     0.37060   0.42520   0.75050   0.00000  Uiso   1.00
I743   I     0.43104   0.39288   0.67487   0.00000  Uiso   1.00
I744   I     0.57098   0.60752   0.82300   0.00000  Uiso   1.00
I745   I     0.56897   0.39288   0.82514   0.00000  Uiso   1.00
I746   I     0.42902   0.60752   0.67700   0.00000  Uiso   1.00
N747   N     0.50000   0.61736   0.75000   0.00000  Uiso   1.00
N748   N     0.50000   0.38264   0.75000   0.00000  Uiso   1.00
O749   O     0.43988   0.53958   0.75000   0.00000  Uiso   1.00
O750   O     0.56012   0.46042   0.75001   0.00000  Uiso   1.00
O751   O     0.56012   0.53958   0.75001   0.00000  Uiso   1.00
O752   O     0.43988   0.46042   0.75000   0.00000  Uiso   1.00
O753   O     0.50000   0.53959   0.68573   0.00000  Uiso   1.00
O754   O     0.50000   0.46041   0.81427   0.00000  Uiso   1.00
O755   O     0.50000   0.53959   0.81427   0.00000  Uiso   1.00
O756   O     0.50000   0.46041   0.68573   0.00000  Uiso   1.00
C757   C     0.75416   0.49999   0.75016   0.00000  Uiso   1.00
C758   C     0.97870   0.54189   0.74969   0.00000  Uiso   1.00
C759   C     0.97870   0.45803   0.74978   0.00000  Uiso   1.00
C760   C     0.68797   0.54189   0.75031   0.00000  Uiso   1.00
C761   C     0.82254   0.53915   0.54677   0.00000  Uiso   1.00
C762   C     0.82197   0.45920   0.95125   0.00000  Uiso   1.00
C763   C     0.84413   0.53915   0.95323   0.00000  Uiso   1.00
C764   C     0.84469   0.45920   0.54875   0.00000  Uiso   1.00
C765   C     0.82357   0.53971   0.59261   0.00000  Uiso   1.00
C766   C     0.82216   0.45941   0.90536   0.00000  Uiso   1.00
C767   C     0.84310   0.53971   0.90739   0.00000  Uiso   1.00
C768   C     0.91251   0.49999   0.74985   0.00000  Uiso   1.00
C769   C     0.84451   0.45941   0.59464   0.00000  Uiso   1.00
C770   C     0.83395   0.49973   0.61687   0.00000  Uiso   1.00
C771   C     0.83272   0.49973   0.88313   0.00000  Uiso   1.00
C772   C     0.83341   0.49902   0.52433   0.00000  Uiso   1.00
C773   C     0.83326   0.49902   0.97567   0.00000  Uiso   1.00
C774   C     0.95718   0.49997   0.74969   0.00000  Uiso   1.00
C775   C     0.70948   0.49997   0.75031   0.00000  Uiso   1.00
C776   C     0.83358   0.49996   0.66513   0.00000  Uiso   1.00
C777   C     0.83309   0.49996   0.83487   0.00000  Uiso   1.00
C778   C     0.80664   0.35805   0.72145   0.00000  Uiso   1.00
C779   C     0.86030   0.64202   0.77825   0.00000  Uiso   1.00
C780   C     0.86002   0.35805   0.77855   0.00000  Uiso   1.00
C781   C     0.80637   0.64202   0.72175   0.00000  Uiso   1.00
C782   C     0.68797   0.45803   0.75022   0.00000  Uiso   1.00
Cu783  Cu    0.83333   0.54689   0.75000   0.00000  Uiso   1.00
Cu784  Cu    0.83333   0.45311   0.75000   0.00000  Uiso   1.00
H785   H     0.81285   0.57015   0.52900   0.00000  Uiso   1.00
H786   H     0.96276   0.57472   0.74923   0.00000  Uiso   1.00
H787   H     0.96274   0.42520   0.74950   0.00000  Uiso   1.00
H788   H     0.70390   0.57472   0.75077   0.00000  Uiso   1.00
H789   H     0.81252   0.42803   0.96745   0.00000  Uiso   1.00
H790   H     0.85382   0.57015   0.97100   0.00000  Uiso   1.00
H791   H     0.85415   0.42803   0.53255   0.00000  Uiso   1.00
H792   H     0.81575   0.57138   0.60885   0.00000  Uiso   1.00
H793   H     0.81349   0.42822   0.88730   0.00000  Uiso   1.00
H794   H     0.85092   0.57138   0.89115   0.00000  Uiso   1.00
H795   H     0.85317   0.42822   0.61270   0.00000  Uiso   1.00
H796   H     0.70393   0.42520   0.75050   0.00000  Uiso   1.00
I797   I     0.76437   0.39288   0.67487   0.00000  Uiso   1.00
I798   I     0.90432   0.60752   0.82300   0.00000  Uiso   1.00
I799   I     0.90230   0.39288   0.82514   0.00000  Uiso   1.00
I800   I     0.76235   0.60752   0.67700   0.00000  Uiso   1.00
N801   N     0.83333   0.61736   0.75000   0.00000  Uiso   1.00
N802   N     0.83333   0.38264   0.75000   0.00000  Uiso   1.00
O803   O     0.77321   0.53958   0.75000   0.00000  Uiso   1.00
O804   O     0.89345   0.46042   0.75001   0.00000  Uiso   1.00
O805   O     0.89345   0.53958   0.75001   0.00000  Uiso   1.00
O806   O     0.77321   0.46042   0.75000   0.00000  Uiso   1.00
O807   O     0.83333   0.53959   0.68573   0.00000  Uiso   1.00
O808   O     0.83334   0.46041   0.81427   0.00000  Uiso   1.00
O809   O     0.83334   0.53959   0.81427   0.00000  Uiso   1.00
O810   O     0.83333   0.46041   0.68573   0.00000  Uiso   1.00
C811   C     0.08749   0.83333   0.75016   0.00000  Uiso   1.00
C812   C     0.31203   0.87522   0.74969   0.00000  Uiso   1.00
C813   C     0.31203   0.79136   0.74978   0.00000  Uiso   1.00
C814   C     0.02130   0.87522   0.75031   0.00000  Uiso   1.00
C815   C     0.15587   0.87249   0.54677   0.00000  Uiso   1.00
C816   C     0.15531   0.79254   0.95125   0.00000  Uiso   1.00
C817   C     0.17746   0.87249   0.95323   0.00000  Uiso   1.00
C818   C     0.17803   0.79254   0.54875   0.00000  Uiso   1.00
C819   C     0.15690   0.87305   0.59261   0.00000  Uiso   1.00
C820   C     0.15549   0.79275   0.90536   0.00000  Uiso   1.00
C821   C     0.17643   0.87305   0.90739   0.00000  Uiso   1.00
C822   C     0.24584   0.83333   0.74985   0.00000  Uiso   1.00
C823   C     0.17784   0.79275   0.59464   0.00000  Uiso   1.00
C824   C     0.16729   0.83306   0.61687   0.00000  Uiso   1.00
C825   C     0.16605   0.83306   0.88313   0.00000  Uiso   1.00
C826   C     0.16674   0.83235   0.52433   0.00000  Uiso   1.00
C827   C     0.16659   0.83235   0.97567   0.00000  Uiso   1.00
C828   C     0.29052   0.83330   0.74969   0.00000  Uiso   1.00
C829   C     0.04282   0.83330   0.75031   0.00000  Uiso   1.00
C830   C     0.16691   0.83330   0.66513   0.00000  Uiso   1.00
C831   C     0.16642   0.83330   0.83487   0.00000  Uiso   1.00
C832   C     0.13998   0.69139   0.72145   0.00000  Uiso   1.00
C833   C     0.19363   0.97535   0.77825   0.00000  Uiso   1.00
C834   C     0.19336   0.69139   0.77855   0.00000  Uiso   1.00
C835   C     0.13970   0.97535   0.72175   0.00000  Uiso   1.00
C836   C     0.02130   0.79136   0.75022   0.00000  Uiso   1.00
Cu837  Cu    0.16667   0.88022   0.75000   0.00000  Uiso   1.00
Cu838  Cu    0.16667   0.78645   0.75000   0.00000  Uiso   1.00
H839   H     0.14618   0.90349   0.52900   0.00000  Uiso   1.00
H840   H     0.29610   0.90806   0.74923   0.00000  Uiso   1.00
H841   H     0.29607   0.75853   0.74950   0.00000  Uiso   1.00
H842   H     0.03724   0.90805   0.75077   0.00000  Uiso   1.00
H843   H     0.14585   0.76137   0.96745   0.00000  Uiso   1.00
H844   H     0.18715   0.90349   0.97100   0.00000  Uiso   1.00
H845   H     0.18748   0.76137   0.53255   0.00000  Uiso   1.00
H846   H     0.14908   0.90472   0.60885   0.00000  Uiso   1.00
H847   H     0.14683   0.76155   0.88730   0.00000  Uiso   1.00
H848   H     0.18425   0.90472   0.89115   0.00000  Uiso   1.00
H849   H     0.18651   0.76155   0.61270   0.00000  Uiso   1.00
H850   H     0.03726   0.75853   0.75050   0.00000  Uiso   1.00
I851   I     0.09770   0.72621   0.67487   0.00000  Uiso   1.00
I852   I     0.23765   0.94085   0.82300   0.00000  Uiso   1.00
I853   I     0.23563   0.72621   0.82514   0.00000  Uiso   1.00
I854   I     0.09568   0.94085   0.67700   0.00000  Uiso   1.00
N855   N     0.16667   0.95069   0.75000   0.00000  Uiso   1.00
N856   N     0.16667   0.71598   0.75000   0.00000  Uiso   1.00
O857   O     0.10655   0.87291   0.75000   0.00000  Uiso   1.00
O858   O     0.22679   0.79375   0.75001   0.00000  Uiso   1.00
O859   O     0.22679   0.87291   0.75001   0.00000  Uiso   1.00
O860   O     0.10655   0.79375   0.75000   0.00000  Uiso   1.00
O861   O     0.16666   0.87293   0.68573   0.00000  Uiso   1.00
O862   O     0.16667   0.79374   0.81427   0.00000  Uiso   1.00
O863   O     0.16667   0.87293   0.81427   0.00000  Uiso   1.00
O864   O     0.16666   0.79374   0.68573   0.00000  Uiso   1.00
C865   C     0.42083   0.83333   0.75016   0.00000  Uiso   1.00
C866   C     0.64537   0.87522   0.74969   0.00000  Uiso   1.00
C867   C     0.64536   0.79136   0.74978   0.00000  Uiso   1.00
C868   C     0.35463   0.87522   0.75031   0.00000  Uiso   1.00
C869   C     0.48921   0.87249   0.54677   0.00000  Uiso   1.00
C870   C     0.48864   0.79254   0.95125   0.00000  Uiso   1.00
C871   C     0.51079   0.87249   0.95323   0.00000  Uiso   1.00
C872   C     0.51136   0.79254   0.54875   0.00000  Uiso   1.00
C873   C     0.49024   0.87305   0.59261   0.00000  Uiso   1.00
C874   C     0.48883   0.79275   0.90536   0.00000  Uiso   1.00
C875   C     0.50976   0.87305   0.90739   0.00000  Uiso   1.00
C876   C     0.57917   0.83333   0.74985   0.00000  Uiso   1.00
C877   C     0.51117   0.79275   0.59464   0.00000  Uiso   1.00
C878   C     0.50062   0.83306   0.61687   0.00000  Uiso   1.00
C879   C     0.49938   0.83306   0.88313   0.00000  Uiso   1.00
C880   C     0.50007   0.83235   0.52433   0.00000  Uiso   1.00
C881   C     0.49993   0.83235   0.97567   0.00000  Uiso   1.00
C882   C     0.62385   0.83330   0.74969   0.00000  Uiso   1.00
C883   C     0.37615   0.83330   0.75031   0.00000  Uiso   1.00
C884   C     0.50024   0.83330   0.66513   0.00000  Uiso   1.00
C885   C     0.49976   0.83330   0.83487   0.00000  Uiso   1.00
C886   C     0.47331   0.69139   0.72145   0.00000  Uiso   1.00
C887   C     0.52696   0.97535   0.77825   0.00000  Uiso   1.00
C888   C     0.52669   0.69139   0.77855   0.00000  Uiso   1.00
C889   C     0.47304   0.97535   0.72175   0.00000  Uiso   1.00
C890   C     0.35464   0.79136   0.75022   0.00000  Uiso   1.00
Cu891  Cu    0.50000   0.88022   0.75000   0.00000  Uiso   1.00
Cu892  Cu    0.50000   0.78645   0.75000   0.00000  Uiso   1.00
H893   H     0.47951   0.90349   0.52900   0.00000  Uiso   1.00
H894   H     0.62943   0.90806   0.74923   0.00000  Uiso   1.00
H895   H     0.62940   0.75853   0.74950   0.00000  Uiso   1.00
H896   H     0.37057   0.90805   0.75077   0.00000  Uiso   1.00
H897   H     0.47918   0.76137   0.96745   0.00000  Uiso   1.00
H898   H     0.52049   0.90349   0.97100   0.00000  Uiso   1.00
H899   H     0.52082   0.76137   0.53255   0.00000  Uiso   1.00
H900   H     0.48241   0.90472   0.60885   0.00000  Uiso   1.00
H901   H     0.48016   0.76155   0.88730   0.00000  Uiso   1.00
H902   H     0.51759   0.90472   0.89115   0.00000  Uiso   1.00
H903   H     0.51984   0.76155   0.61270   0.00000  Uiso   1.00
H904   H     0.37060   0.75853   0.75050   0.00000  Uiso   1.00
I905   I     0.43104   0.72621   0.67487   0.00000  Uiso   1.00
I906   I     0.57098   0.94085   0.82300   0.00000  Uiso   1.00
I907   I     0.56897   0.72621   0.82514   0.00000  Uiso   1.00
I908   I     0.42902   0.94085   0.67700   0.00000  Uiso   1.00
N909   N     0.50000   0.95069   0.75000   0.00000  Uiso   1.00
N910   N     0.50000   0.71598   0.75000   0.00000  Uiso   1.00
O911   O     0.43988   0.87291   0.75000   0.00000  Uiso   1.00
O912   O     0.56012   0.79375   0.75001   0.00000  Uiso   1.00
O913   O     0.56012   0.87291   0.75001   0.00000  Uiso   1.00
O914   O     0.43988   0.79375   0.75000   0.00000  Uiso   1.00
O915   O     0.50000   0.87293   0.68573   0.00000  Uiso   1.00
O916   O     0.50000   0.79374   0.81427   0.00000  Uiso   1.00
O917   O     0.50000   0.87293   0.81427   0.00000  Uiso   1.00
O918   O     0.50000   0.79374   0.68573   0.00000  Uiso   1.00
C919   C     0.75416   0.83333   0.75016   0.00000  Uiso   1.00
C920   C     0.97870   0.87522   0.74969   0.00000  Uiso   1.00
C921   C     0.97870   0.79136   0.74978   0.00000  Uiso   1.00
C922   C     0.68797   0.87522   0.75031   0.00000  Uiso   1.00
C923   C     0.82254   0.87249   0.54677   0.00000  Uiso   1.00
C924   C     0.82197   0.79254   0.95125   0.00000  Uiso   1.00
C925   C     0.84413   0.87249   0.95323   0.00000  Uiso   1.00
C926   C     0.84469   0.79254   0.54875   0.00000  Uiso   1.00
C927   C     0.82357   0.87305   0.59261   0.00000  Uiso   1.00
C928   C     0.82216   0.79275   0.90536   0.00000  Uiso   1.00
C929   C     0.84310   0.87305   0.90739   0.00000  Uiso   1.00
C930   C     0.91251   0.83333   0.74985   0.00000  Uiso   1.00
C931   C     0.84451   0.79275   0.59464   0.00000  Uiso   1.00
C932   C     0.83395   0.83306   0.61687   0.00000  Uiso   1.00
C933   C     0.83272   0.83306   0.88313   0.00000  Uiso   1.00
C934   C     0.83341   0.83235   0.52433   0.00000  Uiso   1.00
C935   C     0.83326   0.83235   0.97567   0.00000  Uiso   1.00
C936   C     0.95718   0.83330   0.74969   0.00000  Uiso   1.00
C937   C     0.70948   0.83330   0.75031   0.00000  Uiso   1.00
C938   C     0.83358   0.83330   0.66513   0.00000  Uiso   1.00
C939   C     0.83309   0.83330   0.83487   0.00000  Uiso   1.00
C940   C     0.80664   0.69139   0.72145   0.00000  Uiso   1.00
C941   C     0.86030   0.97535   0.77825   0.00000  Uiso   1.00
C942   C     0.86002   0.69139   0.77855   0.00000  Uiso   1.00
C943   C     0.80637   0.97535   0.72175   0.00000  Uiso   1.00
C944   C     0.68797   0.79136   0.75022   0.00000  Uiso   1.00
Cu945  Cu    0.83333   0.88022   0.75000   0.00000  Uiso   1.00
Cu946  Cu    0.83333   0.78645   0.75000   0.00000  Uiso   1.00
H947   H     0.81285   0.90349   0.52900   0.00000  Uiso   1.00
H948   H     0.96276   0.90806   0.74923   0.00000  Uiso   1.00
H949   H     0.96274   0.75853   0.74950   0.00000  Uiso   1.00
H950   H     0.70390   0.90805   0.75077   0.00000  Uiso   1.00
H951   H     0.81252   0.76137   0.96745   0.00000  Uiso   1.00
H952   H     0.85382   0.90349   0.97100   0.00000  Uiso   1.00
H953   H     0.85415   0.76137   0.53255   0.00000  Uiso   1.00
H954   H     0.81575   0.90472   0.60885   0.00000  Uiso   1.00
H955   H     0.81349   0.76155   0.88730   0.00000  Uiso   1.00
H956   H     0.85092   0.90472   0.89115   0.00000  Uiso   1.00
H957   H     0.85317   0.76155   0.61270   0.00000  Uiso   1.00
H958   H     0.70393   0.75853   0.75050   0.00000  Uiso   1.00
I959   I     0.76437   0.72621   0.67487   0.00000  Uiso   1.00
I960   I     0.90432   0.94085   0.82300   0.00000  Uiso   1.00
I961   I     0.90230   0.72621   0.82514   0.00000  Uiso   1.00
I962   I     0.76235   0.94085   0.67700   0.00000  Uiso   1.00
N963   N     0.83333   0.95069   0.75000   0.00000  Uiso   1.00
N964   N     0.83333   0.71598   0.75000   0.00000  Uiso   1.00
O965   O     0.77321   0.87291   0.75000   0.00000  Uiso   1.00
O966   O     0.89345   0.79375   0.75001   0.00000  Uiso   1.00
O967   O     0.89345   0.87291   0.75001   0.00000  Uiso   1.00
O968   O     0.77321   0.79375   0.75000   0.00000  Uiso   1.00
O969   O     0.83333   0.87293   0.68573   0.00000  Uiso   1.00
O970   O     0.83334   0.79374   0.81427   0.00000  Uiso   1.00
O971   O     0.83334   0.87293   0.81427   0.00000  Uiso   1.00
O972   O     0.83333   0.79374   0.68573   0.00000  Uiso   1.00
loop_
_geom_bond_atom_site_label_1
_geom_bond_atom_site_label_2
_geom_bond_distance
_geom_bond_site_symmetry_2
_ccdc_geom_bond_type
C1     O50     1.303   .     A
C1     C19     1.452   .     S
C1     O47     1.303   .     A
C2     C18     1.401   .     A
C2     H30     1.082   .     S
C2     C58     1.383   .     S
C3     H31     1.083   .     S
C3     C18     1.401   .     A
C3     C80     1.383   .     S
C4     H32     1.082   .     S
C4     C19     1.401   .     A
C4     C110    1.383   1_455 S
C5     C9      1.388   .     A
C5     H29     1.082   .     S
C5     C16     1.404   .     A
C6     C10     1.391   .     A
C6     H33     1.082   .     S
C6     C17     1.405   .     A
C7     C11     1.388   .     A
C7     H34     1.082   .     S
C7     C17     1.404   .     A
C8     C13     1.391   .     A
C8     C16     1.405   .     A
C8     H35     1.082   .     S
C9     H36     1.080   .     S
C9     C14     1.400   .     A
C10    H37     1.083   .     S
C10    C15     1.403   .     A
C11    H38     1.080   .     S
C11    C15     1.400   .     A
C12    O48     1.303   .     A
C12    O49     1.303   .     A
C12    C18     1.452   .     S
C13    C14     1.403   .     A
C13    H39     1.083   .     S
C14    C20     1.464   .     S
C15    C21     1.464   .     S
C16    C503    1.475   1_554 S
C17    C502    1.475   .     S
C19    C26     1.401   .     A
C20    O51     1.307   .     A
C20    O54     1.305   .     A
C21    O53     1.307   .     A
C21    O52     1.305   .     A
C22    N46     1.379   .     A
C22    I41     2.150   .     S
C22    C349    1.430   1_545 S
C23    N45     1.380   .     A
C23    I42     2.147   .     S
C23    C186    1.430   .     S
C24    N46     1.379   .     A
C24    I43     2.150   .     S
C24    C347    1.430   1_545 S
C25    N45     1.380   .     A
C25    I44     2.147   .     S
C25    C184    1.430   .     S
C26    H40     1.083   .     S
C26    C111    1.383   1_455 S
Cu27   O53     1.960   .     S
Cu27   N45     2.041   .     S
Cu27   O51     1.960   .     S
Cu27   O47     1.965   .     S
Cu27   Cu28    2.716   .     S
Cu27   O49     1.965   .     S
Cu28   O52     1.960   .     S
Cu28   N46     2.041   .     S
Cu28   O50     1.965   .     S
Cu28   O54     1.960   .     S
Cu28   O48     1.965   .     S
C55    O104    1.303   .     A
C55    C73     1.452   .     S
C55    O101    1.303   .     A
C56    C72     1.401   .     A
C56    H84     1.082   .     S
C56    C112    1.383   .     S
C57    H85     1.083   .     S
C57    C72     1.401   .     A
C57    C134    1.383   .     S
C58    H86     1.082   .     S
C58    C73     1.401   .     A
C59    C63     1.388   .     A
C59    H83     1.082   .     S
C59    C70     1.404   .     A
C60    C64     1.391   .     A
C60    H87     1.082   .     S
C60    C71     1.405   .     A
C61    C65     1.388   .     A
C61    H88     1.082   .     S
C61    C71     1.404   .     A
C62    C67     1.391   .     A
C62    C70     1.405   .     A
C62    H89     1.082   .     S
C63    H90     1.080   .     S
C63    C68     1.400   .     A
C64    H91     1.083   .     S
C64    C69     1.403   .     A
C65    H92     1.080   .     S
C65    C69     1.400   .     A
C66    O102    1.303   .     A
C66    O103    1.303   .     A
C66    C72     1.452   .     S
C67    C68     1.403   .     A
C67    H93     1.083   .     S
C68    C74     1.464   .     S
C69    C75     1.464   .     S
C70    C557    1.475   1_554 S
C71    C556    1.475   .     S
C73    C80     1.401   .     A
C74    O105    1.307   .     A
C74    O108    1.305   .     A
C75    O107    1.307   .     A
C75    O106    1.305   .     A
C76    N100    1.379   .     A
C76    I95     2.150   .     S
C76    C403    1.430   1_545 S
C77    N99     1.380   .     A
C77    I96     2.147   .     S
C77    C240    1.430   .     S
C78    N100    1.379   .     A
C78    I97     2.150   .     S
C78    C401    1.430   1_545 S
C79    N99     1.380   .     A
C79    I98     2.147   .     S
C79    C238    1.430   .     S
C80    H94     1.083   .     S
Cu81   O107    1.960   .     S
Cu81   N99     2.041   .     S
Cu81   O105    1.960   .     S
Cu81   O101    1.965   .     S
Cu81   Cu82    2.716   .     S
Cu81   O103    1.965   .     S
Cu82   O106    1.960   .     S
Cu82   N100    2.041   .     S
Cu82   O104    1.965   .     S
Cu82   O108    1.960   .     S
Cu82   O102    1.965   .     S
C109   O158    1.303   .     A
C109   C127    1.452   .     S
C109   O155    1.303   .     A
C110   C126    1.401   .     A
C110   H138    1.082   .     S
C110   C4      1.383   1_655 S
C111   H139    1.083   .     S
C111   C126    1.401   .     A
C111   C26     1.383   1_655 S
C112   H140    1.082   .     S
C112   C127    1.401   .     A
C113   C117    1.388   .     A
C113   H137    1.082   .     S
C113   C124    1.404   .     A
C114   C118    1.391   .     A
C114   H141    1.082   .     S
C114   C125    1.405   .     A
C115   C119    1.388   .     A
C115   H142    1.082   .     S
C115   C125    1.404   .     A
C116   C121    1.391   .     A
C116   C124    1.405   .     A
C116   H143    1.082   .     S
C117   H144    1.080   .     S
C117   C122    1.400   .     A
C118   H145    1.083   .     S
C118   C123    1.403   .     A
C119   H146    1.080   .     S
C119   C123    1.400   .     A
C120   O156    1.303   .     A
C120   O157    1.303   .     A
C120   C126    1.452   .     S
C121   C122    1.403   .     A
C121   H147    1.083   .     S
C122   C128    1.464   .     S
C123   C129    1.464   .     S
C124   C611    1.475   1_554 S
C125   C610    1.475   .     S
C127   C134    1.401   .     A
C128   O159    1.307   .     A
C128   O162    1.305   .     A
C129   O161    1.307   .     A
C129   O160    1.305   .     A
C130   N154    1.379   .     A
C130   I149    2.150   .     S
C130   C457    1.430   1_545 S
C131   N153    1.380   .     A
C131   I150    2.147   .     S
C131   C294    1.430   .     S
C132   N154    1.379   .     A
C132   I151    2.150   .     S
C132   C455    1.430   1_545 S
C133   N153    1.380   .     A
C133   I152    2.147   .     S
C133   C292    1.430   .     S
C134   H148    1.083   .     S
Cu135  O161    1.960   .     S
Cu135  N153    2.041   .     S
Cu135  O159    1.960   .     S
Cu135  O155    1.965   .     S
Cu135  Cu136   2.716   .     S
Cu135  O157    1.965   .     S
Cu136  O160    1.960   .     S
Cu136  N154    2.041   .     S
Cu136  O158    1.965   .     S
Cu136  O162    1.960   .     S
Cu136  O156    1.965   .     S
C163   O212    1.303   .     A
C163   C181    1.452   .     S
C163   O209    1.303   .     A
C164   C180    1.401   .     A
C164   H192    1.082   .     S
C164   C220    1.383   .     S
C165   H193    1.083   .     S
C165   C180    1.401   .     A
C165   C242    1.383   .     S
C166   H194    1.082   .     S
C166   C181    1.401   .     A
C166   C272    1.383   1_455 S
C167   C171    1.388   .     A
C167   H191    1.082   .     S
C167   C178    1.404   .     A
C168   C172    1.391   .     A
C168   H195    1.082   .     S
C168   C179    1.405   .     A
C169   C173    1.388   .     A
C169   H196    1.082   .     S
C169   C179    1.404   .     A
C170   C175    1.391   .     A
C170   C178    1.405   .     A
C170   H197    1.082   .     S
C171   H198    1.080   .     S
C171   C176    1.400   .     A
C172   H199    1.083   .     S
C172   C177    1.403   .     A
C173   H200    1.080   .     S
C173   C177    1.400   .     A
C174   O210    1.303   .     A
C174   O211    1.303   .     A
C174   C180    1.452   .     S
C175   C176    1.403   .     A
C175   H201    1.083   .     S
C176   C182    1.464   .     S
C177   C183    1.464   .     S
C178   C665    1.475   1_554 S
C179   C664    1.475   .     S
C181   C188    1.401   .     A
C182   O213    1.307   .     A
C182   O216    1.305   .     A
C183   O215    1.307   .     A
C183   O214    1.305   .     A
C184   N208    1.379   .     A
C184   I203    2.150   .     S
C185   N207    1.380   .     A
C185   I204    2.147   .     S
C185   C348    1.430   .     S
C186   N208    1.379   .     A
C186   I205    2.150   .     S
C187   N207    1.380   .     A
C187   I206    2.147   .     S
C187   C346    1.430   .     S
C188   H202    1.083   .     S
C188   C273    1.383   1_455 S
Cu189  O215    1.960   .     S
Cu189  N207    2.041   .     S
Cu189  O213    1.960   .     S
Cu189  O209    1.965   .     S
Cu189  Cu190   2.716   .     S
Cu189  O211    1.965   .     S
Cu190  O214    1.960   .     S
Cu190  N208    2.041   .     S
Cu190  O212    1.965   .     S
Cu190  O216    1.960   .     S
Cu190  O210    1.965   .     S
C217   O266    1.303   .     A
C217   C235    1.452   .     S
C217   O263    1.303   .     A
C218   C234    1.401   .     A
C218   H246    1.082   .     S
C218   C274    1.383   .     S
C219   H247    1.083   .     S
C219   C234    1.401   .     A
C219   C296    1.383   .     S
C220   H248    1.082   .     S
C220   C235    1.401   .     A
C221   C225    1.388   .     A
C221   H245    1.082   .     S
C221   C232    1.404   .     A
C222   C226    1.391   .     A
C222   H249    1.082   .     S
C222   C233    1.405   .     A
C223   C227    1.388   .     A
C223   H250    1.082   .     S
C223   C233    1.404   .     A
C224   C229    1.391   .     A
C224   C232    1.405   .     A
C224   H251    1.082   .     S
C225   H252    1.080   .     S
C225   C230    1.400   .     A
C226   H253    1.083   .     S
C226   C231    1.403   .     A
C227   H254    1.080   .     S
C227   C231    1.400   .     A
C228   O264    1.303   .     A
C228   O265    1.303   .     A
C228   C234    1.452   .     S
C229   C230    1.403   .     A
C229   H255    1.083   .     S
C230   C236    1.464   .     S
C231   C237    1.464   .     S
C232   C719    1.475   1_554 S
C233   C718    1.475   .     S
C235   C242    1.401   .     A
C236   O267    1.307   .     A
C236   O270    1.305   .     A
C237   O269    1.307   .     A
C237   O268    1.305   .     A
C238   N262    1.379   .     A
C238   I257    2.150   .     S
C239   N261    1.380   .     A
C239   I258    2.147   .     S
C239   C402    1.430   .     S
C240   N262    1.379   .     A
C240   I259    2.150   .     S
C241   N261    1.380   .     A
C241   I260    2.147   .     S
C241   C400    1.430   .     S
C242   H256    1.083   .     S
Cu243  O269    1.960   .     S
Cu243  N261    2.041   .     S
Cu243  O267    1.960   .     S
Cu243  O263    1.965   .     S
Cu243  Cu244   2.716   .     S
Cu243  O265    1.965   .     S
Cu244  O268    1.960   .     S
Cu244  N262    2.041   .     S
Cu244  O266    1.965   .     S
Cu244  O270    1.960   .     S
Cu244  O264    1.965   .     S
C271   O320    1.303   .     A
C271   C289    1.452   .     S
C271   O317    1.303   .     A
C272   C288    1.401   .     A
C272   H300    1.082   .     S
C272   C166    1.383   1_655 S
C273   H301    1.083   .     S
C273   C288    1.401   .     A
C273   C188    1.383   1_655 S
C274   H302    1.082   .     S
C274   C289    1.401   .     A
C275   C279    1.388   .     A
C275   H299    1.082   .     S
C275   C286    1.404   .     A
C276   C280    1.391   .     A
C276   H303    1.082   .     S
C276   C287    1.405   .     A
C277   C281    1.388   .     A
C277   H304    1.082   .     S
C277   C287    1.404   .     A
C278   C283    1.391   .     A
C278   C286    1.405   .     A
C278   H305    1.082   .     S
C279   H306    1.080   .     S
C279   C284    1.400   .     A
C280   H307    1.083   .     S
C280   C285    1.403   .     A
C281   H308    1.080   .     S
C281   C285    1.400   .     A
C282   O318    1.303   .     A
C282   O319    1.303   .     A
C282   C288    1.452   .     S
C283   C284    1.403   .     A
C283   H309    1.083   .     S
C284   C290    1.464   .     S
C285   C291    1.464   .     S
C286   C773    1.475   1_554 S
C287   C772    1.475   .     S
C289   C296    1.401   .     A
C290   O321    1.307   .     A
C290   O324    1.305   .     A
C291   O323    1.307   .     A
C291   O322    1.305   .     A
C292   N316    1.379   .     A
C292   I311    2.150   .     S
C293   N315    1.380   .     A
C293   I312    2.147   .     S
C293   C456    1.430   .     S
C294   N316    1.379   .     A
C294   I313    2.150   .     S
C295   N315    1.380   .     A
C295   I314    2.147   .     S
C295   C454    1.430   .     S
C296   H310    1.083   .     S
Cu297  O323    1.960   .     S
Cu297  N315    2.041   .     S
Cu297  O321    1.960   .     S
Cu297  O317    1.965   .     S
Cu297  Cu298   2.716   .     S
Cu297  O319    1.965   .     S
Cu298  O322    1.960   .     S
Cu298  N316    2.041   .     S
Cu298  O320    1.965   .     S
Cu298  O324    1.960   .     S
Cu298  O318    1.965   .     S
C325   O374    1.303   .     A
C325   C343    1.452   .     S
C325   O371    1.303   .     A
C326   C342    1.401   .     A
C326   H354    1.082   .     S
C326   C382    1.383   .     S
C327   H355    1.083   .     S
C327   C342    1.401   .     A
C327   C404    1.383   .     S
C328   H356    1.082   .     S
C328   C343    1.401   .     A
C328   C434    1.383   1_455 S
C329   C333    1.388   .     A
C329   H353    1.082   .     S
C329   C340    1.404   .     A
C330   C334    1.391   .     A
C330   H357    1.082   .     S
C330   C341    1.405   .     A
C331   C335    1.388   .     A
C331   H358    1.082   .     S
C331   C341    1.404   .     A
C332   C337    1.391   .     A
C332   C340    1.405   .     A
C332   H359    1.082   .     S
C333   H360    1.080   .     S
C333   C338    1.400   .     A
C334   H361    1.083   .     S
C334   C339    1.403   .     A
C335   H362    1.080   .     S
C335   C339    1.400   .     A
C336   O372    1.303   .     A
C336   O373    1.303   .     A
C336   C342    1.452   .     S
C337   C338    1.403   .     A
C337   H363    1.083   .     S
C338   C344    1.464   .     S
C339   C345    1.464   .     S
C340   C827    1.475   1_554 S
C341   C826    1.475   .     S
C343   C350    1.401   .     A
C344   O375    1.307   .     A
C344   O378    1.305   .     A
C345   O377    1.307   .     A
C345   O376    1.305   .     A
C346   N370    1.379   .     A
C346   I365    2.150   .     S
C347   N369    1.380   .     A
C347   I366    2.147   .     S
C347   C24     1.430   1_565 S
C348   N370    1.379   .     A
C348   I367    2.150   .     S
C349   N369    1.380   .     A
C349   I368    2.147   .     S
C349   C22     1.430   1_565 S
C350   H364    1.083   .     S
C350   C435    1.383   1_455 S
Cu351  O377    1.960   .     S
Cu351  N369    2.041   .     S
Cu351  O375    1.960   .     S
Cu351  O371    1.965   .     S
Cu351  Cu352   2.716   .     S
Cu351  O373    1.965   .     S
Cu352  O376    1.960   .     S
Cu352  N370    2.041   .     S
Cu352  O374    1.965   .     S
Cu352  O378    1.960   .     S
Cu352  O372    1.965   .     S
C379   O428    1.303   .     A
C379   C397    1.452   .     S
C379   O425    1.303   .     A
C380   C396    1.401   .     A
C380   H408    1.082   .     S
C380   C436    1.383   .     S
C381   H409    1.083   .     S
C381   C396    1.401   .     A
C381   C458    1.383   .     S
C382   H410    1.082   .     S
C382   C397    1.401   .     A
C383   C387    1.388   .     A
C383   H407    1.082   .     S
C383   C394    1.404   .     A
C384   C388    1.391   .     A
C384   H411    1.082   .     S
C384   C395    1.405   .     A
C385   C389    1.388   .     A
C385   H412    1.082   .     S
C385   C395    1.404   .     A
C386   C391    1.391   .     A
C386   C394    1.405   .     A
C386   H413    1.082   .     S
C387   H414    1.080   .     S
C387   C392    1.400   .     A
C388   H415    1.083   .     S
C388   C393    1.403   .     A
C389   H416    1.080   .     S
C389   C393    1.400   .     A
C390   O426    1.303   .     A
C390   O427    1.303   .     A
C390   C396    1.452   .     S
C391   C392    1.403   .     A
C391   H417    1.083   .     S
C392   C398    1.464   .     S
C393   C399    1.464   .     S
C394   C881    1.475   1_554 S
C395   C880    1.475   .     S
C397   C404    1.401   .     A
C398   O429    1.307   .     A
C398   O432    1.305   .     A
C399   O431    1.307   .     A
C399   O430    1.305   .     A
C400   N424    1.379   .     A
C400   I419    2.150   .     S
C401   N423    1.380   .     A
C401   I420    2.147   .     S
C401   C78     1.430   1_565 S
C402   N424    1.379   .     A
C402   I421    2.150   .     S
C403   N423    1.380   .     A
C403   I422    2.147   .     S
C403   C76     1.430   1_565 S
C404   H418    1.083   .     S
Cu405  O431    1.960   .     S
Cu405  N423    2.041   .     S
Cu405  O429    1.960   .     S
Cu405  O425    1.965   .     S
Cu405  Cu406   2.716   .     S
Cu405  O427    1.965   .     S
Cu406  O430    1.960   .     S
Cu406  N424    2.041   .     S
Cu406  O428    1.965   .     S
Cu406  O432    1.960   .     S
Cu406  O426    1.965   .     S
C433   O482    1.303   .     A
C433   C451    1.452   .     S
C433   O479    1.303   .     A
C434   C450    1.401   .     A
C434   H462    1.082   .     S
C434   C328    1.383   1_655 S
C435   H463    1.083   .     S
C435   C450    1.401   .     A
C435   C350    1.383   1_655 S
C436   H464    1.082   .     S
C436   C451    1.401   .     A
C437   C441    1.388   .     A
C437   H461    1.082   .     S
C437   C448    1.404   .     A
C438   C442    1.391   .     A
C438   H465    1.082   .     S
C438   C449    1.405   .     A
C439   C443    1.388   .     A
C439   H466    1.082   .     S
C439   C449    1.404   .     A
C440   C445    1.391   .     A
C440   C448    1.405   .     A
C440   H467    1.082   .     S
C441   H468    1.080   .     S
C441   C446    1.400   .     A
C442   H469    1.083   .     S
C442   C447    1.403   .     A
C443   H470    1.080   .     S
C443   C447    1.400   .     A
C444   O480    1.303   .     A
C444   O481    1.303   .     A
C444   C450    1.452   .     S
C445   C446    1.403   .     A
C445   H471    1.083   .     S
C446   C452    1.464   .     S
C447   C453    1.464   .     S
C448   C935    1.475   1_554 S
C449   C934    1.475   .     S
C451   C458    1.401   .     A
C452   O483    1.307   .     A
C452   O486    1.305   .     A
C453   O485    1.307   .     A
C453   O484    1.305   .     A
C454   N478    1.379   .     A
C454   I473    2.150   .     S
C455   N477    1.380   .     A
C455   I474    2.147   .     S
C455   C132    1.430   1_565 S
C456   N478    1.379   .     A
C456   I475    2.150   .     S
C457   N477    1.380   .     A
C457   I476    2.147   .     S
C457   C130    1.430   1_565 S
C458   H472    1.083   .     S
Cu459  O485    1.960   .     S
Cu459  N477    2.041   .     S
Cu459  O483    1.960   .     S
Cu459  O479    1.965   .     S
Cu459  Cu460   2.716   .     S
Cu459  O481    1.965   .     S
Cu460  O484    1.960   .     S
Cu460  N478    2.041   .     S
Cu460  O482    1.965   .     S
Cu460  O486    1.960   .     S
Cu460  O480    1.965   .     S
C487   O536    1.303   .     A
C487   C505    1.452   .     S
C487   O533    1.303   .     A
C488   C504    1.401   .     A
C488   H516    1.082   .     S
C488   C544    1.383   .     S
C489   H517    1.083   .     S
C489   C504    1.401   .     A
C489   C566    1.383   .     S
C490   H518    1.082   .     S
C490   C505    1.401   .     A
C490   C596    1.383   1_455 S
C491   C495    1.388   .     A
C491   H515    1.082   .     S
C491   C502    1.404   .     A
C492   C496    1.391   .     A
C492   H519    1.082   .     S
C492   C503    1.405   .     A
C493   C497    1.388   .     A
C493   H520    1.082   .     S
C493   C503    1.404   .     A
C494   C499    1.391   .     A
C494   C502    1.405   .     A
C494   H521    1.082   .     S
C495   H522    1.080   .     S
C495   C500    1.400   .     A
C496   H523    1.083   .     S
C496   C501    1.403   .     A
C497   H524    1.080   .     S
C497   C501    1.400   .     A
C498   O534    1.303   .     A
C498   O535    1.303   .     A
C498   C504    1.452   .     S
C499   C500    1.403   .     A
C499   H525    1.083   .     S
C500   C506    1.464   .     S
C501   C507    1.464   .     S
C503   C16     1.475   1_556 S
C505   C512    1.401   .     A
C506   O537    1.307   .     A
C506   O540    1.305   .     A
C507   O539    1.307   .     A
C507   O538    1.305   .     A
C508   N532    1.379   .     A
C508   I527    2.150   .     S
C508   C835    1.430   1_545 S
C509   N531    1.380   .     A
C509   I528    2.147   .     S
C509   C672    1.430   .     S
C510   N532    1.379   .     A
C510   I529    2.150   .     S
C510   C833    1.430   1_545 S
C511   N531    1.380   .     A
C511   I530    2.147   .     S
C511   C670    1.430   .     S
C512   H526    1.083   .     S
C512   C597    1.383   1_455 S
Cu513  O539    1.960   .     S
Cu513  N531    2.041   .     S
Cu513  O537    1.960   .     S
Cu513  O533    1.965   .     S
Cu513  Cu514   2.716   .     S
Cu513  O535    1.965   .     S
Cu514  O538    1.960   .     S
Cu514  N532    2.041   .     S
Cu514  O536    1.965   .     S
Cu514  O540    1.960   .     S
Cu514  O534    1.965   .     S
C541   O590    1.303   .     A
C541   C559    1.452   .     S
C541   O587    1.303   .     A
C542   C558    1.401   .     A
C542   H570    1.082   .     S
C542   C598    1.383   .     S
C543   H571    1.083   .     S
C543   C558    1.401   .     A
C543   C620    1.383   .     S
C544   H572    1.082   .     S
C544   C559    1.401   .     A
C545   C549    1.388   .     A
C545   H569    1.082   .     S
C545   C556    1.404   .     A
C546   C550    1.391   .     A
C546   H573    1.082   .     S
C546   C557    1.405   .     A
C547   C551    1.388   .     A
C547   H574    1.082   .     S
C547   C557    1.404   .     A
C548   C553    1.391   .     A
C548   C556    1.405   .     A
C548   H575    1.082   .     S
C549   H576    1.080   .     S
C549   C554    1.400   .     A
C550   H577    1.083   .     S
C550   C555    1.403   .     A
C551   H578    1.080   .     S
C551   C555    1.400   .     A
C552   O588    1.303   .     A
C552   O589    1.303   .     A
C552   C558    1.452   .     S
C553   C554    1.403   .     A
C553   H579    1.083   .     S
C554   C560    1.464   .     S
C555   C561    1.464   .     S
C557   C70     1.475   1_556 S
C559   C566    1.401   .     A
C560   O591    1.307   .     A
C560   O594    1.305   .     A
C561   O593    1.307   .     A
C561   O592    1.305   .     A
C562   N586    1.379   .     A
C562   I581    2.150   .     S
C562   C889    1.430   1_545 S
C563   N585    1.380   .     A
C563   I582    2.147   .     S
C563   C726    1.430   .     S
C564   N586    1.379   .     A
C564   I583    2.150   .     S
C564   C887    1.430   1_545 S
C565   N585    1.380   .     A
C565   I584    2.147   .     S
C565   C724    1.430   .     S
C566   H580    1.083   .     S
Cu567  O593    1.960   .     S
Cu567  N585    2.041   .     S
Cu567  O591    1.960   .     S
Cu567  O587    1.965   .     S
Cu567  Cu568   2.716   .     S
Cu567  O589    1.965   .     S
Cu568  O592    1.960   .     S
Cu568  N586    2.041   .     S
Cu568  O590    1.965   .     S
Cu568  O594    1.960   .     S
Cu568  O588    1.965   .     S
C595   O644    1.303   .     A
C595   C613    1.452   .     S
C595   O641    1.303   .     A
C596   C612    1.401   .     A
C596   H624    1.082   .     S
C596   C490    1.383   1_655 S
C597   H625    1.083   .     S
C597   C612    1.401   .     A
C597   C512    1.383   1_655 S
C598   H626    1.082   .     S
C598   C613    1.401   .     A
C599   C603    1.388   .     A
C599   H623    1.082   .     S
C599   C610    1.404   .     A
C600   C604    1.391   .     A
C600   H627    1.082   .     S
C600   C611    1.405   .     A
C601   C605    1.388   .     A
C601   H628    1.082   .     S
C601   C611    1.404   .     A
C602   C607    1.391   .     A
C602   C610    1.405   .     A
C602   H629    1.082   .     S
C603   H630    1.080   .     S
C603   C608    1.400   .     A
C604   H631    1.083   .     S
C604   C609    1.403   .     A
C605   H632    1.080   .     S
C605   C609    1.400   .     A
C606   O642    1.303   .     A
C606   O643    1.303   .     A
C606   C612    1.452   .     S
C607   C608    1.403   .     A
C607   H633    1.083   .     S
C608   C614    1.464   .     S
C609   C615    1.464   .     S
C611   C124    1.475   1_556 S
C613   C620    1.401   .     A
C614   O645    1.307   .     A
C614   O648    1.305   .     A
C615   O647    1.307   .     A
C615   O646    1.305   .     A
C616   N640    1.379   .     A
C616   I635    2.150   .     S
C616   C943    1.430   1_545 S
C617   N639    1.380   .     A
C617   I636    2.147   .     S
C617   C780    1.430   .     S
C618   N640    1.379   .     A
C618   I637    2.150   .     S
C618   C941    1.430   1_545 S
C619   N639    1.380   .     A
C619   I638    2.147   .     S
C619   C778    1.430   .     S
C620   H634    1.083   .     S
Cu621  O647    1.960   .     S
Cu621  N639    2.041   .     S
Cu621  O645    1.960   .     S
Cu621  O641    1.965   .     S
Cu621  Cu622   2.716   .     S
Cu621  O643    1.965   .     S
Cu622  O646    1.960   .     S
Cu622  N640    2.041   .     S
Cu622  O644    1.965   .     S
Cu622  O648    1.960   .     S
Cu622  O642    1.965   .     S
C649   O698    1.303   .     A
C649   C667    1.452   .     S
C649   O695    1.303   .     A
C650   C666    1.401   .     A
C650   H678    1.082   .     S
C650   C706    1.383   .     S
C651   H679    1.083   .     S
C651   C666    1.401   .     A
C651   C728    1.383   .     S
C652   H680    1.082   .     S
C652   C667    1.401   .     A
C652   C758    1.383   1_455 S
C653   C657    1.388   .     A
C653   H677    1.082   .     S
C653   C664    1.404   .     A
C654   C658    1.391   .     A
C654   H681    1.082   .     S
C654   C665    1.405   .     A
C655   C659    1.388   .     A
C655   H682    1.082   .     S
C655   C665    1.404   .     A
C656   C661    1.391   .     A
C656   C664    1.405   .     A
C656   H683    1.082   .     S
C657   H684    1.080   .     S
C657   C662    1.400   .     A
C658   H685    1.083   .     S
C658   C663    1.403   .     A
C659   H686    1.080   .     S
C659   C663    1.400   .     A
C660   O696    1.303   .     A
C660   O697    1.303   .     A
C660   C666    1.452   .     S
C661   C662    1.403   .     A
C661   H687    1.083   .     S
C662   C668    1.464   .     S
C663   C669    1.464   .     S
C665   C178    1.475   1_556 S
C667   C674    1.401   .     A
C668   O699    1.307   .     A
C668   O702    1.305   .     A
C669   O701    1.307   .     A
C669   O700    1.305   .     A
C670   N694    1.379   .     A
C670   I689    2.150   .     S
C671   N693    1.380   .     A
C671   I690    2.147   .     S
C671   C834    1.430   .     S
C672   N694    1.379   .     A
C672   I691    2.150   .     S
C673   N693    1.380   .     A
C673   I692    2.147   .     S
C673   C832    1.430   .     S
C674   H688    1.083   .     S
C674   C759    1.383   1_455 S
Cu675  O701    1.960   .     S
Cu675  N693    2.041   .     S
Cu675  O699    1.960   .     S
Cu675  O695    1.965   .     S
Cu675  Cu676   2.716   .     S
Cu675  O697    1.965   .     S
Cu676  O700    1.960   .     S
Cu676  N694    2.041   .     S
Cu676  O698    1.965   .     S
Cu676  O702    1.960   .     S
Cu676  O696    1.965   .     S
C703   O752    1.303   .     A
C703   C721    1.452   .     S
C703   O749    1.303   .     A
C704   C720    1.401   .     A
C704   H732    1.082   .     S
C704   C760    1.383   .     S
C705   H733    1.083   .     S
C705   C720    1.401   .     A
C705   C782    1.383   .     S
C706   H734    1.082   .     S
C706   C721    1.401   .     A
C707   C711    1.388   .     A
C707   H731    1.082   .     S
C707   C718    1.404   .     A
C708   C712    1.391   .     A
C708   H735    1.082   .     S
C708   C719    1.405   .     A
C709   C713    1.388   .     A
C709   H736    1.082   .     S
C709   C719    1.404   .     A
C710   C715    1.391   .     A
C710   C718    1.405   .     A
C710   H737    1.082   .     S
C711   H738    1.080   .     S
C711   C716    1.400   .     A
C712   H739    1.083   .     S
C712   C717    1.403   .     A
C713   H740    1.080   .     S
C713   C717    1.400   .     A
C714   O750    1.303   .     A
C714   O751    1.303   .     A
C714   C720    1.452   .     S
C715   C716    1.403   .     A
C715   H741    1.083   .     S
C716   C722    1.464   .     S
C717   C723    1.464   .     S
C719   C232    1.475   1_556 S
C721   C728    1.401   .     A
C722   O753    1.307   .     A
C722   O756    1.305   .     A
C723   O755    1.307   .     A
C723   O754    1.305   .     A
C724   N748    1.379   .     A
C724   I743    2.150   .     S
C725   N747    1.380   .     A
C725   I744    2.147   .     S
C725   C888    1.430   .     S
C726   N748    1.379   .     A
C726   I745    2.150   .     S
C727   N747    1.380   .     A
C727   I746    2.147   .     S
C727   C886    1.430   .     S
C728   H742    1.083   .     S
Cu729  O755    1.960   .     S
Cu729  N747    2.041   .     S
Cu729  O753    1.960   .     S
Cu729  O749    1.965   .     S
Cu729  Cu730   2.716   .     S
Cu729  O751    1.965   .     S
Cu730  O754    1.960   .     S
Cu730  N748    2.041   .     S
Cu730  O752    1.965   .     S
Cu730  O756    1.960   .     S
Cu730  O750    1.965   .     S
C757   O806    1.303   .     A
C757   C775    1.452   .     S
C757   O803    1.303   .     A
C758   C774    1.401   .     A
C758   H786    1.082   .     S
C758   C652    1.383   1_655 S
C759   H787    1.083   .     S
C759   C774    1.401   .     A
C759   C674    1.383   1_655 S
C760   H788    1.082   .     S
C760   C775    1.401   .     A
C761   C765    1.388   .     A
C761   H785    1.082   .     S
C761   C772    1.404   .     A
C762   C766    1.391   .     A
C762   H789    1.082   .     S
C762   C773    1.405   .     A
C763   C767    1.388   .     A
C763   H790    1.082   .     S
C763   C773    1.404   .     A
C764   C769    1.391   .     A
C764   C772    1.405   .     A
C764   H791    1.082   .     S
C765   H792    1.080   .     S
C765   C770    1.400   .     A
C766   H793    1.083   .     S
C766   C771    1.403   .     A
C767   H794    1.080   .     S
C767   C771    1.400   .     A
C768   O804    1.303   .     A
C768   O805    1.303   .     A
C768   C774    1.452   .     S
C769   C770    1.403   .     A
C769   H795    1.083   .     S
C770   C776    1.464   .     S
C771   C777    1.464   .     S
C773   C286    1.475   1_556 S
C775   C782    1.401   .     A
C776   O807    1.307   .     A
C776   O810    1.305   .     A
C777   O809    1.307   .     A
C777   O808    1.305   .     A
C778   N802    1.379   .     A
C778   I797    2.150   .     S
C779   N801    1.380   .     A
C779   I798    2.147   .     S
C779   C942    1.430   .     S
C780   N802    1.379   .     A
C780   I799    2.150   .     S
C781   N801    1.380   .     A
C781   I800    2.147   .     S
C781   C940    1.430   .     S
C782   H796    1.083   .     S
Cu783  O809    1.960   .     S
Cu783  N801    2.041   .     S
Cu783  O807    1.960   .     S
Cu783  O803    1.965   .     S
Cu783  Cu784   2.716   .     S
Cu783  O805    1.965   .     S
Cu784  O808    1.960   .     S
Cu784  N802    2.041   .     S
Cu784  O806    1.965   .     S
Cu784  O810    1.960   .     S
Cu784  O804    1.965   .     S
C811   O860    1.303   .     A
C811   C829    1.452   .     S
C811   O857    1.303   .     A
C812   C828    1.401   .     A
C812   H840    1.082   .     S
C812   C868    1.383   .     S
C813   H841    1.083   .     S
C813   C828    1.401   .     A
C813   C890    1.383   .     S
C814   H842    1.082   .     S
C814   C829    1.401   .     A
C814   C920    1.383   1_455 S
C815   C819    1.388   .     A
C815   H839    1.082   .     S
C815   C826    1.404   .     A
C816   C820    1.391   .     A
C816   H843    1.082   .     S
C816   C827    1.405   .     A
C817   C821    1.388   .     A
C817   H844    1.082   .     S
C817   C827    1.404   .     A
C818   C823    1.391   .     A
C818   C826    1.405   .     A
C818   H845    1.082   .     S
C819   H846    1.080   .     S
C819   C824    1.400   .     A
C820   H847    1.083   .     S
C820   C825    1.403   .     A
C821   H848    1.080   .     S
C821   C825    1.400   .     A
C822   O858    1.303   .     A
C822   O859    1.303   .     A
C822   C828    1.452   .     S
C823   C824    1.403   .     A
C823   H849    1.083   .     S
C824   C830    1.464   .     S
C825   C831    1.464   .     S
C827   C340    1.475   1_556 S
C829   C836    1.401   .     A
C830   O861    1.307   .     A
C830   O864    1.305   .     A
C831   O863    1.307   .     A
C831   O862    1.305   .     A
C832   N856    1.379   .     A
C832   I851    2.150   .     S
C833   N855    1.380   .     A
C833   I852    2.147   .     S
C833   C510    1.430   1_565 S
C834   N856    1.379   .     A
C834   I853    2.150   .     S
C835   N855    1.380   .     A
C835   I854    2.147   .     S
C835   C508    1.430   1_565 S
C836   H850    1.083   .     S
C836   C921    1.383   1_455 S
Cu837  O863    1.960   .     S
Cu837  N855    2.041   .     S
Cu837  O861    1.960   .     S
Cu837  O857    1.965   .     S
Cu837  Cu838   2.716   .     S
Cu837  O859    1.965   .     S
Cu838  O862    1.960   .     S
Cu838  N856    2.041   .     S
Cu838  O860    1.965   .     S
Cu838  O864    1.960   .     S
Cu838  O858    1.965   .     S
C865   O914    1.303   .     A
C865   C883    1.452   .     S
C865   O911    1.303   .     A
C866   C882    1.401   .     A
C866   H894    1.082   .     S
C866   C922    1.383   .     S
C867   H895    1.083   .     S
C867   C882    1.401   .     A
C867   C944    1.383   .     S
C868   H896    1.082   .     S
C868   C883    1.401   .     A
C869   C873    1.388   .     A
C869   H893    1.082   .     S
C869   C880    1.404   .     A
C870   C874    1.391   .     A
C870   H897    1.082   .     S
C870   C881    1.405   .     A
C871   C875    1.388   .     A
C871   H898    1.082   .     S
C871   C881    1.404   .     A
C872   C877    1.391   .     A
C872   C880    1.405   .     A
C872   H899    1.082   .     S
C873   H900    1.080   .     S
C873   C878    1.400   .     A
C874   H901    1.083   .     S
C874   C879    1.403   .     A
C875   H902    1.080   .     S
C875   C879    1.400   .     A
C876   O912    1.303   .     A
C876   O913    1.303   .     A
C876   C882    1.452   .     S
C877   C878    1.403   .     A
C877   H903    1.083   .     S
C878   C884    1.464   .     S
C879   C885    1.464   .     S
C881   C394    1.475   1_556 S
C883   C890    1.401   .     A
C884   O915    1.307   .     A
C884   O918    1.305   .     A
C885   O917    1.307   .     A
C885   O916    1.305   .     A
C886   N910    1.379   .     A
C886   I905    2.150   .     S
C887   N909    1.380   .     A
C887   I906    2.147   .     S
C887   C564    1.430   1_565 S
C888   N910    1.379   .     A
C888   I907    2.150   .     S
C889   N909    1.380   .     A
C889   I908    2.147   .     S
C889   C562    1.430   1_565 S
C890   H904    1.083   .     S
Cu891  O917    1.960   .     S
Cu891  N909    2.041   .     S
Cu891  O915    1.960   .     S
Cu891  O911    1.965   .     S
Cu891  Cu892   2.716   .     S
Cu891  O913    1.965   .     S
Cu892  O916    1.960   .     S
Cu892  N910    2.041   .     S
Cu892  O914    1.965   .     S
Cu892  O918    1.960   .     S
Cu892  O912    1.965   .     S
C919   O968    1.303   .     A
C919   C937    1.452   .     S
C919   O965    1.303   .     A
C920   C936    1.401   .     A
C920   H948    1.082   .     S
C920   C814    1.383   1_655 S
C921   H949    1.083   .     S
C921   C936    1.401   .     A
C921   C836    1.383   1_655 S
C922   H950    1.082   .     S
C922   C937    1.401   .     A
C923   C927    1.388   .     A
C923   H947    1.082   .     S
C923   C934    1.404   .     A
C924   C928    1.391   .     A
C924   H951    1.082   .     S
C924   C935    1.405   .     A
C925   C929    1.388   .     A
C925   H952    1.082   .     S
C925   C935    1.404   .     A
C926   C931    1.391   .     A
C926   C934    1.405   .     A
C926   H953    1.082   .     S
C927   H954    1.080   .     S
C927   C932    1.400   .     A
C928   H955    1.083   .     S
C928   C933    1.403   .     A
C929   H956    1.080   .     S
C929   C933    1.400   .     A
C930   O966    1.303   .     A
C930   O967    1.303   .     A
C930   C936    1.452   .     S
C931   C932    1.403   .     A
C931   H957    1.083   .     S
C932   C938    1.464   .     S
C933   C939    1.464   .     S
C935   C448    1.475   1_556 S
C937   C944    1.401   .     A
C938   O969    1.307   .     A
C938   O972    1.305   .     A
C939   O971    1.307   .     A
C939   O970    1.305   .     A
C940   N964    1.379   .     A
C940   I959    2.150   .     S
C941   N963    1.380   .     A
C941   I960    2.147   .     S
C941   C618    1.430   1_565 S
C942   N964    1.379   .     A
C942   I961    2.150   .     S
C943   N963    1.380   .     A
C943   I962    2.147   .     S
C943   C616    1.430   1_565 S
C944   H958    1.083   .     S
Cu945  O971    1.960   .     S
Cu945  N963    2.041   .     S
Cu945  O969    1.960   .     S
Cu945  O965    1.965   .     S
Cu945  Cu946   2.716   .     S
Cu945  O967    1.965   .     S
Cu946  O970    1.960   .     S
Cu946  N964    2.041   .     S
Cu946  O968    1.965   .     S
Cu946  O972    1.960   .     S
Cu946  O966    1.965   .     S
