data_str_m2_o1_o1_pcu_sym.82
_audit_creation_date              2020-01-03
_audit_creation_method            'Materials Studio'
_symmetry_space_group_name_H-M    'P1'
_symmetry_Int_Tables_number       1
_symmetry_cell_setting            triclinic
loop_
_symmetry_equiv_pos_as_xyz
  x,y,z
_cell_length_a                    32.2747
_cell_length_b                    29.8975
_cell_length_c                    28.8955
_cell_angle_alpha                 89.9998
_cell_angle_beta                  88.6987
_cell_angle_gamma                 90.0002
loop_
_atom_site_label
_atom_site_type_symbol
_atom_site_fract_x
_atom_site_fract_y
_atom_site_fract_z
_atom_site_U_iso_or_equiv
_atom_site_adp_type
_atom_site_occupancy
C1     C     0.06059   0.19203   0.16625   0.00000  Uiso   1.00
C2     C     0.00054   0.28935   0.30895   0.00000  Uiso   1.00
C3     C     0.49945   0.28935   0.02439   0.00000  Uiso   1.00
C4     C     0.00055   0.21065   0.30895   0.00000  Uiso   1.00
C5     C     0.24944   0.46065   0.02439   0.00000  Uiso   1.00
C6     C     0.25056   0.03935   0.30895   0.00000  Uiso   1.00
C7     C     0.24946   0.03935   0.02439   0.00000  Uiso   1.00
C8     C     0.25054   0.46065   0.30895   0.00000  Uiso   1.00
C9     C     0.38457   0.14916   0.12601   0.00000  Uiso   1.00
C10    C     0.11543   0.35083   0.20732   0.00000  Uiso   1.00
C11    C     0.10718   0.36304   0.12441   0.00000  Uiso   1.00
C12    C     0.43941   0.30797   0.16708   0.00000  Uiso   1.00
C13    C     0.39282   0.13696   0.20893   0.00000  Uiso   1.00
C14    C     0.11544   0.14918   0.20732   0.00000  Uiso   1.00
C15    C     0.38456   0.35082   0.12602   0.00000  Uiso   1.00
C16    C     0.39281   0.36303   0.20893   0.00000  Uiso   1.00
C17    C     0.10719   0.13697   0.12441   0.00000  Uiso   1.00
C18    C     0.13456   0.39918   0.12602   0.00000  Uiso   1.00
C19    C     0.36544   0.10082   0.20732   0.00000  Uiso   1.00
C20    C     0.35719   0.11303   0.12441   0.00000  Uiso   1.00
C21    C     0.14281   0.38697   0.20893   0.00000  Uiso   1.00
C22    C     0.36543   0.39916   0.20732   0.00000  Uiso   1.00
C23    C     0.43941   0.19202   0.16708   0.00000  Uiso   1.00
C24    C     0.13457   0.10083   0.12601   0.00000  Uiso   1.00
C25    C     0.14282   0.11304   0.20892   0.00000  Uiso   1.00
C26    C     0.35718   0.38696   0.12441   0.00000  Uiso   1.00
C27    C     0.09538   0.34024   0.16564   0.00000  Uiso   1.00
C28    C     0.40462   0.15976   0.16769   0.00000  Uiso   1.00
C29    C     0.40461   0.34023   0.16769   0.00000  Uiso   1.00
C30    C     0.09539   0.15977   0.16564   0.00000  Uiso   1.00
C31    C     0.34539   0.09023   0.16564   0.00000  Uiso   1.00
C32    C     0.15461   0.40977   0.16769   0.00000  Uiso   1.00
C33    C     0.15462   0.09024   0.16769   0.00000  Uiso   1.00
C34    C     0.06059   0.30798   0.16625   0.00000  Uiso   1.00
C35    C     0.34538   0.40976   0.16564   0.00000  Uiso   1.00
C36    C     0.38949   0.17681   0.08481   0.00000  Uiso   1.00
C37    C     0.11051   0.32319   0.24853   0.00000  Uiso   1.00
C38    C     0.09416   0.34841   0.07911   0.00000  Uiso   1.00
C39    C     0.40584   0.15159   0.25422   0.00000  Uiso   1.00
C40    C     0.11052   0.17683   0.24852   0.00000  Uiso   1.00
C41    C     0.38948   0.32317   0.08481   0.00000  Uiso   1.00
C42    C     0.40583   0.34839   0.25422   0.00000  Uiso   1.00
C43    C     0.09417   0.15161   0.07911   0.00000  Uiso   1.00
C44    C     0.13948   0.42683   0.08481   0.00000  Uiso   1.00
C45    C     0.31059   0.44202   0.16625   0.00000  Uiso   1.00
C46    C     0.36052   0.07317   0.24852   0.00000  Uiso   1.00
C47    C     0.34418   0.09839   0.07911   0.00000  Uiso   1.00
C48    C     0.15582   0.40161   0.25422   0.00000  Uiso   1.00
C49    C     0.36051   0.42681   0.24853   0.00000  Uiso   1.00
C50    C     0.13949   0.07319   0.08481   0.00000  Uiso   1.00
C51    C     0.15585   0.09841   0.25422   0.00000  Uiso   1.00
C52    C     0.34415   0.40159   0.07911   0.00000  Uiso   1.00
C53    C     0.18941   0.05798   0.16708   0.00000  Uiso   1.00
C54    C     0.18941   0.44203   0.16708   0.00000  Uiso   1.00
C55    C     0.31059   0.05797   0.16625   0.00000  Uiso   1.00
C56    C     0.49946   0.21065   0.02439   0.00000  Uiso   1.00
Cu57   Cu    0.00000   0.25000   0.21355   0.00000  Uiso   1.00
Cu58   Cu    0.00000   0.25000   0.11978   0.00000  Uiso   1.00
Cu59   Cu    0.25000  -0.00000   0.21355   0.00000  Uiso   1.00
Cu60   Cu    0.25000  -0.00000   0.11978   0.00000  Uiso   1.00
H61    H     0.00111   0.17196   0.07808   0.00000  Uiso   1.00
H62    H     0.49889   0.32804   0.25525   0.00000  Uiso   1.00
H63    H     0.00111   0.32804   0.07808   0.00000  Uiso   1.00
H64    H     0.49888   0.17196   0.25525   0.00000  Uiso   1.00
H65    H     0.25112   0.42196   0.07808   0.00000  Uiso   1.00
H66    H     0.24888   0.07804   0.25525   0.00000  Uiso   1.00
H67    H     0.25111   0.07804   0.07809   0.00000  Uiso   1.00
H68    H     0.24889   0.42196   0.25525   0.00000  Uiso   1.00
N69    N     0.00000   0.25000   0.28402   0.00000  Uiso   1.00
N70    N     0.39312   0.30119   0.05202   0.00000  Uiso   1.00
N71    N     0.41525   0.33701   0.29074   0.00000  Uiso   1.00
N72    N     0.08475   0.16299   0.04259   0.00000  Uiso   1.00
N73    N     0.14312   0.44881   0.05202   0.00000  Uiso   1.00
N74    N     0.35688   0.05119   0.28131   0.00000  Uiso   1.00
N75    N     0.33475   0.08700   0.04259   0.00000  Uiso   1.00
N76    N     0.16524   0.41300   0.29074   0.00000  Uiso   1.00
N77    N     0.35687   0.44879   0.28132   0.00000  Uiso   1.00
N78    N     0.14313   0.05120   0.05202   0.00000  Uiso   1.00
N79    N     0.16528   0.08704   0.29074   0.00000  Uiso   1.00
N80    N     0.00000   0.25000   0.04931   0.00000  Uiso   1.00
N81    N     0.33472   0.41296   0.04259   0.00000  Uiso   1.00
N82    N     0.25000  -0.00000   0.28402   0.00000  Uiso   1.00
N83    N     0.25000  -0.00000   0.04931   0.00000  Uiso   1.00
N84    N     0.39313   0.19880   0.05202   0.00000  Uiso   1.00
N85    N     0.10687   0.30120   0.28131   0.00000  Uiso   1.00
N86    N     0.08473   0.33703   0.04259   0.00000  Uiso   1.00
N87    N     0.41527   0.16297   0.29074   0.00000  Uiso   1.00
N88    N     0.10688   0.19881   0.28131   0.00000  Uiso   1.00
O89    O     0.04508   0.20491   0.20625   0.00000  Uiso   1.00
O90    O     0.20491   0.04509   0.12709   0.00000  Uiso   1.00
O91    O     0.20491   0.04509   0.20625   0.00000  Uiso   1.00
O92    O     0.29508   0.45491   0.12709   0.00000  Uiso   1.00
O93    O     0.20491   0.45491   0.12709   0.00000  Uiso   1.00
O94    O     0.29508   0.04509   0.20625   0.00000  Uiso   1.00
O95    O     0.29508   0.04509   0.12709   0.00000  Uiso   1.00
O96    O     0.20491   0.45491   0.20625   0.00000  Uiso   1.00
O97    O     0.49650   0.16920   0.04500   0.00000  Uiso   1.00
O98    O     0.00350   0.33080   0.28834   0.00000  Uiso   1.00
O99    O     0.49648   0.33080   0.04500   0.00000  Uiso   1.00
O100   O     0.45491   0.29509   0.12709   0.00000  Uiso   1.00
O101   O     0.00352   0.16920   0.28834   0.00000  Uiso   1.00
O102   O     0.24647   0.41920   0.04500   0.00000  Uiso   1.00
O103   O     0.25353   0.08080   0.28833   0.00000  Uiso   1.00
O104   O     0.24651   0.08080   0.04499   0.00000  Uiso   1.00
O105   O     0.25349   0.41920   0.28834   0.00000  Uiso   1.00
O106   O     0.45491   0.29509   0.20625   0.00000  Uiso   1.00
O107   O     0.04508   0.20491   0.12709   0.00000  Uiso   1.00
O108   O     0.45491   0.20491   0.12709   0.00000  Uiso   1.00
O109   O     0.04508   0.29509   0.20625   0.00000  Uiso   1.00
O110   O     0.04508   0.29509   0.12709   0.00000  Uiso   1.00
O111   O     0.45491   0.20491   0.20625   0.00000  Uiso   1.00
O112   O     0.29508   0.45491   0.20625   0.00000  Uiso   1.00
C113   C     0.56059   0.19203   0.16625   0.00000  Uiso   1.00
C114   C     0.50054   0.28935   0.30895   0.00000  Uiso   1.00
C115   C     0.99945   0.28935   0.02439   0.00000  Uiso   1.00
C116   C     0.50055   0.21065   0.30895   0.00000  Uiso   1.00
C117   C     0.74944   0.46065   0.02439   0.00000  Uiso   1.00
C118   C     0.75056   0.03935   0.30895   0.00000  Uiso   1.00
C119   C     0.74946   0.03935   0.02439   0.00000  Uiso   1.00
C120   C     0.75054   0.46065   0.30895   0.00000  Uiso   1.00
C121   C     0.88457   0.14916   0.12601   0.00000  Uiso   1.00
C122   C     0.61543   0.35083   0.20732   0.00000  Uiso   1.00
C123   C     0.60718   0.36304   0.12441   0.00000  Uiso   1.00
C124   C     0.93941   0.30797   0.16708   0.00000  Uiso   1.00
C125   C     0.89282   0.13696   0.20893   0.00000  Uiso   1.00
C126   C     0.61544   0.14918   0.20732   0.00000  Uiso   1.00
C127   C     0.88456   0.35082   0.12602   0.00000  Uiso   1.00
C128   C     0.89281   0.36303   0.20893   0.00000  Uiso   1.00
C129   C     0.60719   0.13697   0.12441   0.00000  Uiso   1.00
C130   C     0.63456   0.39918   0.12602   0.00000  Uiso   1.00
C131   C     0.86544   0.10082   0.20732   0.00000  Uiso   1.00
C132   C     0.85719   0.11303   0.12441   0.00000  Uiso   1.00
C133   C     0.64281   0.38697   0.20893   0.00000  Uiso   1.00
C134   C     0.86543   0.39916   0.20732   0.00000  Uiso   1.00
C135   C     0.93941   0.19202   0.16708   0.00000  Uiso   1.00
C136   C     0.63457   0.10083   0.12601   0.00000  Uiso   1.00
C137   C     0.64282   0.11304   0.20892   0.00000  Uiso   1.00
C138   C     0.85718   0.38696   0.12441   0.00000  Uiso   1.00
C139   C     0.59538   0.34024   0.16564   0.00000  Uiso   1.00
C140   C     0.90462   0.15976   0.16769   0.00000  Uiso   1.00
C141   C     0.90461   0.34023   0.16769   0.00000  Uiso   1.00
C142   C     0.59539   0.15977   0.16564   0.00000  Uiso   1.00
C143   C     0.84539   0.09023   0.16564   0.00000  Uiso   1.00
C144   C     0.65461   0.40977   0.16769   0.00000  Uiso   1.00
C145   C     0.65462   0.09024   0.16769   0.00000  Uiso   1.00
C146   C     0.56059   0.30798   0.16625   0.00000  Uiso   1.00
C147   C     0.84538   0.40976   0.16564   0.00000  Uiso   1.00
C148   C     0.88949   0.17681   0.08481   0.00000  Uiso   1.00
C149   C     0.61051   0.32319   0.24853   0.00000  Uiso   1.00
C150   C     0.59416   0.34841   0.07911   0.00000  Uiso   1.00
C151   C     0.90584   0.15159   0.25422   0.00000  Uiso   1.00
C152   C     0.61052   0.17683   0.24852   0.00000  Uiso   1.00
C153   C     0.88948   0.32317   0.08481   0.00000  Uiso   1.00
C154   C     0.90583   0.34839   0.25422   0.00000  Uiso   1.00
C155   C     0.59417   0.15161   0.07911   0.00000  Uiso   1.00
C156   C     0.63948   0.42683   0.08481   0.00000  Uiso   1.00
C157   C     0.81059   0.44202   0.16625   0.00000  Uiso   1.00
C158   C     0.86052   0.07317   0.24852   0.00000  Uiso   1.00
C159   C     0.84418   0.09839   0.07911   0.00000  Uiso   1.00
C160   C     0.65582   0.40161   0.25422   0.00000  Uiso   1.00
C161   C     0.86051   0.42681   0.24853   0.00000  Uiso   1.00
C162   C     0.63949   0.07319   0.08481   0.00000  Uiso   1.00
C163   C     0.65585   0.09841   0.25422   0.00000  Uiso   1.00
C164   C     0.84415   0.40159   0.07911   0.00000  Uiso   1.00
C165   C     0.68941   0.05798   0.16708   0.00000  Uiso   1.00
C166   C     0.68941   0.44203   0.16708   0.00000  Uiso   1.00
C167   C     0.81059   0.05797   0.16625   0.00000  Uiso   1.00
C168   C     0.99946   0.21065   0.02439   0.00000  Uiso   1.00
Cu169  Cu    0.50000   0.25000   0.21355   0.00000  Uiso   1.00
Cu170  Cu    0.50000   0.25000   0.11978   0.00000  Uiso   1.00
Cu171  Cu    0.75000  -0.00000   0.21355   0.00000  Uiso   1.00
Cu172  Cu    0.75000  -0.00000   0.11978   0.00000  Uiso   1.00
H173   H     0.50111   0.17196   0.07808   0.00000  Uiso   1.00
H174   H     0.99889   0.32804   0.25525   0.00000  Uiso   1.00
H175   H     0.50111   0.32804   0.07808   0.00000  Uiso   1.00
H176   H     0.99888   0.17196   0.25525   0.00000  Uiso   1.00
H177   H     0.75112   0.42196   0.07808   0.00000  Uiso   1.00
H178   H     0.74888   0.07804   0.25525   0.00000  Uiso   1.00
H179   H     0.75111   0.07804   0.07809   0.00000  Uiso   1.00
H180   H     0.74889   0.42196   0.25525   0.00000  Uiso   1.00
N181   N     0.50000   0.25000   0.28402   0.00000  Uiso   1.00
N182   N     0.89312   0.30119   0.05202   0.00000  Uiso   1.00
N183   N     0.91525   0.33701   0.29074   0.00000  Uiso   1.00
N184   N     0.58475   0.16299   0.04259   0.00000  Uiso   1.00
N185   N     0.64312   0.44881   0.05202   0.00000  Uiso   1.00
N186   N     0.85688   0.05119   0.28131   0.00000  Uiso   1.00
N187   N     0.83475   0.08700   0.04259   0.00000  Uiso   1.00
N188   N     0.66524   0.41300   0.29074   0.00000  Uiso   1.00
N189   N     0.85687   0.44879   0.28132   0.00000  Uiso   1.00
N190   N     0.64313   0.05120   0.05202   0.00000  Uiso   1.00
N191   N     0.66528   0.08704   0.29074   0.00000  Uiso   1.00
N192   N     0.50000   0.25000   0.04931   0.00000  Uiso   1.00
N193   N     0.83472   0.41296   0.04259   0.00000  Uiso   1.00
N194   N     0.75000  -0.00000   0.28402   0.00000  Uiso   1.00
N195   N     0.75000  -0.00000   0.04931   0.00000  Uiso   1.00
N196   N     0.89313   0.19880   0.05202   0.00000  Uiso   1.00
N197   N     0.60687   0.30120   0.28131   0.00000  Uiso   1.00
N198   N     0.58473   0.33703   0.04259   0.00000  Uiso   1.00
N199   N     0.91527   0.16297   0.29074   0.00000  Uiso   1.00
N200   N     0.60688   0.19881   0.28131   0.00000  Uiso   1.00
O201   O     0.54508   0.20491   0.20625   0.00000  Uiso   1.00
O202   O     0.70491   0.04509   0.12709   0.00000  Uiso   1.00
O203   O     0.70491   0.04509   0.20625   0.00000  Uiso   1.00
O204   O     0.79508   0.45491   0.12709   0.00000  Uiso   1.00
O205   O     0.70491   0.45491   0.12709   0.00000  Uiso   1.00
O206   O     0.79508   0.04509   0.20625   0.00000  Uiso   1.00
O207   O     0.79508   0.04509   0.12709   0.00000  Uiso   1.00
O208   O     0.70491   0.45491   0.20625   0.00000  Uiso   1.00
O209   O     0.99650   0.16920   0.04500   0.00000  Uiso   1.00
O210   O     0.50350   0.33080   0.28834   0.00000  Uiso   1.00
O211   O     0.99648   0.33080   0.04500   0.00000  Uiso   1.00
O212   O     0.95491   0.29509   0.12709   0.00000  Uiso   1.00
O213   O     0.50352   0.16920   0.28834   0.00000  Uiso   1.00
O214   O     0.74647   0.41920   0.04500   0.00000  Uiso   1.00
O215   O     0.75353   0.08080   0.28833   0.00000  Uiso   1.00
O216   O     0.74651   0.08080   0.04499   0.00000  Uiso   1.00
O217   O     0.75349   0.41920   0.28834   0.00000  Uiso   1.00
O218   O     0.95491   0.29509   0.20625   0.00000  Uiso   1.00
O219   O     0.54508   0.20491   0.12709   0.00000  Uiso   1.00
O220   O     0.95491   0.20491   0.12709   0.00000  Uiso   1.00
O221   O     0.54508   0.29509   0.20625   0.00000  Uiso   1.00
O222   O     0.54508   0.29509   0.12709   0.00000  Uiso   1.00
O223   O     0.95491   0.20491   0.20625   0.00000  Uiso   1.00
O224   O     0.79508   0.45491   0.20625   0.00000  Uiso   1.00
C225   C     0.06059   0.69203   0.16625   0.00000  Uiso   1.00
C226   C     0.00054   0.78935   0.30895   0.00000  Uiso   1.00
C227   C     0.49945   0.78935   0.02439   0.00000  Uiso   1.00
C228   C     0.00055   0.71065   0.30895   0.00000  Uiso   1.00
C229   C     0.24944   0.96065   0.02439   0.00000  Uiso   1.00
C230   C     0.25056   0.53935   0.30895   0.00000  Uiso   1.00
C231   C     0.24946   0.53935   0.02439   0.00000  Uiso   1.00
C232   C     0.25054   0.96065   0.30895   0.00000  Uiso   1.00
C233   C     0.38457   0.64916   0.12601   0.00000  Uiso   1.00
C234   C     0.11543   0.85083   0.20732   0.00000  Uiso   1.00
C235   C     0.10718   0.86304   0.12441   0.00000  Uiso   1.00
C236   C     0.43941   0.80797   0.16708   0.00000  Uiso   1.00
C237   C     0.39282   0.63696   0.20893   0.00000  Uiso   1.00
C238   C     0.11544   0.64918   0.20732   0.00000  Uiso   1.00
C239   C     0.38456   0.85082   0.12602   0.00000  Uiso   1.00
C240   C     0.39281   0.86303   0.20893   0.00000  Uiso   1.00
C241   C     0.10719   0.63697   0.12441   0.00000  Uiso   1.00
C242   C     0.13456   0.89918   0.12602   0.00000  Uiso   1.00
C243   C     0.36544   0.60082   0.20732   0.00000  Uiso   1.00
C244   C     0.35719   0.61303   0.12441   0.00000  Uiso   1.00
C245   C     0.14281   0.88697   0.20893   0.00000  Uiso   1.00
C246   C     0.36543   0.89916   0.20732   0.00000  Uiso   1.00
C247   C     0.43941   0.69202   0.16708   0.00000  Uiso   1.00
C248   C     0.13457   0.60083   0.12601   0.00000  Uiso   1.00
C249   C     0.14282   0.61304   0.20892   0.00000  Uiso   1.00
C250   C     0.35718   0.88696   0.12441   0.00000  Uiso   1.00
C251   C     0.09538   0.84024   0.16564   0.00000  Uiso   1.00
C252   C     0.40462   0.65976   0.16769   0.00000  Uiso   1.00
C253   C     0.40461   0.84023   0.16769   0.00000  Uiso   1.00
C254   C     0.09539   0.65977   0.16564   0.00000  Uiso   1.00
C255   C     0.34539   0.59023   0.16564   0.00000  Uiso   1.00
C256   C     0.15461   0.90977   0.16769   0.00000  Uiso   1.00
C257   C     0.15462   0.59024   0.16769   0.00000  Uiso   1.00
C258   C     0.06059   0.80798   0.16625   0.00000  Uiso   1.00
C259   C     0.34538   0.90976   0.16564   0.00000  Uiso   1.00
C260   C     0.38949   0.67681   0.08481   0.00000  Uiso   1.00
C261   C     0.11051   0.82319   0.24853   0.00000  Uiso   1.00
C262   C     0.09416   0.84841   0.07911   0.00000  Uiso   1.00
C263   C     0.40584   0.65159   0.25422   0.00000  Uiso   1.00
C264   C     0.11052   0.67683   0.24852   0.00000  Uiso   1.00
C265   C     0.38948   0.82317   0.08481   0.00000  Uiso   1.00
C266   C     0.40583   0.84839   0.25422   0.00000  Uiso   1.00
C267   C     0.09417   0.65161   0.07911   0.00000  Uiso   1.00
C268   C     0.13948   0.92683   0.08481   0.00000  Uiso   1.00
C269   C     0.31059   0.94202   0.16625   0.00000  Uiso   1.00
C270   C     0.36052   0.57317   0.24852   0.00000  Uiso   1.00
C271   C     0.34418   0.59839   0.07911   0.00000  Uiso   1.00
C272   C     0.15582   0.90161   0.25422   0.00000  Uiso   1.00
C273   C     0.36051   0.92681   0.24853   0.00000  Uiso   1.00
C274   C     0.13949   0.57319   0.08481   0.00000  Uiso   1.00
C275   C     0.15585   0.59841   0.25422   0.00000  Uiso   1.00
C276   C     0.34415   0.90159   0.07911   0.00000  Uiso   1.00
C277   C     0.18941   0.55798   0.16708   0.00000  Uiso   1.00
C278   C     0.18941   0.94203   0.16708   0.00000  Uiso   1.00
C279   C     0.31059   0.55797   0.16625   0.00000  Uiso   1.00
C280   C     0.49946   0.71065   0.02439   0.00000  Uiso   1.00
Cu281  Cu    0.00000   0.75000   0.21355   0.00000  Uiso   1.00
Cu282  Cu    0.00000   0.75000   0.11978   0.00000  Uiso   1.00
Cu283  Cu    0.25000   0.50000   0.21355   0.00000  Uiso   1.00
Cu284  Cu    0.25000   0.50000   0.11978   0.00000  Uiso   1.00
H285   H     0.00111   0.67196   0.07808   0.00000  Uiso   1.00
H286   H     0.49889   0.82804   0.25525   0.00000  Uiso   1.00
H287   H     0.00111   0.82804   0.07808   0.00000  Uiso   1.00
H288   H     0.49888   0.67196   0.25525   0.00000  Uiso   1.00
H289   H     0.25112   0.92196   0.07808   0.00000  Uiso   1.00
H290   H     0.24888   0.57804   0.25525   0.00000  Uiso   1.00
H291   H     0.25111   0.57804   0.07809   0.00000  Uiso   1.00
H292   H     0.24889   0.92196   0.25525   0.00000  Uiso   1.00
N293   N     0.00000   0.75000   0.28402   0.00000  Uiso   1.00
N294   N     0.39312   0.80119   0.05202   0.00000  Uiso   1.00
N295   N     0.41525   0.83701   0.29074   0.00000  Uiso   1.00
N296   N     0.08475   0.66299   0.04259   0.00000  Uiso   1.00
N297   N     0.14312   0.94881   0.05202   0.00000  Uiso   1.00
N298   N     0.35688   0.55119   0.28131   0.00000  Uiso   1.00
N299   N     0.33475   0.58700   0.04259   0.00000  Uiso   1.00
N300   N     0.16524   0.91300   0.29074   0.00000  Uiso   1.00
N301   N     0.35687   0.94879   0.28132   0.00000  Uiso   1.00
N302   N     0.14313   0.55120   0.05202   0.00000  Uiso   1.00
N303   N     0.16528   0.58704   0.29074   0.00000  Uiso   1.00
N304   N     0.00000   0.75000   0.04931   0.00000  Uiso   1.00
N305   N     0.33472   0.91296   0.04259   0.00000  Uiso   1.00
N306   N     0.25000   0.50000   0.28402   0.00000  Uiso   1.00
N307   N     0.25000   0.50000   0.04931   0.00000  Uiso   1.00
N308   N     0.39313   0.69880   0.05202   0.00000  Uiso   1.00
N309   N     0.10687   0.80120   0.28131   0.00000  Uiso   1.00
N310   N     0.08473   0.83703   0.04259   0.00000  Uiso   1.00
N311   N     0.41527   0.66297   0.29074   0.00000  Uiso   1.00
N312   N     0.10688   0.69881   0.28131   0.00000  Uiso   1.00
O313   O     0.04508   0.70491   0.20625   0.00000  Uiso   1.00
O314   O     0.20491   0.54509   0.12709   0.00000  Uiso   1.00
O315   O     0.20491   0.54509   0.20625   0.00000  Uiso   1.00
O316   O     0.29508   0.95491   0.12709   0.00000  Uiso   1.00
O317   O     0.20491   0.95491   0.12709   0.00000  Uiso   1.00
O318   O     0.29508   0.54509   0.20625   0.00000  Uiso   1.00
O319   O     0.29508   0.54509   0.12709   0.00000  Uiso   1.00
O320   O     0.20491   0.95491   0.20625   0.00000  Uiso   1.00
O321   O     0.49650   0.66920   0.04500   0.00000  Uiso   1.00
O322   O     0.00350   0.83080   0.28834   0.00000  Uiso   1.00
O323   O     0.49648   0.83080   0.04500   0.00000  Uiso   1.00
O324   O     0.45491   0.79509   0.12709   0.00000  Uiso   1.00
O325   O     0.00352   0.66920   0.28834   0.00000  Uiso   1.00
O326   O     0.24647   0.91920   0.04500   0.00000  Uiso   1.00
O327   O     0.25353   0.58080   0.28833   0.00000  Uiso   1.00
O328   O     0.24651   0.58080   0.04499   0.00000  Uiso   1.00
O329   O     0.25349   0.91920   0.28834   0.00000  Uiso   1.00
O330   O     0.45491   0.79509   0.20625   0.00000  Uiso   1.00
O331   O     0.04508   0.70491   0.12709   0.00000  Uiso   1.00
O332   O     0.45491   0.70491   0.12709   0.00000  Uiso   1.00
O333   O     0.04508   0.79509   0.20625   0.00000  Uiso   1.00
O334   O     0.04508   0.79509   0.12709   0.00000  Uiso   1.00
O335   O     0.45491   0.70491   0.20625   0.00000  Uiso   1.00
O336   O     0.29508   0.95491   0.20625   0.00000  Uiso   1.00
C337   C     0.56059   0.69203   0.16625   0.00000  Uiso   1.00
C338   C     0.50054   0.78935   0.30895   0.00000  Uiso   1.00
C339   C     0.99945   0.78935   0.02439   0.00000  Uiso   1.00
C340   C     0.50055   0.71065   0.30895   0.00000  Uiso   1.00
C341   C     0.74944   0.96065   0.02439   0.00000  Uiso   1.00
C342   C     0.75056   0.53935   0.30895   0.00000  Uiso   1.00
C343   C     0.74946   0.53935   0.02439   0.00000  Uiso   1.00
C344   C     0.75054   0.96065   0.30895   0.00000  Uiso   1.00
C345   C     0.88457   0.64916   0.12601   0.00000  Uiso   1.00
C346   C     0.61543   0.85083   0.20732   0.00000  Uiso   1.00
C347   C     0.60718   0.86304   0.12441   0.00000  Uiso   1.00
C348   C     0.93941   0.80797   0.16708   0.00000  Uiso   1.00
C349   C     0.89282   0.63696   0.20893   0.00000  Uiso   1.00
C350   C     0.61544   0.64918   0.20732   0.00000  Uiso   1.00
C351   C     0.88456   0.85082   0.12602   0.00000  Uiso   1.00
C352   C     0.89281   0.86303   0.20893   0.00000  Uiso   1.00
C353   C     0.60719   0.63697   0.12441   0.00000  Uiso   1.00
C354   C     0.63456   0.89918   0.12602   0.00000  Uiso   1.00
C355   C     0.86544   0.60082   0.20732   0.00000  Uiso   1.00
C356   C     0.85719   0.61303   0.12441   0.00000  Uiso   1.00
C357   C     0.64281   0.88697   0.20893   0.00000  Uiso   1.00
C358   C     0.86543   0.89916   0.20732   0.00000  Uiso   1.00
C359   C     0.93941   0.69202   0.16708   0.00000  Uiso   1.00
C360   C     0.63457   0.60083   0.12601   0.00000  Uiso   1.00
C361   C     0.64282   0.61304   0.20892   0.00000  Uiso   1.00
C362   C     0.85718   0.88696   0.12441   0.00000  Uiso   1.00
C363   C     0.59538   0.84024   0.16564   0.00000  Uiso   1.00
C364   C     0.90462   0.65976   0.16769   0.00000  Uiso   1.00
C365   C     0.90461   0.84023   0.16769   0.00000  Uiso   1.00
C366   C     0.59539   0.65977   0.16564   0.00000  Uiso   1.00
C367   C     0.84539   0.59023   0.16564   0.00000  Uiso   1.00
C368   C     0.65461   0.90977   0.16769   0.00000  Uiso   1.00
C369   C     0.65462   0.59024   0.16769   0.00000  Uiso   1.00
C370   C     0.56059   0.80798   0.16625   0.00000  Uiso   1.00
C371   C     0.84538   0.90976   0.16564   0.00000  Uiso   1.00
C372   C     0.88949   0.67681   0.08481   0.00000  Uiso   1.00
C373   C     0.61051   0.82319   0.24853   0.00000  Uiso   1.00
C374   C     0.59416   0.84841   0.07911   0.00000  Uiso   1.00
C375   C     0.90584   0.65159   0.25422   0.00000  Uiso   1.00
C376   C     0.61052   0.67683   0.24852   0.00000  Uiso   1.00
C377   C     0.88948   0.82317   0.08481   0.00000  Uiso   1.00
C378   C     0.90583   0.84839   0.25422   0.00000  Uiso   1.00
C379   C     0.59417   0.65161   0.07911   0.00000  Uiso   1.00
C380   C     0.63948   0.92683   0.08481   0.00000  Uiso   1.00
C381   C     0.81059   0.94202   0.16625   0.00000  Uiso   1.00
C382   C     0.86052   0.57317   0.24852   0.00000  Uiso   1.00
C383   C     0.84418   0.59839   0.07911   0.00000  Uiso   1.00
C384   C     0.65582   0.90161   0.25422   0.00000  Uiso   1.00
C385   C     0.86051   0.92681   0.24853   0.00000  Uiso   1.00
C386   C     0.63949   0.57319   0.08481   0.00000  Uiso   1.00
C387   C     0.65585   0.59841   0.25422   0.00000  Uiso   1.00
C388   C     0.84415   0.90159   0.07911   0.00000  Uiso   1.00
C389   C     0.68941   0.55798   0.16708   0.00000  Uiso   1.00
C390   C     0.68941   0.94203   0.16708   0.00000  Uiso   1.00
C391   C     0.81059   0.55797   0.16625   0.00000  Uiso   1.00
C392   C     0.99946   0.71065   0.02439   0.00000  Uiso   1.00
Cu393  Cu    0.50000   0.75000   0.21355   0.00000  Uiso   1.00
Cu394  Cu    0.50000   0.75000   0.11978   0.00000  Uiso   1.00
Cu395  Cu    0.75000   0.50000   0.21355   0.00000  Uiso   1.00
Cu396  Cu    0.75000   0.50000   0.11978   0.00000  Uiso   1.00
H397   H     0.50111   0.67196   0.07808   0.00000  Uiso   1.00
H398   H     0.99889   0.82804   0.25525   0.00000  Uiso   1.00
H399   H     0.50111   0.82804   0.07808   0.00000  Uiso   1.00
H400   H     0.99888   0.67196   0.25525   0.00000  Uiso   1.00
H401   H     0.75112   0.92196   0.07808   0.00000  Uiso   1.00
H402   H     0.74888   0.57804   0.25525   0.00000  Uiso   1.00
H403   H     0.75111   0.57804   0.07809   0.00000  Uiso   1.00
H404   H     0.74889   0.92196   0.25525   0.00000  Uiso   1.00
N405   N     0.50000   0.75000   0.28402   0.00000  Uiso   1.00
N406   N     0.89312   0.80119   0.05202   0.00000  Uiso   1.00
N407   N     0.91525   0.83701   0.29074   0.00000  Uiso   1.00
N408   N     0.58475   0.66299   0.04259   0.00000  Uiso   1.00
N409   N     0.64312   0.94881   0.05202   0.00000  Uiso   1.00
N410   N     0.85688   0.55119   0.28131   0.00000  Uiso   1.00
N411   N     0.83475   0.58700   0.04259   0.00000  Uiso   1.00
N412   N     0.66524   0.91300   0.29074   0.00000  Uiso   1.00
N413   N     0.85687   0.94879   0.28132   0.00000  Uiso   1.00
N414   N     0.64313   0.55120   0.05202   0.00000  Uiso   1.00
N415   N     0.66528   0.58704   0.29074   0.00000  Uiso   1.00
N416   N     0.50000   0.75000   0.04931   0.00000  Uiso   1.00
N417   N     0.83472   0.91296   0.04259   0.00000  Uiso   1.00
N418   N     0.75000   0.50000   0.28402   0.00000  Uiso   1.00
N419   N     0.75000   0.50000   0.04931   0.00000  Uiso   1.00
N420   N     0.89313   0.69880   0.05202   0.00000  Uiso   1.00
N421   N     0.60687   0.80120   0.28131   0.00000  Uiso   1.00
N422   N     0.58473   0.83703   0.04259   0.00000  Uiso   1.00
N423   N     0.91527   0.66297   0.29074   0.00000  Uiso   1.00
N424   N     0.60688   0.69881   0.28131   0.00000  Uiso   1.00
O425   O     0.54508   0.70491   0.20625   0.00000  Uiso   1.00
O426   O     0.70491   0.54509   0.12709   0.00000  Uiso   1.00
O427   O     0.70491   0.54509   0.20625   0.00000  Uiso   1.00
O428   O     0.79508   0.95491   0.12709   0.00000  Uiso   1.00
O429   O     0.70491   0.95491   0.12709   0.00000  Uiso   1.00
O430   O     0.79508   0.54509   0.20625   0.00000  Uiso   1.00
O431   O     0.79508   0.54509   0.12709   0.00000  Uiso   1.00
O432   O     0.70491   0.95491   0.20625   0.00000  Uiso   1.00
O433   O     0.99650   0.66920   0.04500   0.00000  Uiso   1.00
O434   O     0.50350   0.83080   0.28834   0.00000  Uiso   1.00
O435   O     0.99648   0.83080   0.04500   0.00000  Uiso   1.00
O436   O     0.95491   0.79509   0.12709   0.00000  Uiso   1.00
O437   O     0.50352   0.66920   0.28834   0.00000  Uiso   1.00
O438   O     0.74647   0.91920   0.04500   0.00000  Uiso   1.00
O439   O     0.75353   0.58080   0.28833   0.00000  Uiso   1.00
O440   O     0.74651   0.58080   0.04499   0.00000  Uiso   1.00
O441   O     0.75349   0.91920   0.28834   0.00000  Uiso   1.00
O442   O     0.95491   0.79509   0.20625   0.00000  Uiso   1.00
O443   O     0.54508   0.70491   0.12709   0.00000  Uiso   1.00
O444   O     0.95491   0.70491   0.12709   0.00000  Uiso   1.00
O445   O     0.54508   0.79509   0.20625   0.00000  Uiso   1.00
O446   O     0.54508   0.79509   0.12709   0.00000  Uiso   1.00
O447   O     0.95491   0.70491   0.20625   0.00000  Uiso   1.00
O448   O     0.79508   0.95491   0.20625   0.00000  Uiso   1.00
C449   C     0.06059   0.19203   0.49958   0.00000  Uiso   1.00
C450   C     0.00054   0.28935   0.64228   0.00000  Uiso   1.00
C451   C     0.49945   0.28935   0.35772   0.00000  Uiso   1.00
C452   C     0.00055   0.21065   0.64228   0.00000  Uiso   1.00
C453   C     0.24944   0.46065   0.35772   0.00000  Uiso   1.00
C454   C     0.25056   0.03935   0.64228   0.00000  Uiso   1.00
C455   C     0.24946   0.03935   0.35772   0.00000  Uiso   1.00
C456   C     0.25054   0.46065   0.64228   0.00000  Uiso   1.00
C457   C     0.38457   0.14916   0.45935   0.00000  Uiso   1.00
C458   C     0.11543   0.35083   0.54065   0.00000  Uiso   1.00
C459   C     0.10718   0.36304   0.45774   0.00000  Uiso   1.00
C460   C     0.43941   0.30797   0.50042   0.00000  Uiso   1.00
C461   C     0.39282   0.13696   0.54226   0.00000  Uiso   1.00
C462   C     0.11544   0.14918   0.54065   0.00000  Uiso   1.00
C463   C     0.38456   0.35082   0.45935   0.00000  Uiso   1.00
C464   C     0.39281   0.36303   0.54226   0.00000  Uiso   1.00
C465   C     0.10719   0.13697   0.45774   0.00000  Uiso   1.00
C466   C     0.13456   0.39918   0.45935   0.00000  Uiso   1.00
C467   C     0.36544   0.10082   0.54065   0.00000  Uiso   1.00
C468   C     0.35719   0.11303   0.45774   0.00000  Uiso   1.00
C469   C     0.14281   0.38697   0.54226   0.00000  Uiso   1.00
C470   C     0.36543   0.39916   0.54065   0.00000  Uiso   1.00
C471   C     0.43941   0.19202   0.50042   0.00000  Uiso   1.00
C472   C     0.13457   0.10083   0.45935   0.00000  Uiso   1.00
C473   C     0.14282   0.11304   0.54226   0.00000  Uiso   1.00
C474   C     0.35718   0.38696   0.45774   0.00000  Uiso   1.00
C475   C     0.09538   0.34024   0.49897   0.00000  Uiso   1.00
C476   C     0.40462   0.15976   0.50103   0.00000  Uiso   1.00
C477   C     0.40461   0.34023   0.50103   0.00000  Uiso   1.00
C478   C     0.09539   0.15977   0.49897   0.00000  Uiso   1.00
C479   C     0.34539   0.09023   0.49897   0.00000  Uiso   1.00
C480   C     0.15461   0.40977   0.50103   0.00000  Uiso   1.00
C481   C     0.15462   0.09024   0.50103   0.00000  Uiso   1.00
C482   C     0.06059   0.30798   0.49958   0.00000  Uiso   1.00
C483   C     0.34538   0.40976   0.49897   0.00000  Uiso   1.00
C484   C     0.38949   0.17681   0.41814   0.00000  Uiso   1.00
C485   C     0.11051   0.32319   0.58186   0.00000  Uiso   1.00
C486   C     0.09416   0.34841   0.41245   0.00000  Uiso   1.00
C487   C     0.40584   0.15159   0.58755   0.00000  Uiso   1.00
C488   C     0.11052   0.17683   0.58186   0.00000  Uiso   1.00
C489   C     0.38948   0.32317   0.41814   0.00000  Uiso   1.00
C490   C     0.40583   0.34839   0.58755   0.00000  Uiso   1.00
C491   C     0.09417   0.15161   0.41245   0.00000  Uiso   1.00
C492   C     0.13948   0.42683   0.41814   0.00000  Uiso   1.00
C493   C     0.31059   0.44202   0.49958   0.00000  Uiso   1.00
C494   C     0.36052   0.07317   0.58186   0.00000  Uiso   1.00
C495   C     0.34418   0.09839   0.41245   0.00000  Uiso   1.00
C496   C     0.15582   0.40161   0.58755   0.00000  Uiso   1.00
C497   C     0.36051   0.42681   0.58186   0.00000  Uiso   1.00
C498   C     0.13949   0.07319   0.41814   0.00000  Uiso   1.00
C499   C     0.15585   0.09841   0.58755   0.00000  Uiso   1.00
C500   C     0.34415   0.40159   0.41245   0.00000  Uiso   1.00
C501   C     0.18941   0.05798   0.50042   0.00000  Uiso   1.00
C502   C     0.18941   0.44203   0.50042   0.00000  Uiso   1.00
C503   C     0.31059   0.05797   0.49958   0.00000  Uiso   1.00
C504   C     0.49946   0.21065   0.35772   0.00000  Uiso   1.00
Cu505  Cu    0.00000   0.25000   0.54689   0.00000  Uiso   1.00
Cu506  Cu    0.00000   0.25000   0.45311   0.00000  Uiso   1.00
Cu507  Cu    0.25000  -0.00000   0.54689   0.00000  Uiso   1.00
Cu508  Cu    0.25000  -0.00000   0.45311   0.00000  Uiso   1.00
H509   H     0.00111   0.17196   0.41142   0.00000  Uiso   1.00
H510   H     0.49889   0.32804   0.58858   0.00000  Uiso   1.00
H511   H     0.00111   0.32804   0.41142   0.00000  Uiso   1.00
H512   H     0.49888   0.17196   0.58858   0.00000  Uiso   1.00
H513   H     0.25112   0.42196   0.41141   0.00000  Uiso   1.00
H514   H     0.24888   0.07804   0.58859   0.00000  Uiso   1.00
H515   H     0.25111   0.07804   0.41142   0.00000  Uiso   1.00
H516   H     0.24889   0.42196   0.58858   0.00000  Uiso   1.00
N517   N     0.00000   0.25000   0.61736   0.00000  Uiso   1.00
N518   N     0.39312   0.30119   0.38536   0.00000  Uiso   1.00
N519   N     0.41525   0.33701   0.62408   0.00000  Uiso   1.00
N520   N     0.08475   0.16299   0.37592   0.00000  Uiso   1.00
N521   N     0.14312   0.44881   0.38536   0.00000  Uiso   1.00
N522   N     0.35688   0.05119   0.61464   0.00000  Uiso   1.00
N523   N     0.33475   0.08700   0.37592   0.00000  Uiso   1.00
N524   N     0.16524   0.41300   0.62408   0.00000  Uiso   1.00
N525   N     0.35687   0.44879   0.61465   0.00000  Uiso   1.00
N526   N     0.14313   0.05120   0.38535   0.00000  Uiso   1.00
N527   N     0.16528   0.08704   0.62407   0.00000  Uiso   1.00
N528   N     0.00000   0.25000   0.38264   0.00000  Uiso   1.00
N529   N     0.33472   0.41296   0.37593   0.00000  Uiso   1.00
N530   N     0.25000  -0.00000   0.61736   0.00000  Uiso   1.00
N531   N     0.25000  -0.00000   0.38264   0.00000  Uiso   1.00
N532   N     0.39313   0.19880   0.38535   0.00000  Uiso   1.00
N533   N     0.10687   0.30120   0.61465   0.00000  Uiso   1.00
N534   N     0.08473   0.33703   0.37593   0.00000  Uiso   1.00
N535   N     0.41527   0.16297   0.62407   0.00000  Uiso   1.00
N536   N     0.10688   0.19881   0.61464   0.00000  Uiso   1.00
O537   O     0.04508   0.20491   0.53958   0.00000  Uiso   1.00
O538   O     0.20491   0.04509   0.46042   0.00000  Uiso   1.00
O539   O     0.20491   0.04509   0.53958   0.00000  Uiso   1.00
O540   O     0.29508   0.45491   0.46042   0.00000  Uiso   1.00
O541   O     0.20491   0.45491   0.46042   0.00000  Uiso   1.00
O542   O     0.29508   0.04509   0.53958   0.00000  Uiso   1.00
O543   O     0.29508   0.04509   0.46042   0.00000  Uiso   1.00
O544   O     0.20491   0.45491   0.53958   0.00000  Uiso   1.00
O545   O     0.49650   0.16920   0.37833   0.00000  Uiso   1.00
O546   O     0.00350   0.33080   0.62167   0.00000  Uiso   1.00
O547   O     0.49648   0.33080   0.37833   0.00000  Uiso   1.00
O548   O     0.45491   0.29509   0.46042   0.00000  Uiso   1.00
O549   O     0.00352   0.16920   0.62167   0.00000  Uiso   1.00
O550   O     0.24647   0.41920   0.37833   0.00000  Uiso   1.00
O551   O     0.25353   0.08080   0.62167   0.00000  Uiso   1.00
O552   O     0.24651   0.08080   0.37833   0.00000  Uiso   1.00
O553   O     0.25349   0.41920   0.62167   0.00000  Uiso   1.00
O554   O     0.45491   0.29509   0.53958   0.00000  Uiso   1.00
O555   O     0.04508   0.20491   0.46042   0.00000  Uiso   1.00
O556   O     0.45491   0.20491   0.46042   0.00000  Uiso   1.00
O557   O     0.04508   0.29509   0.53958   0.00000  Uiso   1.00
O558   O     0.04508   0.29509   0.46042   0.00000  Uiso   1.00
O559   O     0.45491   0.20491   0.53958   0.00000  Uiso   1.00
O560   O     0.29508   0.45491   0.53958   0.00000  Uiso   1.00
C561   C     0.56059   0.19203   0.49958   0.00000  Uiso   1.00
C562   C     0.50054   0.28935   0.64228   0.00000  Uiso   1.00
C563   C     0.99945   0.28935   0.35772   0.00000  Uiso   1.00
C564   C     0.50055   0.21065   0.64228   0.00000  Uiso   1.00
C565   C     0.74944   0.46065   0.35772   0.00000  Uiso   1.00
C566   C     0.75056   0.03935   0.64228   0.00000  Uiso   1.00
C567   C     0.74946   0.03935   0.35772   0.00000  Uiso   1.00
C568   C     0.75054   0.46065   0.64228   0.00000  Uiso   1.00
C569   C     0.88457   0.14916   0.45935   0.00000  Uiso   1.00
C570   C     0.61543   0.35083   0.54065   0.00000  Uiso   1.00
C571   C     0.60718   0.36304   0.45774   0.00000  Uiso   1.00
C572   C     0.93941   0.30797   0.50042   0.00000  Uiso   1.00
C573   C     0.89282   0.13696   0.54226   0.00000  Uiso   1.00
C574   C     0.61544   0.14918   0.54065   0.00000  Uiso   1.00
C575   C     0.88456   0.35082   0.45935   0.00000  Uiso   1.00
C576   C     0.89281   0.36303   0.54226   0.00000  Uiso   1.00
C577   C     0.60719   0.13697   0.45774   0.00000  Uiso   1.00
C578   C     0.63456   0.39918   0.45935   0.00000  Uiso   1.00
C579   C     0.86544   0.10082   0.54065   0.00000  Uiso   1.00
C580   C     0.85719   0.11303   0.45774   0.00000  Uiso   1.00
C581   C     0.64281   0.38697   0.54226   0.00000  Uiso   1.00
C582   C     0.86543   0.39916   0.54065   0.00000  Uiso   1.00
C583   C     0.93941   0.19202   0.50042   0.00000  Uiso   1.00
C584   C     0.63457   0.10083   0.45935   0.00000  Uiso   1.00
C585   C     0.64282   0.11304   0.54226   0.00000  Uiso   1.00
C586   C     0.85718   0.38696   0.45774   0.00000  Uiso   1.00
C587   C     0.59538   0.34024   0.49897   0.00000  Uiso   1.00
C588   C     0.90462   0.15976   0.50103   0.00000  Uiso   1.00
C589   C     0.90461   0.34023   0.50103   0.00000  Uiso   1.00
C590   C     0.59539   0.15977   0.49897   0.00000  Uiso   1.00
C591   C     0.84539   0.09023   0.49897   0.00000  Uiso   1.00
C592   C     0.65461   0.40977   0.50103   0.00000  Uiso   1.00
C593   C     0.65462   0.09024   0.50103   0.00000  Uiso   1.00
C594   C     0.56059   0.30798   0.49958   0.00000  Uiso   1.00
C595   C     0.84538   0.40976   0.49897   0.00000  Uiso   1.00
C596   C     0.88949   0.17681   0.41814   0.00000  Uiso   1.00
C597   C     0.61051   0.32319   0.58186   0.00000  Uiso   1.00
C598   C     0.59416   0.34841   0.41245   0.00000  Uiso   1.00
C599   C     0.90584   0.15159   0.58755   0.00000  Uiso   1.00
C600   C     0.61052   0.17683   0.58186   0.00000  Uiso   1.00
C601   C     0.88948   0.32317   0.41814   0.00000  Uiso   1.00
C602   C     0.90583   0.34839   0.58755   0.00000  Uiso   1.00
C603   C     0.59417   0.15161   0.41245   0.00000  Uiso   1.00
C604   C     0.63948   0.42683   0.41814   0.00000  Uiso   1.00
C605   C     0.81059   0.44202   0.49958   0.00000  Uiso   1.00
C606   C     0.86052   0.07317   0.58186   0.00000  Uiso   1.00
C607   C     0.84418   0.09839   0.41245   0.00000  Uiso   1.00
C608   C     0.65582   0.40161   0.58755   0.00000  Uiso   1.00
C609   C     0.86051   0.42681   0.58186   0.00000  Uiso   1.00
C610   C     0.63949   0.07319   0.41814   0.00000  Uiso   1.00
C611   C     0.65585   0.09841   0.58755   0.00000  Uiso   1.00
C612   C     0.84415   0.40159   0.41245   0.00000  Uiso   1.00
C613   C     0.68941   0.05798   0.50042   0.00000  Uiso   1.00
C614   C     0.68941   0.44203   0.50042   0.00000  Uiso   1.00
C615   C     0.81059   0.05797   0.49958   0.00000  Uiso   1.00
C616   C     0.99946   0.21065   0.35772   0.00000  Uiso   1.00
Cu617  Cu    0.50000   0.25000   0.54689   0.00000  Uiso   1.00
Cu618  Cu    0.50000   0.25000   0.45311   0.00000  Uiso   1.00
Cu619  Cu    0.75000  -0.00000   0.54689   0.00000  Uiso   1.00
Cu620  Cu    0.75000  -0.00000   0.45311   0.00000  Uiso   1.00
H621   H     0.50111   0.17196   0.41142   0.00000  Uiso   1.00
H622   H     0.99889   0.32804   0.58858   0.00000  Uiso   1.00
H623   H     0.50111   0.32804   0.41142   0.00000  Uiso   1.00
H624   H     0.99888   0.17196   0.58858   0.00000  Uiso   1.00
H625   H     0.75112   0.42196   0.41141   0.00000  Uiso   1.00
H626   H     0.74888   0.07804   0.58859   0.00000  Uiso   1.00
H627   H     0.75111   0.07804   0.41142   0.00000  Uiso   1.00
H628   H     0.74889   0.42196   0.58858   0.00000  Uiso   1.00
N629   N     0.50000   0.25000   0.61736   0.00000  Uiso   1.00
N630   N     0.89312   0.30119   0.38536   0.00000  Uiso   1.00
N631   N     0.91525   0.33701   0.62408   0.00000  Uiso   1.00
N632   N     0.58475   0.16299   0.37592   0.00000  Uiso   1.00
N633   N     0.64312   0.44881   0.38536   0.00000  Uiso   1.00
N634   N     0.85688   0.05119   0.61464   0.00000  Uiso   1.00
N635   N     0.83475   0.08700   0.37592   0.00000  Uiso   1.00
N636   N     0.66524   0.41300   0.62408   0.00000  Uiso   1.00
N637   N     0.85687   0.44879   0.61465   0.00000  Uiso   1.00
N638   N     0.64313   0.05120   0.38535   0.00000  Uiso   1.00
N639   N     0.66528   0.08704   0.62407   0.00000  Uiso   1.00
N640   N     0.50000   0.25000   0.38264   0.00000  Uiso   1.00
N641   N     0.83472   0.41296   0.37593   0.00000  Uiso   1.00
N642   N     0.75000  -0.00000   0.61736   0.00000  Uiso   1.00
N643   N     0.75000  -0.00000   0.38264   0.00000  Uiso   1.00
N644   N     0.89313   0.19880   0.38535   0.00000  Uiso   1.00
N645   N     0.60687   0.30120   0.61465   0.00000  Uiso   1.00
N646   N     0.58473   0.33703   0.37593   0.00000  Uiso   1.00
N647   N     0.91527   0.16297   0.62407   0.00000  Uiso   1.00
N648   N     0.60688   0.19881   0.61464   0.00000  Uiso   1.00
O649   O     0.54508   0.20491   0.53958   0.00000  Uiso   1.00
O650   O     0.70491   0.04509   0.46042   0.00000  Uiso   1.00
O651   O     0.70491   0.04509   0.53958   0.00000  Uiso   1.00
O652   O     0.79508   0.45491   0.46042   0.00000  Uiso   1.00
O653   O     0.70491   0.45491   0.46042   0.00000  Uiso   1.00
O654   O     0.79508   0.04509   0.53958   0.00000  Uiso   1.00
O655   O     0.79508   0.04509   0.46042   0.00000  Uiso   1.00
O656   O     0.70491   0.45491   0.53958   0.00000  Uiso   1.00
O657   O     0.99650   0.16920   0.37833   0.00000  Uiso   1.00
O658   O     0.50350   0.33080   0.62167   0.00000  Uiso   1.00
O659   O     0.99648   0.33080   0.37833   0.00000  Uiso   1.00
O660   O     0.95491   0.29509   0.46042   0.00000  Uiso   1.00
O661   O     0.50352   0.16920   0.62167   0.00000  Uiso   1.00
O662   O     0.74647   0.41920   0.37833   0.00000  Uiso   1.00
O663   O     0.75353   0.08080   0.62167   0.00000  Uiso   1.00
O664   O     0.74651   0.08080   0.37833   0.00000  Uiso   1.00
O665   O     0.75349   0.41920   0.62167   0.00000  Uiso   1.00
O666   O     0.95491   0.29509   0.53958   0.00000  Uiso   1.00
O667   O     0.54508   0.20491   0.46042   0.00000  Uiso   1.00
O668   O     0.95491   0.20491   0.46042   0.00000  Uiso   1.00
O669   O     0.54508   0.29509   0.53958   0.00000  Uiso   1.00
O670   O     0.54508   0.29509   0.46042   0.00000  Uiso   1.00
O671   O     0.95491   0.20491   0.53958   0.00000  Uiso   1.00
O672   O     0.79508   0.45491   0.53958   0.00000  Uiso   1.00
C673   C     0.06059   0.69203   0.49958   0.00000  Uiso   1.00
C674   C     0.00054   0.78935   0.64228   0.00000  Uiso   1.00
C675   C     0.49945   0.78935   0.35772   0.00000  Uiso   1.00
C676   C     0.00055   0.71065   0.64228   0.00000  Uiso   1.00
C677   C     0.24944   0.96065   0.35772   0.00000  Uiso   1.00
C678   C     0.25056   0.53935   0.64228   0.00000  Uiso   1.00
C679   C     0.24946   0.53935   0.35772   0.00000  Uiso   1.00
C680   C     0.25054   0.96065   0.64228   0.00000  Uiso   1.00
C681   C     0.38457   0.64916   0.45935   0.00000  Uiso   1.00
C682   C     0.11543   0.85083   0.54065   0.00000  Uiso   1.00
C683   C     0.10718   0.86304   0.45774   0.00000  Uiso   1.00
C684   C     0.43941   0.80797   0.50042   0.00000  Uiso   1.00
C685   C     0.39282   0.63696   0.54226   0.00000  Uiso   1.00
C686   C     0.11544   0.64918   0.54065   0.00000  Uiso   1.00
C687   C     0.38456   0.85082   0.45935   0.00000  Uiso   1.00
C688   C     0.39281   0.86303   0.54226   0.00000  Uiso   1.00
C689   C     0.10719   0.63697   0.45774   0.00000  Uiso   1.00
C690   C     0.13456   0.89918   0.45935   0.00000  Uiso   1.00
C691   C     0.36544   0.60082   0.54065   0.00000  Uiso   1.00
C692   C     0.35719   0.61303   0.45774   0.00000  Uiso   1.00
C693   C     0.14281   0.88697   0.54226   0.00000  Uiso   1.00
C694   C     0.36543   0.89916   0.54065   0.00000  Uiso   1.00
C695   C     0.43941   0.69202   0.50042   0.00000  Uiso   1.00
C696   C     0.13457   0.60083   0.45935   0.00000  Uiso   1.00
C697   C     0.14282   0.61304   0.54226   0.00000  Uiso   1.00
C698   C     0.35718   0.88696   0.45774   0.00000  Uiso   1.00
C699   C     0.09538   0.84024   0.49897   0.00000  Uiso   1.00
C700   C     0.40462   0.65976   0.50103   0.00000  Uiso   1.00
C701   C     0.40461   0.84023   0.50103   0.00000  Uiso   1.00
C702   C     0.09539   0.65977   0.49897   0.00000  Uiso   1.00
C703   C     0.34539   0.59023   0.49897   0.00000  Uiso   1.00
C704   C     0.15461   0.90977   0.50103   0.00000  Uiso   1.00
C705   C     0.15462   0.59024   0.50103   0.00000  Uiso   1.00
C706   C     0.06059   0.80798   0.49958   0.00000  Uiso   1.00
C707   C     0.34538   0.90976   0.49897   0.00000  Uiso   1.00
C708   C     0.38949   0.67681   0.41814   0.00000  Uiso   1.00
C709   C     0.11051   0.82319   0.58186   0.00000  Uiso   1.00
C710   C     0.09416   0.84841   0.41245   0.00000  Uiso   1.00
C711   C     0.40584   0.65159   0.58755   0.00000  Uiso   1.00
C712   C     0.11052   0.67683   0.58186   0.00000  Uiso   1.00
C713   C     0.38948   0.82317   0.41814   0.00000  Uiso   1.00
C714   C     0.40583   0.84839   0.58755   0.00000  Uiso   1.00
C715   C     0.09417   0.65161   0.41245   0.00000  Uiso   1.00
C716   C     0.13948   0.92683   0.41814   0.00000  Uiso   1.00
C717   C     0.31059   0.94202   0.49958   0.00000  Uiso   1.00
C718   C     0.36052   0.57317   0.58186   0.00000  Uiso   1.00
C719   C     0.34418   0.59839   0.41245   0.00000  Uiso   1.00
C720   C     0.15582   0.90161   0.58755   0.00000  Uiso   1.00
C721   C     0.36051   0.92681   0.58186   0.00000  Uiso   1.00
C722   C     0.13949   0.57319   0.41814   0.00000  Uiso   1.00
C723   C     0.15585   0.59841   0.58755   0.00000  Uiso   1.00
C724   C     0.34415   0.90159   0.41245   0.00000  Uiso   1.00
C725   C     0.18941   0.55798   0.50042   0.00000  Uiso   1.00
C726   C     0.18941   0.94203   0.50042   0.00000  Uiso   1.00
C727   C     0.31059   0.55797   0.49958   0.00000  Uiso   1.00
C728   C     0.49946   0.71065   0.35772   0.00000  Uiso   1.00
Cu729  Cu    0.00000   0.75000   0.54689   0.00000  Uiso   1.00
Cu730  Cu    0.00000   0.75000   0.45311   0.00000  Uiso   1.00
Cu731  Cu    0.25000   0.50000   0.54689   0.00000  Uiso   1.00
Cu732  Cu    0.25000   0.50000   0.45311   0.00000  Uiso   1.00
H733   H     0.00111   0.67196   0.41142   0.00000  Uiso   1.00
H734   H     0.49889   0.82804   0.58858   0.00000  Uiso   1.00
H735   H     0.00111   0.82804   0.41142   0.00000  Uiso   1.00
H736   H     0.49888   0.67196   0.58858   0.00000  Uiso   1.00
H737   H     0.25112   0.92196   0.41141   0.00000  Uiso   1.00
H738   H     0.24888   0.57804   0.58859   0.00000  Uiso   1.00
H739   H     0.25111   0.57804   0.41142   0.00000  Uiso   1.00
H740   H     0.24889   0.92196   0.58858   0.00000  Uiso   1.00
N741   N     0.00000   0.75000   0.61736   0.00000  Uiso   1.00
N742   N     0.39312   0.80119   0.38536   0.00000  Uiso   1.00
N743   N     0.41525   0.83701   0.62408   0.00000  Uiso   1.00
N744   N     0.08475   0.66299   0.37592   0.00000  Uiso   1.00
N745   N     0.14312   0.94881   0.38536   0.00000  Uiso   1.00
N746   N     0.35688   0.55119   0.61464   0.00000  Uiso   1.00
N747   N     0.33475   0.58700   0.37592   0.00000  Uiso   1.00
N748   N     0.16524   0.91300   0.62408   0.00000  Uiso   1.00
N749   N     0.35687   0.94879   0.61465   0.00000  Uiso   1.00
N750   N     0.14313   0.55120   0.38535   0.00000  Uiso   1.00
N751   N     0.16528   0.58704   0.62407   0.00000  Uiso   1.00
N752   N     0.00000   0.75000   0.38264   0.00000  Uiso   1.00
N753   N     0.33472   0.91296   0.37593   0.00000  Uiso   1.00
N754   N     0.25000   0.50000   0.61736   0.00000  Uiso   1.00
N755   N     0.25000   0.50000   0.38264   0.00000  Uiso   1.00
N756   N     0.39313   0.69880   0.38535   0.00000  Uiso   1.00
N757   N     0.10687   0.80120   0.61465   0.00000  Uiso   1.00
N758   N     0.08473   0.83703   0.37593   0.00000  Uiso   1.00
N759   N     0.41527   0.66297   0.62407   0.00000  Uiso   1.00
N760   N     0.10688   0.69881   0.61464   0.00000  Uiso   1.00
O761   O     0.04508   0.70491   0.53958   0.00000  Uiso   1.00
O762   O     0.20491   0.54509   0.46042   0.00000  Uiso   1.00
O763   O     0.20491   0.54509   0.53958   0.00000  Uiso   1.00
O764   O     0.29508   0.95491   0.46042   0.00000  Uiso   1.00
O765   O     0.20491   0.95491   0.46042   0.00000  Uiso   1.00
O766   O     0.29508   0.54509   0.53958   0.00000  Uiso   1.00
O767   O     0.29508   0.54509   0.46042   0.00000  Uiso   1.00
O768   O     0.20491   0.95491   0.53958   0.00000  Uiso   1.00
O769   O     0.49650   0.66920   0.37833   0.00000  Uiso   1.00
O770   O     0.00350   0.83080   0.62167   0.00000  Uiso   1.00
O771   O     0.49648   0.83080   0.37833   0.00000  Uiso   1.00
O772   O     0.45491   0.79509   0.46042   0.00000  Uiso   1.00
O773   O     0.00352   0.66920   0.62167   0.00000  Uiso   1.00
O774   O     0.24647   0.91920   0.37833   0.00000  Uiso   1.00
O775   O     0.25353   0.58080   0.62167   0.00000  Uiso   1.00
O776   O     0.24651   0.58080   0.37833   0.00000  Uiso   1.00
O777   O     0.25349   0.91920   0.62167   0.00000  Uiso   1.00
O778   O     0.45491   0.79509   0.53958   0.00000  Uiso   1.00
O779   O     0.04508   0.70491   0.46042   0.00000  Uiso   1.00
O780   O     0.45491   0.70491   0.46042   0.00000  Uiso   1.00
O781   O     0.04508   0.79509   0.53958   0.00000  Uiso   1.00
O782   O     0.04508   0.79509   0.46042   0.00000  Uiso   1.00
O783   O     0.45491   0.70491   0.53958   0.00000  Uiso   1.00
O784   O     0.29508   0.95491   0.53958   0.00000  Uiso   1.00
C785   C     0.56059   0.69203   0.49958   0.00000  Uiso   1.00
C786   C     0.50054   0.78935   0.64228   0.00000  Uiso   1.00
C787   C     0.99945   0.78935   0.35772   0.00000  Uiso   1.00
C788   C     0.50055   0.71065   0.64228   0.00000  Uiso   1.00
C789   C     0.74944   0.96065   0.35772   0.00000  Uiso   1.00
C790   C     0.75056   0.53935   0.64228   0.00000  Uiso   1.00
C791   C     0.74946   0.53935   0.35772   0.00000  Uiso   1.00
C792   C     0.75054   0.96065   0.64228   0.00000  Uiso   1.00
C793   C     0.88457   0.64916   0.45935   0.00000  Uiso   1.00
C794   C     0.61543   0.85083   0.54065   0.00000  Uiso   1.00
C795   C     0.60718   0.86304   0.45774   0.00000  Uiso   1.00
C796   C     0.93941   0.80797   0.50042   0.00000  Uiso   1.00
C797   C     0.89282   0.63696   0.54226   0.00000  Uiso   1.00
C798   C     0.61544   0.64918   0.54065   0.00000  Uiso   1.00
C799   C     0.88456   0.85082   0.45935   0.00000  Uiso   1.00
C800   C     0.89281   0.86303   0.54226   0.00000  Uiso   1.00
C801   C     0.60719   0.63697   0.45774   0.00000  Uiso   1.00
C802   C     0.63456   0.89918   0.45935   0.00000  Uiso   1.00
C803   C     0.86544   0.60082   0.54065   0.00000  Uiso   1.00
C804   C     0.85719   0.61303   0.45774   0.00000  Uiso   1.00
C805   C     0.64281   0.88697   0.54226   0.00000  Uiso   1.00
C806   C     0.86543   0.89916   0.54065   0.00000  Uiso   1.00
C807   C     0.93941   0.69202   0.50042   0.00000  Uiso   1.00
C808   C     0.63457   0.60083   0.45935   0.00000  Uiso   1.00
C809   C     0.64282   0.61304   0.54226   0.00000  Uiso   1.00
C810   C     0.85718   0.88696   0.45774   0.00000  Uiso   1.00
C811   C     0.59538   0.84024   0.49897   0.00000  Uiso   1.00
C812   C     0.90462   0.65976   0.50103   0.00000  Uiso   1.00
C813   C     0.90461   0.84023   0.50103   0.00000  Uiso   1.00
C814   C     0.59539   0.65977   0.49897   0.00000  Uiso   1.00
C815   C     0.84539   0.59023   0.49897   0.00000  Uiso   1.00
C816   C     0.65461   0.90977   0.50103   0.00000  Uiso   1.00
C817   C     0.65462   0.59024   0.50103   0.00000  Uiso   1.00
C818   C     0.56059   0.80798   0.49958   0.00000  Uiso   1.00
C819   C     0.84538   0.90976   0.49897   0.00000  Uiso   1.00
C820   C     0.88949   0.67681   0.41814   0.00000  Uiso   1.00
C821   C     0.61051   0.82319   0.58186   0.00000  Uiso   1.00
C822   C     0.59416   0.84841   0.41245   0.00000  Uiso   1.00
C823   C     0.90584   0.65159   0.58755   0.00000  Uiso   1.00
C824   C     0.61052   0.67683   0.58186   0.00000  Uiso   1.00
C825   C     0.88948   0.82317   0.41814   0.00000  Uiso   1.00
C826   C     0.90583   0.84839   0.58755   0.00000  Uiso   1.00
C827   C     0.59417   0.65161   0.41245   0.00000  Uiso   1.00
C828   C     0.63948   0.92683   0.41814   0.00000  Uiso   1.00
C829   C     0.81059   0.94202   0.49958   0.00000  Uiso   1.00
C830   C     0.86052   0.57317   0.58186   0.00000  Uiso   1.00
C831   C     0.84418   0.59839   0.41245   0.00000  Uiso   1.00
C832   C     0.65582   0.90161   0.58755   0.00000  Uiso   1.00
C833   C     0.86051   0.92681   0.58186   0.00000  Uiso   1.00
C834   C     0.63949   0.57319   0.41814   0.00000  Uiso   1.00
C835   C     0.65585   0.59841   0.58755   0.00000  Uiso   1.00
C836   C     0.84415   0.90159   0.41245   0.00000  Uiso   1.00
C837   C     0.68941   0.55798   0.50042   0.00000  Uiso   1.00
C838   C     0.68941   0.94203   0.50042   0.00000  Uiso   1.00
C839   C     0.81059   0.55797   0.49958   0.00000  Uiso   1.00
C840   C     0.99946   0.71065   0.35772   0.00000  Uiso   1.00
Cu841  Cu    0.50000   0.75000   0.54689   0.00000  Uiso   1.00
Cu842  Cu    0.50000   0.75000   0.45311   0.00000  Uiso   1.00
Cu843  Cu    0.75000   0.50000   0.54689   0.00000  Uiso   1.00
Cu844  Cu    0.75000   0.50000   0.45311   0.00000  Uiso   1.00
H845   H     0.50111   0.67196   0.41142   0.00000  Uiso   1.00
H846   H     0.99889   0.82804   0.58858   0.00000  Uiso   1.00
H847   H     0.50111   0.82804   0.41142   0.00000  Uiso   1.00
H848   H     0.99888   0.67196   0.58858   0.00000  Uiso   1.00
H849   H     0.75112   0.92196   0.41141   0.00000  Uiso   1.00
H850   H     0.74888   0.57804   0.58859   0.00000  Uiso   1.00
H851   H     0.75111   0.57804   0.41142   0.00000  Uiso   1.00
H852   H     0.74889   0.92196   0.58858   0.00000  Uiso   1.00
N853   N     0.50000   0.75000   0.61736   0.00000  Uiso   1.00
N854   N     0.89312   0.80119   0.38536   0.00000  Uiso   1.00
N855   N     0.91525   0.83701   0.62408   0.00000  Uiso   1.00
N856   N     0.58475   0.66299   0.37592   0.00000  Uiso   1.00
N857   N     0.64312   0.94881   0.38536   0.00000  Uiso   1.00
N858   N     0.85688   0.55119   0.61464   0.00000  Uiso   1.00
N859   N     0.83475   0.58700   0.37592   0.00000  Uiso   1.00
N860   N     0.66524   0.91300   0.62408   0.00000  Uiso   1.00
N861   N     0.85687   0.94879   0.61465   0.00000  Uiso   1.00
N862   N     0.64313   0.55120   0.38535   0.00000  Uiso   1.00
N863   N     0.66528   0.58704   0.62407   0.00000  Uiso   1.00
N864   N     0.50000   0.75000   0.38264   0.00000  Uiso   1.00
N865   N     0.83472   0.91296   0.37593   0.00000  Uiso   1.00
N866   N     0.75000   0.50000   0.61736   0.00000  Uiso   1.00
N867   N     0.75000   0.50000   0.38264   0.00000  Uiso   1.00
N868   N     0.89313   0.69880   0.38535   0.00000  Uiso   1.00
N869   N     0.60687   0.80120   0.61465   0.00000  Uiso   1.00
N870   N     0.58473   0.83703   0.37593   0.00000  Uiso   1.00
N871   N     0.91527   0.66297   0.62407   0.00000  Uiso   1.00
N872   N     0.60688   0.69881   0.61464   0.00000  Uiso   1.00
O873   O     0.54508   0.70491   0.53958   0.00000  Uiso   1.00
O874   O     0.70491   0.54509   0.46042   0.00000  Uiso   1.00
O875   O     0.70491   0.54509   0.53958   0.00000  Uiso   1.00
O876   O     0.79508   0.95491   0.46042   0.00000  Uiso   1.00
O877   O     0.70491   0.95491   0.46042   0.00000  Uiso   1.00
O878   O     0.79508   0.54509   0.53958   0.00000  Uiso   1.00
O879   O     0.79508   0.54509   0.46042   0.00000  Uiso   1.00
O880   O     0.70491   0.95491   0.53958   0.00000  Uiso   1.00
O881   O     0.99650   0.66920   0.37833   0.00000  Uiso   1.00
O882   O     0.50350   0.83080   0.62167   0.00000  Uiso   1.00
O883   O     0.99648   0.83080   0.37833   0.00000  Uiso   1.00
O884   O     0.95491   0.79509   0.46042   0.00000  Uiso   1.00
O885   O     0.50352   0.66920   0.62167   0.00000  Uiso   1.00
O886   O     0.74647   0.91920   0.37833   0.00000  Uiso   1.00
O887   O     0.75353   0.58080   0.62167   0.00000  Uiso   1.00
O888   O     0.74651   0.58080   0.37833   0.00000  Uiso   1.00
O889   O     0.75349   0.91920   0.62167   0.00000  Uiso   1.00
O890   O     0.95491   0.79509   0.53958   0.00000  Uiso   1.00
O891   O     0.54508   0.70491   0.46042   0.00000  Uiso   1.00
O892   O     0.95491   0.70491   0.46042   0.00000  Uiso   1.00
O893   O     0.54508   0.79509   0.53958   0.00000  Uiso   1.00
O894   O     0.54508   0.79509   0.46042   0.00000  Uiso   1.00
O895   O     0.95491   0.70491   0.53958   0.00000  Uiso   1.00
O896   O     0.79508   0.95491   0.53958   0.00000  Uiso   1.00
C897   C     0.06059   0.19203   0.83292   0.00000  Uiso   1.00
C898   C     0.00054   0.28935   0.97561   0.00000  Uiso   1.00
C899   C     0.49945   0.28935   0.69105   0.00000  Uiso   1.00
C900   C     0.00055   0.21065   0.97561   0.00000  Uiso   1.00
C901   C     0.24944   0.46065   0.69105   0.00000  Uiso   1.00
C902   C     0.25056   0.03935   0.97561   0.00000  Uiso   1.00
C903   C     0.24946   0.03935   0.69105   0.00000  Uiso   1.00
C904   C     0.25054   0.46065   0.97561   0.00000  Uiso   1.00
C905   C     0.38457   0.14916   0.79268   0.00000  Uiso   1.00
C906   C     0.11543   0.35083   0.87399   0.00000  Uiso   1.00
C907   C     0.10718   0.36304   0.79107   0.00000  Uiso   1.00
C908   C     0.43941   0.30797   0.83375   0.00000  Uiso   1.00
C909   C     0.39282   0.13696   0.87559   0.00000  Uiso   1.00
C910   C     0.11544   0.14918   0.87398   0.00000  Uiso   1.00
C911   C     0.38456   0.35082   0.79268   0.00000  Uiso   1.00
C912   C     0.39281   0.36303   0.87559   0.00000  Uiso   1.00
C913   C     0.10719   0.13697   0.79107   0.00000  Uiso   1.00
C914   C     0.13456   0.39918   0.79268   0.00000  Uiso   1.00
C915   C     0.36544   0.10082   0.87398   0.00000  Uiso   1.00
C916   C     0.35719   0.11303   0.79107   0.00000  Uiso   1.00
C917   C     0.14281   0.38697   0.87559   0.00000  Uiso   1.00
C918   C     0.36543   0.39916   0.87399   0.00000  Uiso   1.00
C919   C     0.43941   0.19202   0.83375   0.00000  Uiso   1.00
C920   C     0.13457   0.10083   0.79268   0.00000  Uiso   1.00
C921   C     0.14282   0.11304   0.87559   0.00000  Uiso   1.00
C922   C     0.35718   0.38696   0.79108   0.00000  Uiso   1.00
C923   C     0.09538   0.34024   0.83231   0.00000  Uiso   1.00
C924   C     0.40462   0.15976   0.83436   0.00000  Uiso   1.00
C925   C     0.40461   0.34023   0.83436   0.00000  Uiso   1.00
C926   C     0.09539   0.15977   0.83231   0.00000  Uiso   1.00
C927   C     0.34539   0.09023   0.83231   0.00000  Uiso   1.00
C928   C     0.15461   0.40977   0.83436   0.00000  Uiso   1.00
C929   C     0.15462   0.09024   0.83436   0.00000  Uiso   1.00
C930   C     0.06059   0.30798   0.83292   0.00000  Uiso   1.00
C931   C     0.34538   0.40976   0.83231   0.00000  Uiso   1.00
C932   C     0.38949   0.17681   0.75147   0.00000  Uiso   1.00
C933   C     0.11051   0.32319   0.91519   0.00000  Uiso   1.00
C934   C     0.09416   0.34841   0.74578   0.00000  Uiso   1.00
C935   C     0.40584   0.15159   0.92089   0.00000  Uiso   1.00
C936   C     0.11052   0.17683   0.91519   0.00000  Uiso   1.00
C937   C     0.38948   0.32317   0.75148   0.00000  Uiso   1.00
C938   C     0.40583   0.34839   0.92089   0.00000  Uiso   1.00
C939   C     0.09417   0.15161   0.74578   0.00000  Uiso   1.00
C940   C     0.13948   0.42683   0.75148   0.00000  Uiso   1.00
C941   C     0.31059   0.44202   0.83292   0.00000  Uiso   1.00
C942   C     0.36052   0.07317   0.91519   0.00000  Uiso   1.00
C943   C     0.34418   0.09839   0.74578   0.00000  Uiso   1.00
C944   C     0.15582   0.40161   0.92089   0.00000  Uiso   1.00
C945   C     0.36051   0.42681   0.91519   0.00000  Uiso   1.00
C946   C     0.13949   0.07319   0.75147   0.00000  Uiso   1.00
C947   C     0.15585   0.09841   0.92089   0.00000  Uiso   1.00
C948   C     0.34415   0.40159   0.74578   0.00000  Uiso   1.00
C949   C     0.18941   0.05798   0.83375   0.00000  Uiso   1.00
C950   C     0.18941   0.44203   0.83375   0.00000  Uiso   1.00
C951   C     0.31059   0.05797   0.83292   0.00000  Uiso   1.00
C952   C     0.49946   0.21065   0.69105   0.00000  Uiso   1.00
Cu953  Cu    0.00000   0.25000   0.88022   0.00000  Uiso   1.00
Cu954  Cu    0.00000   0.25000   0.78645   0.00000  Uiso   1.00
Cu955  Cu    0.25000  -0.00000   0.88022   0.00000  Uiso   1.00
Cu956  Cu    0.25000  -0.00000   0.78645   0.00000  Uiso   1.00
H957   H     0.00111   0.17196   0.74475   0.00000  Uiso   1.00
H958   H     0.49889   0.32804   0.92192   0.00000  Uiso   1.00
H959   H     0.00111   0.32804   0.74475   0.00000  Uiso   1.00
H960   H     0.49888   0.17196   0.92192   0.00000  Uiso   1.00
H961   H     0.25112   0.42196   0.74475   0.00000  Uiso   1.00
H962   H     0.24888   0.07804   0.92192   0.00000  Uiso   1.00
H963   H     0.25111   0.07804   0.74475   0.00000  Uiso   1.00
H964   H     0.24889   0.42196   0.92191   0.00000  Uiso   1.00
N965   N     0.00000   0.25000   0.95069   0.00000  Uiso   1.00
N966   N     0.39312   0.30119   0.71869   0.00000  Uiso   1.00
N967   N     0.41525   0.33701   0.95741   0.00000  Uiso   1.00
N968   N     0.08475   0.16299   0.70926   0.00000  Uiso   1.00
N969   N     0.14312   0.44881   0.71869   0.00000  Uiso   1.00
N970   N     0.35688   0.05119   0.94798   0.00000  Uiso   1.00
N971   N     0.33475   0.08700   0.70926   0.00000  Uiso   1.00
N972   N     0.16524   0.41300   0.95741   0.00000  Uiso   1.00
N973   N     0.35687   0.44879   0.94798   0.00000  Uiso   1.00
N974   N     0.14313   0.05120   0.71868   0.00000  Uiso   1.00
N975   N     0.16528   0.08704   0.95741   0.00000  Uiso   1.00
N976   N     0.00000   0.25000   0.71598   0.00000  Uiso   1.00
N977   N     0.33472   0.41296   0.70926   0.00000  Uiso   1.00
N978   N     0.25000  -0.00000   0.95069   0.00000  Uiso   1.00
N979   N     0.25000  -0.00000   0.71598   0.00000  Uiso   1.00
N980   N     0.39313   0.19880   0.71869   0.00000  Uiso   1.00
N981   N     0.10687   0.30120   0.94798   0.00000  Uiso   1.00
N982   N     0.08473   0.33703   0.70926   0.00000  Uiso   1.00
N983   N     0.41527   0.16297   0.95741   0.00000  Uiso   1.00
N984   N     0.10688   0.19881   0.94798   0.00000  Uiso   1.00
O985   O     0.04508   0.20491   0.87291   0.00000  Uiso   1.00
O986   O     0.20491   0.04509   0.79375   0.00000  Uiso   1.00
O987   O     0.20491   0.04509   0.87291   0.00000  Uiso   1.00
O988   O     0.29508   0.45491   0.79375   0.00000  Uiso   1.00
O989   O     0.20491   0.45491   0.79375   0.00000  Uiso   1.00
O990   O     0.29508   0.04509   0.87291   0.00000  Uiso   1.00
O991   O     0.29508   0.04509   0.79375   0.00000  Uiso   1.00
O992   O     0.20491   0.45491   0.87291   0.00000  Uiso   1.00
O993   O     0.49650   0.16920   0.71166   0.00000  Uiso   1.00
O994   O     0.00350   0.33080   0.95500   0.00000  Uiso   1.00
O995   O     0.49648   0.33080   0.71166   0.00000  Uiso   1.00
O996   O     0.45491   0.29509   0.79375   0.00000  Uiso   1.00
O997   O     0.00352   0.16920   0.95500   0.00000  Uiso   1.00
O998   O     0.24647   0.41920   0.71167   0.00000  Uiso   1.00
O999   O     0.25353   0.08080   0.95500   0.00000  Uiso   1.00
O1000  O     0.24651   0.08080   0.71166   0.00000  Uiso   1.00
O1001  O     0.25349   0.41920   0.95501   0.00000  Uiso   1.00
O1002  O     0.45491   0.29509   0.87291   0.00000  Uiso   1.00
O1003  O     0.04508   0.20491   0.79375   0.00000  Uiso   1.00
O1004  O     0.45491   0.20491   0.79375   0.00000  Uiso   1.00
O1005  O     0.04508   0.29509   0.87291   0.00000  Uiso   1.00
O1006  O     0.04508   0.29509   0.79375   0.00000  Uiso   1.00
O1007  O     0.45491   0.20491   0.87291   0.00000  Uiso   1.00
O1008  O     0.29508   0.45491   0.87291   0.00000  Uiso   1.00
C1009  C     0.56059   0.19203   0.83292   0.00000  Uiso   1.00
C1010  C     0.50054   0.28935   0.97561   0.00000  Uiso   1.00
C1011  C     0.99945   0.28935   0.69105   0.00000  Uiso   1.00
C1012  C     0.50055   0.21065   0.97561   0.00000  Uiso   1.00
C1013  C     0.74944   0.46065   0.69105   0.00000  Uiso   1.00
C1014  C     0.75056   0.03935   0.97561   0.00000  Uiso   1.00
C1015  C     0.74946   0.03935   0.69105   0.00000  Uiso   1.00
C1016  C     0.75054   0.46065   0.97561   0.00000  Uiso   1.00
C1017  C     0.88457   0.14916   0.79268   0.00000  Uiso   1.00
C1018  C     0.61543   0.35083   0.87399   0.00000  Uiso   1.00
C1019  C     0.60718   0.36304   0.79107   0.00000  Uiso   1.00
C1020  C     0.93941   0.30797   0.83375   0.00000  Uiso   1.00
C1021  C     0.89282   0.13696   0.87559   0.00000  Uiso   1.00
C1022  C     0.61544   0.14918   0.87398   0.00000  Uiso   1.00
C1023  C     0.88456   0.35082   0.79268   0.00000  Uiso   1.00
C1024  C     0.89281   0.36303   0.87559   0.00000  Uiso   1.00
C1025  C     0.60719   0.13697   0.79107   0.00000  Uiso   1.00
C1026  C     0.63456   0.39918   0.79268   0.00000  Uiso   1.00
C1027  C     0.86544   0.10082   0.87398   0.00000  Uiso   1.00
C1028  C     0.85719   0.11303   0.79107   0.00000  Uiso   1.00
C1029  C     0.64281   0.38697   0.87559   0.00000  Uiso   1.00
C1030  C     0.86543   0.39916   0.87399   0.00000  Uiso   1.00
C1031  C     0.93941   0.19202   0.83375   0.00000  Uiso   1.00
C1032  C     0.63457   0.10083   0.79268   0.00000  Uiso   1.00
C1033  C     0.64282   0.11304   0.87559   0.00000  Uiso   1.00
C1034  C     0.85718   0.38696   0.79108   0.00000  Uiso   1.00
C1035  C     0.59538   0.34024   0.83231   0.00000  Uiso   1.00
C1036  C     0.90462   0.15976   0.83436   0.00000  Uiso   1.00
C1037  C     0.90461   0.34023   0.83436   0.00000  Uiso   1.00
C1038  C     0.59539   0.15977   0.83231   0.00000  Uiso   1.00
C1039  C     0.84539   0.09023   0.83231   0.00000  Uiso   1.00
C1040  C     0.65461   0.40977   0.83436   0.00000  Uiso   1.00
C1041  C     0.65462   0.09024   0.83436   0.00000  Uiso   1.00
C1042  C     0.56059   0.30798   0.83292   0.00000  Uiso   1.00
C1043  C     0.84538   0.40976   0.83231   0.00000  Uiso   1.00
C1044  C     0.88949   0.17681   0.75147   0.00000  Uiso   1.00
C1045  C     0.61051   0.32319   0.91519   0.00000  Uiso   1.00
C1046  C     0.59416   0.34841   0.74578   0.00000  Uiso   1.00
C1047  C     0.90584   0.15159   0.92089   0.00000  Uiso   1.00
C1048  C     0.61052   0.17683   0.91519   0.00000  Uiso   1.00
C1049  C     0.88948   0.32317   0.75148   0.00000  Uiso   1.00
C1050  C     0.90583   0.34839   0.92089   0.00000  Uiso   1.00
C1051  C     0.59417   0.15161   0.74578   0.00000  Uiso   1.00
C1052  C     0.63948   0.42683   0.75148   0.00000  Uiso   1.00
C1053  C     0.81059   0.44202   0.83292   0.00000  Uiso   1.00
C1054  C     0.86052   0.07317   0.91519   0.00000  Uiso   1.00
C1055  C     0.84418   0.09839   0.74578   0.00000  Uiso   1.00
C1056  C     0.65582   0.40161   0.92089   0.00000  Uiso   1.00
C1057  C     0.86051   0.42681   0.91519   0.00000  Uiso   1.00
C1058  C     0.63949   0.07319   0.75147   0.00000  Uiso   1.00
C1059  C     0.65585   0.09841   0.92089   0.00000  Uiso   1.00
C1060  C     0.84415   0.40159   0.74578   0.00000  Uiso   1.00
C1061  C     0.68941   0.05798   0.83375   0.00000  Uiso   1.00
C1062  C     0.68941   0.44203   0.83375   0.00000  Uiso   1.00
C1063  C     0.81059   0.05797   0.83292   0.00000  Uiso   1.00
C1064  C     0.99946   0.21065   0.69105   0.00000  Uiso   1.00
Cu1065 Cu    0.50000   0.25000   0.88022   0.00000  Uiso   1.00
Cu1066 Cu    0.50000   0.25000   0.78645   0.00000  Uiso   1.00
Cu1067 Cu    0.75000  -0.00000   0.88022   0.00000  Uiso   1.00
Cu1068 Cu    0.75000  -0.00000   0.78645   0.00000  Uiso   1.00
H1069  H     0.50111   0.17196   0.74475   0.00000  Uiso   1.00
H1070  H     0.99889   0.32804   0.92192   0.00000  Uiso   1.00
H1071  H     0.50111   0.32804   0.74475   0.00000  Uiso   1.00
H1072  H     0.99888   0.17196   0.92192   0.00000  Uiso   1.00
H1073  H     0.75112   0.42196   0.74475   0.00000  Uiso   1.00
H1074  H     0.74888   0.07804   0.92192   0.00000  Uiso   1.00
H1075  H     0.75111   0.07804   0.74475   0.00000  Uiso   1.00
H1076  H     0.74889   0.42196   0.92191   0.00000  Uiso   1.00
N1077  N     0.50000   0.25000   0.95069   0.00000  Uiso   1.00
N1078  N     0.89312   0.30119   0.71869   0.00000  Uiso   1.00
N1079  N     0.91525   0.33701   0.95741   0.00000  Uiso   1.00
N1080  N     0.58475   0.16299   0.70926   0.00000  Uiso   1.00
N1081  N     0.64312   0.44881   0.71869   0.00000  Uiso   1.00
N1082  N     0.85688   0.05119   0.94798   0.00000  Uiso   1.00
N1083  N     0.83475   0.08700   0.70926   0.00000  Uiso   1.00
N1084  N     0.66524   0.41300   0.95741   0.00000  Uiso   1.00
N1085  N     0.85687   0.44879   0.94798   0.00000  Uiso   1.00
N1086  N     0.64313   0.05120   0.71868   0.00000  Uiso   1.00
N1087  N     0.66528   0.08704   0.95741   0.00000  Uiso   1.00
N1088  N     0.50000   0.25000   0.71598   0.00000  Uiso   1.00
N1089  N     0.83472   0.41296   0.70926   0.00000  Uiso   1.00
N1090  N     0.75000  -0.00000   0.95069   0.00000  Uiso   1.00
N1091  N     0.75000  -0.00000   0.71598   0.00000  Uiso   1.00
N1092  N     0.89313   0.19880   0.71869   0.00000  Uiso   1.00
N1093  N     0.60687   0.30120   0.94798   0.00000  Uiso   1.00
N1094  N     0.58473   0.33703   0.70926   0.00000  Uiso   1.00
N1095  N     0.91527   0.16297   0.95741   0.00000  Uiso   1.00
N1096  N     0.60688   0.19881   0.94798   0.00000  Uiso   1.00
O1097  O     0.54508   0.20491   0.87291   0.00000  Uiso   1.00
O1098  O     0.70491   0.04509   0.79375   0.00000  Uiso   1.00
O1099  O     0.70491   0.04509   0.87291   0.00000  Uiso   1.00
O1100  O     0.79508   0.45491   0.79375   0.00000  Uiso   1.00
O1101  O     0.70491   0.45491   0.79375   0.00000  Uiso   1.00
O1102  O     0.79508   0.04509   0.87291   0.00000  Uiso   1.00
O1103  O     0.79508   0.04509   0.79375   0.00000  Uiso   1.00
O1104  O     0.70491   0.45491   0.87291   0.00000  Uiso   1.00
O1105  O     0.99650   0.16920   0.71166   0.00000  Uiso   1.00
O1106  O     0.50350   0.33080   0.95500   0.00000  Uiso   1.00
O1107  O     0.99648   0.33080   0.71166   0.00000  Uiso   1.00
O1108  O     0.95491   0.29509   0.79375   0.00000  Uiso   1.00
O1109  O     0.50352   0.16920   0.95500   0.00000  Uiso   1.00
O1110  O     0.74647   0.41920   0.71167   0.00000  Uiso   1.00
O1111  O     0.75353   0.08080   0.95500   0.00000  Uiso   1.00
O1112  O     0.74651   0.08080   0.71166   0.00000  Uiso   1.00
O1113  O     0.75349   0.41920   0.95501   0.00000  Uiso   1.00
O1114  O     0.95491   0.29509   0.87291   0.00000  Uiso   1.00
O1115  O     0.54508   0.20491   0.79375   0.00000  Uiso   1.00
O1116  O     0.95491   0.20491   0.79375   0.00000  Uiso   1.00
O1117  O     0.54508   0.29509   0.87291   0.00000  Uiso   1.00
O1118  O     0.54508   0.29509   0.79375   0.00000  Uiso   1.00
O1119  O     0.95491   0.20491   0.87291   0.00000  Uiso   1.00
O1120  O     0.79508   0.45491   0.87291   0.00000  Uiso   1.00
C1121  C     0.06059   0.69203   0.83292   0.00000  Uiso   1.00
C1122  C     0.00054   0.78935   0.97561   0.00000  Uiso   1.00
C1123  C     0.49945   0.78935   0.69105   0.00000  Uiso   1.00
C1124  C     0.00055   0.71065   0.97561   0.00000  Uiso   1.00
C1125  C     0.24944   0.96065   0.69105   0.00000  Uiso   1.00
C1126  C     0.25056   0.53935   0.97561   0.00000  Uiso   1.00
C1127  C     0.24946   0.53935   0.69105   0.00000  Uiso   1.00
C1128  C     0.25054   0.96065   0.97561   0.00000  Uiso   1.00
C1129  C     0.38457   0.64916   0.79268   0.00000  Uiso   1.00
C1130  C     0.11543   0.85083   0.87399   0.00000  Uiso   1.00
C1131  C     0.10718   0.86304   0.79107   0.00000  Uiso   1.00
C1132  C     0.43941   0.80797   0.83375   0.00000  Uiso   1.00
C1133  C     0.39282   0.63696   0.87559   0.00000  Uiso   1.00
C1134  C     0.11544   0.64918   0.87398   0.00000  Uiso   1.00
C1135  C     0.38456   0.85082   0.79268   0.00000  Uiso   1.00
C1136  C     0.39281   0.86303   0.87559   0.00000  Uiso   1.00
C1137  C     0.10719   0.63697   0.79107   0.00000  Uiso   1.00
C1138  C     0.13456   0.89918   0.79268   0.00000  Uiso   1.00
C1139  C     0.36544   0.60082   0.87398   0.00000  Uiso   1.00
C1140  C     0.35719   0.61303   0.79107   0.00000  Uiso   1.00
C1141  C     0.14281   0.88697   0.87559   0.00000  Uiso   1.00
C1142  C     0.36543   0.89916   0.87399   0.00000  Uiso   1.00
C1143  C     0.43941   0.69202   0.83375   0.00000  Uiso   1.00
C1144  C     0.13457   0.60083   0.79268   0.00000  Uiso   1.00
C1145  C     0.14282   0.61304   0.87559   0.00000  Uiso   1.00
C1146  C     0.35718   0.88696   0.79108   0.00000  Uiso   1.00
C1147  C     0.09538   0.84024   0.83231   0.00000  Uiso   1.00
C1148  C     0.40462   0.65976   0.83436   0.00000  Uiso   1.00
C1149  C     0.40461   0.84023   0.83436   0.00000  Uiso   1.00
C1150  C     0.09539   0.65977   0.83231   0.00000  Uiso   1.00
C1151  C     0.34539   0.59023   0.83231   0.00000  Uiso   1.00
C1152  C     0.15461   0.90977   0.83436   0.00000  Uiso   1.00
C1153  C     0.15462   0.59024   0.83436   0.00000  Uiso   1.00
C1154  C     0.06059   0.80798   0.83292   0.00000  Uiso   1.00
C1155  C     0.34538   0.90976   0.83231   0.00000  Uiso   1.00
C1156  C     0.38949   0.67681   0.75147   0.00000  Uiso   1.00
C1157  C     0.11051   0.82319   0.91519   0.00000  Uiso   1.00
C1158  C     0.09416   0.84841   0.74578   0.00000  Uiso   1.00
C1159  C     0.40584   0.65159   0.92089   0.00000  Uiso   1.00
C1160  C     0.11052   0.67683   0.91519   0.00000  Uiso   1.00
C1161  C     0.38948   0.82317   0.75148   0.00000  Uiso   1.00
C1162  C     0.40583   0.84839   0.92089   0.00000  Uiso   1.00
C1163  C     0.09417   0.65161   0.74578   0.00000  Uiso   1.00
C1164  C     0.13948   0.92683   0.75148   0.00000  Uiso   1.00
C1165  C     0.31059   0.94202   0.83292   0.00000  Uiso   1.00
C1166  C     0.36052   0.57317   0.91519   0.00000  Uiso   1.00
C1167  C     0.34418   0.59839   0.74578   0.00000  Uiso   1.00
C1168  C     0.15582   0.90161   0.92089   0.00000  Uiso   1.00
C1169  C     0.36051   0.92681   0.91519   0.00000  Uiso   1.00
C1170  C     0.13949   0.57319   0.75147   0.00000  Uiso   1.00
C1171  C     0.15585   0.59841   0.92089   0.00000  Uiso   1.00
C1172  C     0.34415   0.90159   0.74578   0.00000  Uiso   1.00
C1173  C     0.18941   0.55798   0.83375   0.00000  Uiso   1.00
C1174  C     0.18941   0.94203   0.83375   0.00000  Uiso   1.00
C1175  C     0.31059   0.55797   0.83292   0.00000  Uiso   1.00
C1176  C     0.49946   0.71065   0.69105   0.00000  Uiso   1.00
Cu1177 Cu    0.00000   0.75000   0.88022   0.00000  Uiso   1.00
Cu1178 Cu    0.00000   0.75000   0.78645   0.00000  Uiso   1.00
Cu1179 Cu    0.25000   0.50000   0.88022   0.00000  Uiso   1.00
Cu1180 Cu    0.25000   0.50000   0.78645   0.00000  Uiso   1.00
H1181  H     0.00111   0.67196   0.74475   0.00000  Uiso   1.00
H1182  H     0.49889   0.82804   0.92192   0.00000  Uiso   1.00
H1183  H     0.00111   0.82804   0.74475   0.00000  Uiso   1.00
H1184  H     0.49888   0.67196   0.92192   0.00000  Uiso   1.00
H1185  H     0.25112   0.92196   0.74475   0.00000  Uiso   1.00
H1186  H     0.24888   0.57804   0.92192   0.00000  Uiso   1.00
H1187  H     0.25111   0.57804   0.74475   0.00000  Uiso   1.00
H1188  H     0.24889   0.92196   0.92191   0.00000  Uiso   1.00
N1189  N     0.00000   0.75000   0.95069   0.00000  Uiso   1.00
N1190  N     0.39312   0.80119   0.71869   0.00000  Uiso   1.00
N1191  N     0.41525   0.83701   0.95741   0.00000  Uiso   1.00
N1192  N     0.08475   0.66299   0.70926   0.00000  Uiso   1.00
N1193  N     0.14312   0.94881   0.71869   0.00000  Uiso   1.00
N1194  N     0.35688   0.55119   0.94798   0.00000  Uiso   1.00
N1195  N     0.33475   0.58700   0.70926   0.00000  Uiso   1.00
N1196  N     0.16524   0.91300   0.95741   0.00000  Uiso   1.00
N1197  N     0.35687   0.94879   0.94798   0.00000  Uiso   1.00
N1198  N     0.14313   0.55120   0.71868   0.00000  Uiso   1.00
N1199  N     0.16528   0.58704   0.95741   0.00000  Uiso   1.00
N1200  N     0.00000   0.75000   0.71598   0.00000  Uiso   1.00
N1201  N     0.33472   0.91296   0.70926   0.00000  Uiso   1.00
N1202  N     0.25000   0.50000   0.95069   0.00000  Uiso   1.00
N1203  N     0.25000   0.50000   0.71598   0.00000  Uiso   1.00
N1204  N     0.39313   0.69880   0.71869   0.00000  Uiso   1.00
N1205  N     0.10687   0.80120   0.94798   0.00000  Uiso   1.00
N1206  N     0.08473   0.83703   0.70926   0.00000  Uiso   1.00
N1207  N     0.41527   0.66297   0.95741   0.00000  Uiso   1.00
N1208  N     0.10688   0.69881   0.94798   0.00000  Uiso   1.00
O1209  O     0.04508   0.70491   0.87291   0.00000  Uiso   1.00
O1210  O     0.20491   0.54509   0.79375   0.00000  Uiso   1.00
O1211  O     0.20491   0.54509   0.87291   0.00000  Uiso   1.00
O1212  O     0.29508   0.95491   0.79375   0.00000  Uiso   1.00
O1213  O     0.20491   0.95491   0.79375   0.00000  Uiso   1.00
O1214  O     0.29508   0.54509   0.87291   0.00000  Uiso   1.00
O1215  O     0.29508   0.54509   0.79375   0.00000  Uiso   1.00
O1216  O     0.20491   0.95491   0.87291   0.00000  Uiso   1.00
O1217  O     0.49650   0.66920   0.71166   0.00000  Uiso   1.00
O1218  O     0.00350   0.83080   0.95500   0.00000  Uiso   1.00
O1219  O     0.49648   0.83080   0.71166   0.00000  Uiso   1.00
O1220  O     0.45491   0.79509   0.79375   0.00000  Uiso   1.00
O1221  O     0.00352   0.66920   0.95500   0.00000  Uiso   1.00
O1222  O     0.24647   0.91920   0.71167   0.00000  Uiso   1.00
O1223  O     0.25353   0.58080   0.95500   0.00000  Uiso   1.00
O1224  O     0.24651   0.58080   0.71166   0.00000  Uiso   1.00
O1225  O     0.25349   0.91920   0.95501   0.00000  Uiso   1.00
O1226  O     0.45491   0.79509   0.87291   0.00000  Uiso   1.00
O1227  O     0.04508   0.70491   0.79375   0.00000  Uiso   1.00
O1228  O     0.45491   0.70491   0.79375   0.00000  Uiso   1.00
O1229  O     0.04508   0.79509   0.87291   0.00000  Uiso   1.00
O1230  O     0.04508   0.79509   0.79375   0.00000  Uiso   1.00
O1231  O     0.45491   0.70491   0.87291   0.00000  Uiso   1.00
O1232  O     0.29508   0.95491   0.87291   0.00000  Uiso   1.00
C1233  C     0.56059   0.69203   0.83292   0.00000  Uiso   1.00
C1234  C     0.50054   0.78935   0.97561   0.00000  Uiso   1.00
C1235  C     0.99945   0.78935   0.69105   0.00000  Uiso   1.00
C1236  C     0.50055   0.71065   0.97561   0.00000  Uiso   1.00
C1237  C     0.74944   0.96065   0.69105   0.00000  Uiso   1.00
C1238  C     0.75056   0.53935   0.97561   0.00000  Uiso   1.00
C1239  C     0.74946   0.53935   0.69105   0.00000  Uiso   1.00
C1240  C     0.75054   0.96065   0.97561   0.00000  Uiso   1.00
C1241  C     0.88457   0.64916   0.79268   0.00000  Uiso   1.00
C1242  C     0.61543   0.85083   0.87399   0.00000  Uiso   1.00
C1243  C     0.60718   0.86304   0.79107   0.00000  Uiso   1.00
C1244  C     0.93941   0.80797   0.83375   0.00000  Uiso   1.00
C1245  C     0.89282   0.63696   0.87559   0.00000  Uiso   1.00
C1246  C     0.61544   0.64918   0.87398   0.00000  Uiso   1.00
C1247  C     0.88456   0.85082   0.79268   0.00000  Uiso   1.00
C1248  C     0.89281   0.86303   0.87559   0.00000  Uiso   1.00
C1249  C     0.60719   0.63697   0.79107   0.00000  Uiso   1.00
C1250  C     0.63456   0.89918   0.79268   0.00000  Uiso   1.00
C1251  C     0.86544   0.60082   0.87398   0.00000  Uiso   1.00
C1252  C     0.85719   0.61303   0.79107   0.00000  Uiso   1.00
C1253  C     0.64281   0.88697   0.87559   0.00000  Uiso   1.00
C1254  C     0.86543   0.89916   0.87399   0.00000  Uiso   1.00
C1255  C     0.93941   0.69202   0.83375   0.00000  Uiso   1.00
C1256  C     0.63457   0.60083   0.79268   0.00000  Uiso   1.00
C1257  C     0.64282   0.61304   0.87559   0.00000  Uiso   1.00
C1258  C     0.85718   0.88696   0.79108   0.00000  Uiso   1.00
C1259  C     0.59538   0.84024   0.83231   0.00000  Uiso   1.00
C1260  C     0.90462   0.65976   0.83436   0.00000  Uiso   1.00
C1261  C     0.90461   0.84023   0.83436   0.00000  Uiso   1.00
C1262  C     0.59539   0.65977   0.83231   0.00000  Uiso   1.00
C1263  C     0.84539   0.59023   0.83231   0.00000  Uiso   1.00
C1264  C     0.65461   0.90977   0.83436   0.00000  Uiso   1.00
C1265  C     0.65462   0.59024   0.83436   0.00000  Uiso   1.00
C1266  C     0.56059   0.80798   0.83292   0.00000  Uiso   1.00
C1267  C     0.84538   0.90976   0.83231   0.00000  Uiso   1.00
C1268  C     0.88949   0.67681   0.75147   0.00000  Uiso   1.00
C1269  C     0.61051   0.82319   0.91519   0.00000  Uiso   1.00
C1270  C     0.59416   0.84841   0.74578   0.00000  Uiso   1.00
C1271  C     0.90584   0.65159   0.92089   0.00000  Uiso   1.00
C1272  C     0.61052   0.67683   0.91519   0.00000  Uiso   1.00
C1273  C     0.88948   0.82317   0.75148   0.00000  Uiso   1.00
C1274  C     0.90583   0.84839   0.92089   0.00000  Uiso   1.00
C1275  C     0.59417   0.65161   0.74578   0.00000  Uiso   1.00
C1276  C     0.63948   0.92683   0.75148   0.00000  Uiso   1.00
C1277  C     0.81059   0.94202   0.83292   0.00000  Uiso   1.00
C1278  C     0.86052   0.57317   0.91519   0.00000  Uiso   1.00
C1279  C     0.84418   0.59839   0.74578   0.00000  Uiso   1.00
C1280  C     0.65582   0.90161   0.92089   0.00000  Uiso   1.00
C1281  C     0.86051   0.92681   0.91519   0.00000  Uiso   1.00
C1282  C     0.63949   0.57319   0.75147   0.00000  Uiso   1.00
C1283  C     0.65585   0.59841   0.92089   0.00000  Uiso   1.00
C1284  C     0.84415   0.90159   0.74578   0.00000  Uiso   1.00
C1285  C     0.68941   0.55798   0.83375   0.00000  Uiso   1.00
C1286  C     0.68941   0.94203   0.83375   0.00000  Uiso   1.00
C1287  C     0.81059   0.55797   0.83292   0.00000  Uiso   1.00
C1288  C     0.99946   0.71065   0.69105   0.00000  Uiso   1.00
Cu1289 Cu    0.50000   0.75000   0.88022   0.00000  Uiso   1.00
Cu1290 Cu    0.50000   0.75000   0.78645   0.00000  Uiso   1.00
Cu1291 Cu    0.75000   0.50000   0.88022   0.00000  Uiso   1.00
Cu1292 Cu    0.75000   0.50000   0.78645   0.00000  Uiso   1.00
H1293  H     0.50111   0.67196   0.74475   0.00000  Uiso   1.00
H1294  H     0.99889   0.82804   0.92192   0.00000  Uiso   1.00
H1295  H     0.50111   0.82804   0.74475   0.00000  Uiso   1.00
H1296  H     0.99888   0.67196   0.92192   0.00000  Uiso   1.00
H1297  H     0.75112   0.92196   0.74475   0.00000  Uiso   1.00
H1298  H     0.74888   0.57804   0.92192   0.00000  Uiso   1.00
H1299  H     0.75111   0.57804   0.74475   0.00000  Uiso   1.00
H1300  H     0.74889   0.92196   0.92191   0.00000  Uiso   1.00
N1301  N     0.50000   0.75000   0.95069   0.00000  Uiso   1.00
N1302  N     0.89312   0.80119   0.71869   0.00000  Uiso   1.00
N1303  N     0.91525   0.83701   0.95741   0.00000  Uiso   1.00
N1304  N     0.58475   0.66299   0.70926   0.00000  Uiso   1.00
N1305  N     0.64312   0.94881   0.71869   0.00000  Uiso   1.00
N1306  N     0.85688   0.55119   0.94798   0.00000  Uiso   1.00
N1307  N     0.83475   0.58700   0.70926   0.00000  Uiso   1.00
N1308  N     0.66524   0.91300   0.95741   0.00000  Uiso   1.00
N1309  N     0.85687   0.94879   0.94798   0.00000  Uiso   1.00
N1310  N     0.64313   0.55120   0.71868   0.00000  Uiso   1.00
N1311  N     0.66528   0.58704   0.95741   0.00000  Uiso   1.00
N1312  N     0.50000   0.75000   0.71598   0.00000  Uiso   1.00
N1313  N     0.83472   0.91296   0.70926   0.00000  Uiso   1.00
N1314  N     0.75000   0.50000   0.95069   0.00000  Uiso   1.00
N1315  N     0.75000   0.50000   0.71598   0.00000  Uiso   1.00
N1316  N     0.89313   0.69880   0.71869   0.00000  Uiso   1.00
N1317  N     0.60687   0.80120   0.94798   0.00000  Uiso   1.00
N1318  N     0.58473   0.83703   0.70926   0.00000  Uiso   1.00
N1319  N     0.91527   0.66297   0.95741   0.00000  Uiso   1.00
N1320  N     0.60688   0.69881   0.94798   0.00000  Uiso   1.00
O1321  O     0.54508   0.70491   0.87291   0.00000  Uiso   1.00
O1322  O     0.70491   0.54509   0.79375   0.00000  Uiso   1.00
O1323  O     0.70491   0.54509   0.87291   0.00000  Uiso   1.00
O1324  O     0.79508   0.95491   0.79375   0.00000  Uiso   1.00
O1325  O     0.70491   0.95491   0.79375   0.00000  Uiso   1.00
O1326  O     0.79508   0.54509   0.87291   0.00000  Uiso   1.00
O1327  O     0.79508   0.54509   0.79375   0.00000  Uiso   1.00
O1328  O     0.70491   0.95491   0.87291   0.00000  Uiso   1.00
O1329  O     0.99650   0.66920   0.71166   0.00000  Uiso   1.00
O1330  O     0.50350   0.83080   0.95500   0.00000  Uiso   1.00
O1331  O     0.99648   0.83080   0.71166   0.00000  Uiso   1.00
O1332  O     0.95491   0.79509   0.79375   0.00000  Uiso   1.00
O1333  O     0.50352   0.66920   0.95500   0.00000  Uiso   1.00
O1334  O     0.74647   0.91920   0.71167   0.00000  Uiso   1.00
O1335  O     0.75353   0.58080   0.95500   0.00000  Uiso   1.00
O1336  O     0.74651   0.58080   0.71166   0.00000  Uiso   1.00
O1337  O     0.75349   0.91920   0.95501   0.00000  Uiso   1.00
O1338  O     0.95491   0.79509   0.87291   0.00000  Uiso   1.00
O1339  O     0.54508   0.70491   0.79375   0.00000  Uiso   1.00
O1340  O     0.95491   0.70491   0.79375   0.00000  Uiso   1.00
O1341  O     0.54508   0.79509   0.87291   0.00000  Uiso   1.00
O1342  O     0.54508   0.79509   0.79375   0.00000  Uiso   1.00
O1343  O     0.95491   0.70491   0.87291   0.00000  Uiso   1.00
O1344  O     0.79508   0.95491   0.87291   0.00000  Uiso   1.00
loop_
_geom_bond_atom_site_label_1
_geom_bond_atom_site_label_2
_geom_bond_distance
_geom_bond_site_symmetry_2
_ccdc_geom_bond_type
C1     C30     1.480   .     S
C1     O89     1.307   .     A
C1     O107    1.306   .     A
C2     N69     1.380   .     A
C2     O98     1.377   .     S
C2     C563    1.409   1_455 S
C3     O99     1.377   .     S
C3     C1010   1.409   1_554 S
C3     N192    1.380   .     S
C4     N69     1.380   .     A
C4     O101    1.377   .     S
C4     C616    1.409   1_455 S
C5     O102    1.377   .     S
C5     C904    1.409   1_554 S
C5     N307    1.380   .     S
C6     N82     1.380   .     A
C6     O103    1.377   .     S
C6     C455    1.409   .     S
C7     N83     1.380   .     A
C7     O104    1.377   .     S
C7     C902    1.409   1_554 S
C8     O105    1.377   .     S
C8     C453    1.409   .     S
C8     N306    1.380   .     S
C9     C36     1.455   .     S
C9     C20     1.397   .     A
C9     C28     1.416   .     A
C10    C27     1.416   .     A
C10    C37     1.455   .     S
C10    C21     1.397   .     A
C11    C18     1.397   .     A
C11    C38     1.451   .     S
C11    C27     1.417   .     A
C12    C29     1.480   .     S
C12    O100    1.307   .     A
C12    O106    1.306   .     A
C13    C28     1.417   .     A
C13    C19     1.397   .     A
C13    C39     1.451   .     S
C14    C30     1.416   .     A
C14    C25     1.397   .     A
C14    C40     1.455   .     S
C15    C29     1.416   .     A
C15    C41     1.455   .     S
C15    C26     1.397   .     A
C16    C29     1.417   .     A
C16    C42     1.451   .     S
C16    C22     1.397   .     A
C17    C30     1.417   .     A
C17    C24     1.397   .     A
C17    C43     1.451   .     S
C18    C44     1.455   .     S
C18    C32     1.416   .     A
C19    C31     1.416   .     A
C19    C46     1.455   .     S
C20    C47     1.451   .     S
C20    C31     1.417   .     A
C21    C48     1.451   .     S
C21    C32     1.417   .     A
C22    C35     1.416   .     A
C22    C49     1.455   .     S
C23    C28     1.480   .     S
C23    O111    1.306   .     A
C23    O108    1.307   .     A
C24    C50     1.455   .     S
C24    C33     1.416   .     A
C25    C51     1.451   .     S
C25    C33     1.417   .     A
C26    C52     1.451   .     S
C26    C35     1.417   .     A
C27    C34     1.480   .     S
C31    C55     1.480   .     S
C32    C54     1.480   .     S
C33    C53     1.480   .     S
C34    O110    1.306   .     A
C34    O109    1.307   .     A
C35    C45     1.480   .     S
C36    N84     1.157   .     T
C37    N85     1.157   .     T
C38    N86     1.156   .     T
C39    N87     1.156   .     T
C40    N88     1.157   .     T
C41    N70     1.157   .     T
C42    N71     1.156   .     T
C43    N72     1.156   .     T
C44    N73     1.157   .     T
C45    O92     1.306   .     A
C45    O112    1.307   .     A
C46    N74     1.157   .     T
C47    N75     1.156   .     T
C48    N76     1.156   .     T
C49    N77     1.157   .     T
C50    N78     1.157   .     T
C51    N79     1.156   .     T
C52    N81     1.156   .     T
C53    O91     1.306   .     A
C53    O90     1.307   .     A
C54    O93     1.307   .     A
C54    O96     1.306   .     A
C55    O94     1.307   .     A
C55    O95     1.306   .     A
C56    O97     1.377   .     S
C56    C1012   1.409   1_554 S
C56    N192    1.380   .     S
Cu57   O89     1.991   .     S
Cu57   O109    1.991   .     S
Cu57   Cu58    2.710   .     S
Cu57   N69     2.036   .     S
Cu57   O218    1.998   1_455 S
Cu57   O223    1.998   1_455 S
Cu58   O107    1.998   .     S
Cu58   N80     2.036   .     S
Cu58   O110    1.998   .     S
Cu58   O212    1.991   1_455 S
Cu58   O220    1.991   1_455 S
Cu59   N82     2.036   .     S
Cu59   O94     1.991   .     S
Cu59   Cu60    2.710   .     S
Cu59   O91     1.998   .     S
Cu59   O320    1.998   1_545 S
Cu59   O336    1.991   1_545 S
Cu60   N83     2.036   .     S
Cu60   O90     1.991   .     S
Cu60   O95     1.998   .     S
Cu60   O316    1.998   1_545 S
Cu60   O317    1.991   1_545 S
H61    O209    0.974   1_455 S
H62    O210    0.974   .     S
H63    O211    0.974   1_455 S
H64    O213    0.974   .     S
H65    O102    0.974   .     S
H66    O103    0.974   .     S
H67    O104    0.974   .     S
H68    O105    0.974   .     S
N80    C168    1.380   1_455 S
N80    C115    1.380   1_455 S
N82    C232    1.380   1_545 S
N83    C229    1.380   1_545 S
O92    Cu284   1.998   .     S
O93    Cu284   1.991   .     S
O96    Cu283   1.998   .     S
O97    H173    0.974   .     S
O98    H174    0.974   1_455 S
O99    H175    0.974   .     S
O100   Cu170   1.991   .     S
O101   H176    0.974   1_455 S
O106   Cu169   1.998   .     S
O108   Cu170   1.991   .     S
O111   Cu169   1.998   .     S
O112   Cu283   1.991   .     S
C113   C142    1.480   .     S
C113   O201    1.307   .     A
C113   O219    1.306   .     A
C114   N181    1.380   .     A
C114   O210    1.377   .     S
C114   C451    1.409   .     S
C115   O211    1.377   .     S
C115   C898    1.409   1_654 S
C115   N80     1.380   1_655 S
C116   N181    1.380   .     A
C116   O213    1.377   .     S
C116   C504    1.409   .     S
C117   O214    1.377   .     S
C117   C1016   1.409   1_554 S
C117   N419    1.380   .     S
C118   N194    1.380   .     A
C118   O215    1.377   .     S
C118   C567    1.409   .     S
C119   N195    1.380   .     A
C119   O216    1.377   .     S
C119   C1014   1.409   1_554 S
C120   O217    1.377   .     S
C120   C565    1.409   .     S
C120   N418    1.380   .     S
C121   C148    1.455   .     S
C121   C132    1.397   .     A
C121   C140    1.416   .     A
C122   C139    1.416   .     A
C122   C149    1.455   .     S
C122   C133    1.397   .     A
C123   C130    1.397   .     A
C123   C150    1.451   .     S
C123   C139    1.417   .     A
C124   C141    1.480   .     S
C124   O212    1.307   .     A
C124   O218    1.306   .     A
C125   C140    1.417   .     A
C125   C131    1.397   .     A
C125   C151    1.451   .     S
C126   C142    1.416   .     A
C126   C137    1.397   .     A
C126   C152    1.455   .     S
C127   C141    1.416   .     A
C127   C153    1.455   .     S
C127   C138    1.397   .     A
C128   C141    1.417   .     A
C128   C154    1.451   .     S
C128   C134    1.397   .     A
C129   C142    1.417   .     A
C129   C136    1.397   .     A
C129   C155    1.451   .     S
C130   C156    1.455   .     S
C130   C144    1.416   .     A
C131   C143    1.416   .     A
C131   C158    1.455   .     S
C132   C159    1.451   .     S
C132   C143    1.417   .     A
C133   C160    1.451   .     S
C133   C144    1.417   .     A
C134   C147    1.416   .     A
C134   C161    1.455   .     S
C135   C140    1.480   .     S
C135   O223    1.306   .     A
C135   O220    1.307   .     A
C136   C162    1.455   .     S
C136   C145    1.416   .     A
C137   C163    1.451   .     S
C137   C145    1.417   .     A
C138   C164    1.451   .     S
C138   C147    1.417   .     A
C139   C146    1.480   .     S
C143   C167    1.480   .     S
C144   C166    1.480   .     S
C145   C165    1.480   .     S
C146   O222    1.306   .     A
C146   O221    1.307   .     A
C147   C157    1.480   .     S
C148   N196    1.157   .     T
C149   N197    1.157   .     T
C150   N198    1.156   .     T
C151   N199    1.156   .     T
C152   N200    1.157   .     T
C153   N182    1.157   .     T
C154   N183    1.156   .     T
C155   N184    1.156   .     T
C156   N185    1.157   .     T
C157   O204    1.306   .     A
C157   O224    1.307   .     A
C158   N186    1.157   .     T
C159   N187    1.156   .     T
C160   N188    1.156   .     T
C161   N189    1.157   .     T
C162   N190    1.157   .     T
C163   N191    1.156   .     T
C164   N193    1.156   .     T
C165   O203    1.306   .     A
C165   O202    1.307   .     A
C166   O205    1.307   .     A
C166   O208    1.306   .     A
C167   O206    1.307   .     A
C167   O207    1.306   .     A
C168   O209    1.377   .     S
C168   C900    1.409   1_654 S
C168   N80     1.380   1_655 S
Cu169  O201    1.991   .     S
Cu169  O221    1.991   .     S
Cu169  Cu170   2.710   .     S
Cu169  N181    2.036   .     S
Cu170  O219    1.998   .     S
Cu170  N192    2.036   .     S
Cu170  O222    1.998   .     S
Cu171  N194    2.036   .     S
Cu171  O206    1.991   .     S
Cu171  Cu172   2.710   .     S
Cu171  O203    1.998   .     S
Cu171  O432    1.998   1_545 S
Cu171  O448    1.991   1_545 S
Cu172  N195    2.036   .     S
Cu172  O202    1.991   .     S
Cu172  O207    1.998   .     S
Cu172  O428    1.998   1_545 S
Cu172  O429    1.991   1_545 S
H174   O98     0.974   1_655 S
H176   O101    0.974   1_655 S
H177   O214    0.974   .     S
H178   O215    0.974   .     S
H179   O216    0.974   .     S
H180   O217    0.974   .     S
N194   C344    1.380   1_545 S
N195   C341    1.380   1_545 S
O204   Cu396   1.998   .     S
O205   Cu396   1.991   .     S
O208   Cu395   1.998   .     S
O209   H61     0.974   1_655 S
O211   H63     0.974   1_655 S
O212   Cu58    1.991   1_655 S
O218   Cu57    1.998   1_655 S
O220   Cu58    1.991   1_655 S
O223   Cu57    1.998   1_655 S
O224   Cu395   1.991   .     S
C225   C254    1.480   .     S
C225   O313    1.307   .     A
C225   O331    1.306   .     A
C226   N293    1.380   .     A
C226   O322    1.377   .     S
C226   C787    1.409   1_455 S
C227   O323    1.377   .     S
C227   C1234   1.409   1_554 S
C227   N416    1.380   .     S
C228   N293    1.380   .     A
C228   O325    1.377   .     S
C228   C840    1.409   1_455 S
C229   O326    1.377   .     S
C229   C1128   1.409   1_554 S
C229   N83     1.380   1_565 S
C230   N306    1.380   .     A
C230   O327    1.377   .     S
C230   C679    1.409   .     S
C231   N307    1.380   .     A
C231   O328    1.377   .     S
C231   C1126   1.409   1_554 S
C232   O329    1.377   .     S
C232   C677    1.409   .     S
C232   N82     1.380   1_565 S
C233   C260    1.455   .     S
C233   C244    1.397   .     A
C233   C252    1.416   .     A
C234   C251    1.416   .     A
C234   C261    1.455   .     S
C234   C245    1.397   .     A
C235   C242    1.397   .     A
C235   C262    1.451   .     S
C235   C251    1.417   .     A
C236   C253    1.480   .     S
C236   O324    1.307   .     A
C236   O330    1.306   .     A
C237   C252    1.417   .     A
C237   C243    1.397   .     A
C237   C263    1.451   .     S
C238   C254    1.416   .     A
C238   C249    1.397   .     A
C238   C264    1.455   .     S
C239   C253    1.416   .     A
C239   C265    1.455   .     S
C239   C250    1.397   .     A
C240   C253    1.417   .     A
C240   C266    1.451   .     S
C240   C246    1.397   .     A
C241   C254    1.417   .     A
C241   C248    1.397   .     A
C241   C267    1.451   .     S
C242   C268    1.455   .     S
C242   C256    1.416   .     A
C243   C255    1.416   .     A
C243   C270    1.455   .     S
C244   C271    1.451   .     S
C244   C255    1.417   .     A
C245   C272    1.451   .     S
C245   C256    1.417   .     A
C246   C259    1.416   .     A
C246   C273    1.455   .     S
C247   C252    1.480   .     S
C247   O335    1.306   .     A
C247   O332    1.307   .     A
C248   C274    1.455   .     S
C248   C257    1.416   .     A
C249   C275    1.451   .     S
C249   C257    1.417   .     A
C250   C276    1.451   .     S
C250   C259    1.417   .     A
C251   C258    1.480   .     S
C255   C279    1.480   .     S
C256   C278    1.480   .     S
C257   C277    1.480   .     S
C258   O334    1.306   .     A
C258   O333    1.307   .     A
C259   C269    1.480   .     S
C260   N308    1.157   .     T
C261   N309    1.157   .     T
C262   N310    1.156   .     T
C263   N311    1.156   .     T
C264   N312    1.157   .     T
C265   N294    1.157   .     T
C266   N295    1.156   .     T
C267   N296    1.156   .     T
C268   N297    1.157   .     T
C269   O316    1.306   .     A
C269   O336    1.307   .     A
C270   N298    1.157   .     T
C271   N299    1.156   .     T
C272   N300    1.156   .     T
C273   N301    1.157   .     T
C274   N302    1.157   .     T
C275   N303    1.156   .     T
C276   N305    1.156   .     T
C277   O315    1.306   .     A
C277   O314    1.307   .     A
C278   O317    1.307   .     A
C278   O320    1.306   .     A
C279   O318    1.307   .     A
C279   O319    1.306   .     A
C280   O321    1.377   .     S
C280   C1236   1.409   1_554 S
C280   N416    1.380   .     S
Cu281  O313    1.991   .     S
Cu281  O333    1.991   .     S
Cu281  Cu282   2.710   .     S
Cu281  N293    2.036   .     S
Cu281  O442    1.998   1_455 S
Cu281  O447    1.998   1_455 S
Cu282  O331    1.998   .     S
Cu282  N304    2.036   .     S
Cu282  O334    1.998   .     S
Cu282  O436    1.991   1_455 S
Cu282  O444    1.991   1_455 S
Cu283  N306    2.036   .     S
Cu283  O318    1.991   .     S
Cu283  Cu284   2.710   .     S
Cu283  O315    1.998   .     S
Cu284  N307    2.036   .     S
Cu284  O314    1.991   .     S
Cu284  O319    1.998   .     S
H285   O433    0.974   1_455 S
H286   O434    0.974   .     S
H287   O435    0.974   1_455 S
H288   O437    0.974   .     S
H289   O326    0.974   .     S
H290   O327    0.974   .     S
H291   O328    0.974   .     S
H292   O329    0.974   .     S
N304   C392    1.380   1_455 S
N304   C339    1.380   1_455 S
O316   Cu60    1.998   1_565 S
O317   Cu60    1.991   1_565 S
O320   Cu59    1.998   1_565 S
O321   H397    0.974   .     S
O322   H398    0.974   1_455 S
O323   H399    0.974   .     S
O324   Cu394   1.991   .     S
O325   H400    0.974   1_455 S
O330   Cu393   1.998   .     S
O332   Cu394   1.991   .     S
O335   Cu393   1.998   .     S
O336   Cu59    1.991   1_565 S
C337   C366    1.480   .     S
C337   O425    1.307   .     A
C337   O443    1.306   .     A
C338   N405    1.380   .     A
C338   O434    1.377   .     S
C338   C675    1.409   .     S
C339   O435    1.377   .     S
C339   C1122   1.409   1_654 S
C339   N304    1.380   1_655 S
C340   N405    1.380   .     A
C340   O437    1.377   .     S
C340   C728    1.409   .     S
C341   O438    1.377   .     S
C341   C1240   1.409   1_554 S
C341   N195    1.380   1_565 S
C342   N418    1.380   .     A
C342   O439    1.377   .     S
C342   C791    1.409   .     S
C343   N419    1.380   .     A
C343   O440    1.377   .     S
C343   C1238   1.409   1_554 S
C344   O441    1.377   .     S
C344   C789    1.409   .     S
C344   N194    1.380   1_565 S
C345   C372    1.455   .     S
C345   C356    1.397   .     A
C345   C364    1.416   .     A
C346   C363    1.416   .     A
C346   C373    1.455   .     S
C346   C357    1.397   .     A
C347   C354    1.397   .     A
C347   C374    1.451   .     S
C347   C363    1.417   .     A
C348   C365    1.480   .     S
C348   O436    1.307   .     A
C348   O442    1.306   .     A
C349   C364    1.417   .     A
C349   C355    1.397   .     A
C349   C375    1.451   .     S
C350   C366    1.416   .     A
C350   C361    1.397   .     A
C350   C376    1.455   .     S
C351   C365    1.416   .     A
C351   C377    1.455   .     S
C351   C362    1.397   .     A
C352   C365    1.417   .     A
C352   C378    1.451   .     S
C352   C358    1.397   .     A
C353   C366    1.417   .     A
C353   C360    1.397   .     A
C353   C379    1.451   .     S
C354   C380    1.455   .     S
C354   C368    1.416   .     A
C355   C367    1.416   .     A
C355   C382    1.455   .     S
C356   C383    1.451   .     S
C356   C367    1.417   .     A
C357   C384    1.451   .     S
C357   C368    1.417   .     A
C358   C371    1.416   .     A
C358   C385    1.455   .     S
C359   C364    1.480   .     S
C359   O447    1.306   .     A
C359   O444    1.307   .     A
C360   C386    1.455   .     S
C360   C369    1.416   .     A
C361   C387    1.451   .     S
C361   C369    1.417   .     A
C362   C388    1.451   .     S
C362   C371    1.417   .     A
C363   C370    1.480   .     S
C367   C391    1.480   .     S
C368   C390    1.480   .     S
C369   C389    1.480   .     S
C370   O446    1.306   .     A
C370   O445    1.307   .     A
C371   C381    1.480   .     S
C372   N420    1.157   .     T
C373   N421    1.157   .     T
C374   N422    1.156   .     T
C375   N423    1.156   .     T
C376   N424    1.157   .     T
C377   N406    1.157   .     T
C378   N407    1.156   .     T
C379   N408    1.156   .     T
C380   N409    1.157   .     T
C381   O428    1.306   .     A
C381   O448    1.307   .     A
C382   N410    1.157   .     T
C383   N411    1.156   .     T
C384   N412    1.156   .     T
C385   N413    1.157   .     T
C386   N414    1.157   .     T
C387   N415    1.156   .     T
C388   N417    1.156   .     T
C389   O427    1.306   .     A
C389   O426    1.307   .     A
C390   O429    1.307   .     A
C390   O432    1.306   .     A
C391   O430    1.307   .     A
C391   O431    1.306   .     A
C392   O433    1.377   .     S
C392   C1124   1.409   1_654 S
C392   N304    1.380   1_655 S
Cu393  O425    1.991   .     S
Cu393  O445    1.991   .     S
Cu393  Cu394   2.710   .     S
Cu393  N405    2.036   .     S
Cu394  O443    1.998   .     S
Cu394  N416    2.036   .     S
Cu394  O446    1.998   .     S
Cu395  N418    2.036   .     S
Cu395  O430    1.991   .     S
Cu395  Cu396   2.710   .     S
Cu395  O427    1.998   .     S
Cu396  N419    2.036   .     S
Cu396  O426    1.991   .     S
Cu396  O431    1.998   .     S
H398   O322    0.974   1_655 S
H400   O325    0.974   1_655 S
H401   O438    0.974   .     S
H402   O439    0.974   .     S
H403   O440    0.974   .     S
H404   O441    0.974   .     S
O428   Cu172   1.998   1_565 S
O429   Cu172   1.991   1_565 S
O432   Cu171   1.998   1_565 S
O433   H285    0.974   1_655 S
O435   H287    0.974   1_655 S
O436   Cu282   1.991   1_655 S
O442   Cu281   1.998   1_655 S
O444   Cu282   1.991   1_655 S
O447   Cu281   1.998   1_655 S
O448   Cu171   1.991   1_565 S
C449   C478    1.480   .     S
C449   O537    1.307   .     A
C449   O555    1.306   .     A
C450   N517    1.380   .     A
C450   O546    1.377   .     S
C450   C1011   1.409   1_455 S
C451   O547    1.377   .     S
C451   N640    1.380   .     S
C452   N517    1.380   .     A
C452   O549    1.377   .     S
C452   C1064   1.409   1_455 S
C453   O550    1.377   .     S
C453   N755    1.380   .     S
C454   N530    1.380   .     A
C454   O551    1.377   .     S
C454   C903    1.409   .     S
C455   N531    1.380   .     A
C455   O552    1.377   .     S
C456   O553    1.377   .     S
C456   C901    1.409   .     S
C456   N754    1.380   .     S
C457   C484    1.455   .     S
C457   C468    1.397   .     A
C457   C476    1.416   .     A
C458   C475    1.416   .     A
C458   C485    1.455   .     S
C458   C469    1.397   .     A
C459   C466    1.397   .     A
C459   C486    1.451   .     S
C459   C475    1.417   .     A
C460   C477    1.480   .     S
C460   O548    1.307   .     A
C460   O554    1.306   .     A
C461   C476    1.417   .     A
C461   C467    1.397   .     A
C461   C487    1.451   .     S
C462   C478    1.416   .     A
C462   C473    1.397   .     A
C462   C488    1.455   .     S
C463   C477    1.416   .     A
C463   C489    1.455   .     S
C463   C474    1.397   .     A
C464   C477    1.417   .     A
C464   C490    1.451   .     S
C464   C470    1.397   .     A
C465   C478    1.417   .     A
C465   C472    1.397   .     A
C465   C491    1.451   .     S
C466   C492    1.455   .     S
C466   C480    1.416   .     A
C467   C479    1.416   .     A
C467   C494    1.455   .     S
C468   C495    1.451   .     S
C468   C479    1.417   .     A
C469   C496    1.451   .     S
C469   C480    1.417   .     A
C470   C483    1.416   .     A
C470   C497    1.455   .     S
C471   C476    1.480   .     S
C471   O559    1.306   .     A
C471   O556    1.307   .     A
C472   C498    1.455   .     S
C472   C481    1.416   .     A
C473   C499    1.451   .     S
C473   C481    1.417   .     A
C474   C500    1.451   .     S
C474   C483    1.417   .     A
C475   C482    1.480   .     S
C479   C503    1.480   .     S
C480   C502    1.480   .     S
C481   C501    1.480   .     S
C482   O558    1.306   .     A
C482   O557    1.307   .     A
C483   C493    1.480   .     S
C484   N532    1.157   .     T
C485   N533    1.157   .     T
C486   N534    1.156   .     T
C487   N535    1.156   .     T
C488   N536    1.157   .     T
C489   N518    1.157   .     T
C490   N519    1.156   .     T
C491   N520    1.156   .     T
C492   N521    1.157   .     T
C493   O540    1.306   .     A
C493   O560    1.307   .     A
C494   N522    1.157   .     T
C495   N523    1.156   .     T
C496   N524    1.156   .     T
C497   N525    1.157   .     T
C498   N526    1.157   .     T
C499   N527    1.156   .     T
C500   N529    1.156   .     T
C501   O539    1.306   .     A
C501   O538    1.307   .     A
C502   O541    1.307   .     A
C502   O544    1.306   .     A
C503   O542    1.307   .     A
C503   O543    1.306   .     A
C504   O545    1.377   .     S
C504   N640    1.380   .     S
Cu505  O537    1.991   .     S
Cu505  O557    1.991   .     S
Cu505  Cu506   2.710   .     S
Cu505  N517    2.036   .     S
Cu505  O666    1.998   1_455 S
Cu505  O671    1.998   1_455 S
Cu506  O555    1.998   .     S
Cu506  N528    2.036   .     S
Cu506  O558    1.998   .     S
Cu506  O660    1.991   1_455 S
Cu506  O668    1.991   1_455 S
Cu507  N530    2.036   .     S
Cu507  O542    1.991   .     S
Cu507  Cu508   2.710   .     S
Cu507  O539    1.998   .     S
Cu507  O768    1.998   1_545 S
Cu507  O784    1.991   1_545 S
Cu508  N531    2.036   .     S
Cu508  O538    1.991   .     S
Cu508  O543    1.998   .     S
Cu508  O764    1.998   1_545 S
Cu508  O765    1.991   1_545 S
H509   O657    0.974   1_455 S
H510   O658    0.974   .     S
H511   O659    0.974   1_455 S
H512   O661    0.974   .     S
H513   O550    0.974   .     S
H514   O551    0.974   .     S
H515   O552    0.974   .     S
H516   O553    0.974   .     S
N528   C616    1.380   1_455 S
N528   C563    1.380   1_455 S
N530   C680    1.380   1_545 S
N531   C677    1.380   1_545 S
O540   Cu732   1.998   .     S
O541   Cu732   1.991   .     S
O544   Cu731   1.998   .     S
O545   H621    0.974   .     S
O546   H622    0.974   1_455 S
O547   H623    0.974   .     S
O548   Cu618   1.991   .     S
O549   H624    0.974   1_455 S
O554   Cu617   1.998   .     S
O556   Cu618   1.991   .     S
O559   Cu617   1.998   .     S
O560   Cu731   1.991   .     S
C561   C590    1.480   .     S
C561   O649    1.307   .     A
C561   O667    1.306   .     A
C562   N629    1.380   .     A
C562   O658    1.377   .     S
C562   C899    1.409   .     S
C563   O659    1.377   .     S
C563   C2      1.409   1_655 S
C563   N528    1.380   1_655 S
C564   N629    1.380   .     A
C564   O661    1.377   .     S
C564   C952    1.409   .     S
C565   O662    1.377   .     S
C565   N867    1.380   .     S
C566   N642    1.380   .     A
C566   O663    1.377   .     S
C566   C1015   1.409   .     S
C567   N643    1.380   .     A
C567   O664    1.377   .     S
C568   O665    1.377   .     S
C568   C1013   1.409   .     S
C568   N866    1.380   .     S
C569   C596    1.455   .     S
C569   C580    1.397   .     A
C569   C588    1.416   .     A
C570   C587    1.416   .     A
C570   C597    1.455   .     S
C570   C581    1.397   .     A
C571   C578    1.397   .     A
C571   C598    1.451   .     S
C571   C587    1.417   .     A
C572   C589    1.480   .     S
C572   O660    1.307   .     A
C572   O666    1.306   .     A
C573   C588    1.417   .     A
C573   C579    1.397   .     A
C573   C599    1.451   .     S
C574   C590    1.416   .     A
C574   C585    1.397   .     A
C574   C600    1.455   .     S
C575   C589    1.416   .     A
C575   C601    1.455   .     S
C575   C586    1.397   .     A
C576   C589    1.417   .     A
C576   C602    1.451   .     S
C576   C582    1.397   .     A
C577   C590    1.417   .     A
C577   C584    1.397   .     A
C577   C603    1.451   .     S
C578   C604    1.455   .     S
C578   C592    1.416   .     A
C579   C591    1.416   .     A
C579   C606    1.455   .     S
C580   C607    1.451   .     S
C580   C591    1.417   .     A
C581   C608    1.451   .     S
C581   C592    1.417   .     A
C582   C595    1.416   .     A
C582   C609    1.455   .     S
C583   C588    1.480   .     S
C583   O671    1.306   .     A
C583   O668    1.307   .     A
C584   C610    1.455   .     S
C584   C593    1.416   .     A
C585   C611    1.451   .     S
C585   C593    1.417   .     A
C586   C612    1.451   .     S
C586   C595    1.417   .     A
C587   C594    1.480   .     S
C591   C615    1.480   .     S
C592   C614    1.480   .     S
C593   C613    1.480   .     S
C594   O670    1.306   .     A
C594   O669    1.307   .     A
C595   C605    1.480   .     S
C596   N644    1.157   .     T
C597   N645    1.157   .     T
C598   N646    1.156   .     T
C599   N647    1.156   .     T
C600   N648    1.157   .     T
C601   N630    1.157   .     T
C602   N631    1.156   .     T
C603   N632    1.156   .     T
C604   N633    1.157   .     T
C605   O652    1.306   .     A
C605   O672    1.307   .     A
C606   N634    1.157   .     T
C607   N635    1.156   .     T
C608   N636    1.156   .     T
C609   N637    1.157   .     T
C610   N638    1.157   .     T
C611   N639    1.156   .     T
C612   N641    1.156   .     T
C613   O651    1.306   .     A
C613   O650    1.307   .     A
C614   O653    1.307   .     A
C614   O656    1.306   .     A
C615   O654    1.307   .     A
C615   O655    1.306   .     A
C616   O657    1.377   .     S
C616   C4      1.409   1_655 S
C616   N528    1.380   1_655 S
Cu617  O649    1.991   .     S
Cu617  O669    1.991   .     S
Cu617  Cu618   2.710   .     S
Cu617  N629    2.036   .     S
Cu618  O667    1.998   .     S
Cu618  N640    2.036   .     S
Cu618  O670    1.998   .     S
Cu619  N642    2.036   .     S
Cu619  O654    1.991   .     S
Cu619  Cu620   2.710   .     S
Cu619  O651    1.998   .     S
Cu619  O880    1.998   1_545 S
Cu619  O896    1.991   1_545 S
Cu620  N643    2.036   .     S
Cu620  O650    1.991   .     S
Cu620  O655    1.998   .     S
Cu620  O876    1.998   1_545 S
Cu620  O877    1.991   1_545 S
H622   O546    0.974   1_655 S
H624   O549    0.974   1_655 S
H625   O662    0.974   .     S
H626   O663    0.974   .     S
H627   O664    0.974   .     S
H628   O665    0.974   .     S
N642   C792    1.380   1_545 S
N643   C789    1.380   1_545 S
O652   Cu844   1.998   .     S
O653   Cu844   1.991   .     S
O656   Cu843   1.998   .     S
O657   H509    0.974   1_655 S
O659   H511    0.974   1_655 S
O660   Cu506   1.991   1_655 S
O666   Cu505   1.998   1_655 S
O668   Cu506   1.991   1_655 S
O671   Cu505   1.998   1_655 S
O672   Cu843   1.991   .     S
C673   C702    1.480   .     S
C673   O761    1.307   .     A
C673   O779    1.306   .     A
C674   N741    1.380   .     A
C674   O770    1.377   .     S
C674   C1235   1.409   1_455 S
C675   O771    1.377   .     S
C675   N864    1.380   .     S
C676   N741    1.380   .     A
C676   O773    1.377   .     S
C676   C1288   1.409   1_455 S
C677   O774    1.377   .     S
C677   N531    1.380   1_565 S
C678   N754    1.380   .     A
C678   O775    1.377   .     S
C678   C1127   1.409   .     S
C679   N755    1.380   .     A
C679   O776    1.377   .     S
C680   O777    1.377   .     S
C680   C1125   1.409   .     S
C680   N530    1.380   1_565 S
C681   C708    1.455   .     S
C681   C692    1.397   .     A
C681   C700    1.416   .     A
C682   C699    1.416   .     A
C682   C709    1.455   .     S
C682   C693    1.397   .     A
C683   C690    1.397   .     A
C683   C710    1.451   .     S
C683   C699    1.417   .     A
C684   C701    1.480   .     S
C684   O772    1.307   .     A
C684   O778    1.306   .     A
C685   C700    1.417   .     A
C685   C691    1.397   .     A
C685   C711    1.451   .     S
C686   C702    1.416   .     A
C686   C697    1.397   .     A
C686   C712    1.455   .     S
C687   C701    1.416   .     A
C687   C713    1.455   .     S
C687   C698    1.397   .     A
C688   C701    1.417   .     A
C688   C714    1.451   .     S
C688   C694    1.397   .     A
C689   C702    1.417   .     A
C689   C696    1.397   .     A
C689   C715    1.451   .     S
C690   C716    1.455   .     S
C690   C704    1.416   .     A
C691   C703    1.416   .     A
C691   C718    1.455   .     S
C692   C719    1.451   .     S
C692   C703    1.417   .     A
C693   C720    1.451   .     S
C693   C704    1.417   .     A
C694   C707    1.416   .     A
C694   C721    1.455   .     S
C695   C700    1.480   .     S
C695   O783    1.306   .     A
C695   O780    1.307   .     A
C696   C722    1.455   .     S
C696   C705    1.416   .     A
C697   C723    1.451   .     S
C697   C705    1.417   .     A
C698   C724    1.451   .     S
C698   C707    1.417   .     A
C699   C706    1.480   .     S
C703   C727    1.480   .     S
C704   C726    1.480   .     S
C705   C725    1.480   .     S
C706   O782    1.306   .     A
C706   O781    1.307   .     A
C707   C717    1.480   .     S
C708   N756    1.157   .     T
C709   N757    1.157   .     T
C710   N758    1.156   .     T
C711   N759    1.156   .     T
C712   N760    1.157   .     T
C713   N742    1.157   .     T
C714   N743    1.156   .     T
C715   N744    1.156   .     T
C716   N745    1.157   .     T
C717   O764    1.306   .     A
C717   O784    1.307   .     A
C718   N746    1.157   .     T
C719   N747    1.156   .     T
C720   N748    1.156   .     T
C721   N749    1.157   .     T
C722   N750    1.157   .     T
C723   N751    1.156   .     T
C724   N753    1.156   .     T
C725   O763    1.306   .     A
C725   O762    1.307   .     A
C726   O765    1.307   .     A
C726   O768    1.306   .     A
C727   O766    1.307   .     A
C727   O767    1.306   .     A
C728   O769    1.377   .     S
C728   N864    1.380   .     S
Cu729  O761    1.991   .     S
Cu729  O781    1.991   .     S
Cu729  Cu730   2.710   .     S
Cu729  N741    2.036   .     S
Cu729  O890    1.998   1_455 S
Cu729  O895    1.998   1_455 S
Cu730  O779    1.998   .     S
Cu730  N752    2.036   .     S
Cu730  O782    1.998   .     S
Cu730  O884    1.991   1_455 S
Cu730  O892    1.991   1_455 S
Cu731  N754    2.036   .     S
Cu731  O766    1.991   .     S
Cu731  Cu732   2.710   .     S
Cu731  O763    1.998   .     S
Cu732  N755    2.036   .     S
Cu732  O762    1.991   .     S
Cu732  O767    1.998   .     S
H733   O881    0.974   1_455 S
H734   O882    0.974   .     S
H735   O883    0.974   1_455 S
H736   O885    0.974   .     S
H737   O774    0.974   .     S
H738   O775    0.974   .     S
H739   O776    0.974   .     S
H740   O777    0.974   .     S
N752   C840    1.380   1_455 S
N752   C787    1.380   1_455 S
O764   Cu508   1.998   1_565 S
O765   Cu508   1.991   1_565 S
O768   Cu507   1.998   1_565 S
O769   H845    0.974   .     S
O770   H846    0.974   1_455 S
O771   H847    0.974   .     S
O772   Cu842   1.991   .     S
O773   H848    0.974   1_455 S
O778   Cu841   1.998   .     S
O780   Cu842   1.991   .     S
O783   Cu841   1.998   .     S
O784   Cu507   1.991   1_565 S
C785   C814    1.480   .     S
C785   O873    1.307   .     A
C785   O891    1.306   .     A
C786   N853    1.380   .     A
C786   O882    1.377   .     S
C786   C1123   1.409   .     S
C787   O883    1.377   .     S
C787   C226    1.409   1_655 S
C787   N752    1.380   1_655 S
C788   N853    1.380   .     A
C788   O885    1.377   .     S
C788   C1176   1.409   .     S
C789   O886    1.377   .     S
C789   N643    1.380   1_565 S
C790   N866    1.380   .     A
C790   O887    1.377   .     S
C790   C1239   1.409   .     S
C791   N867    1.380   .     A
C791   O888    1.377   .     S
C792   O889    1.377   .     S
C792   C1237   1.409   .     S
C792   N642    1.380   1_565 S
C793   C820    1.455   .     S
C793   C804    1.397   .     A
C793   C812    1.416   .     A
C794   C811    1.416   .     A
C794   C821    1.455   .     S
C794   C805    1.397   .     A
C795   C802    1.397   .     A
C795   C822    1.451   .     S
C795   C811    1.417   .     A
C796   C813    1.480   .     S
C796   O884    1.307   .     A
C796   O890    1.306   .     A
C797   C812    1.417   .     A
C797   C803    1.397   .     A
C797   C823    1.451   .     S
C798   C814    1.416   .     A
C798   C809    1.397   .     A
C798   C824    1.455   .     S
C799   C813    1.416   .     A
C799   C825    1.455   .     S
C799   C810    1.397   .     A
C800   C813    1.417   .     A
C800   C826    1.451   .     S
C800   C806    1.397   .     A
C801   C814    1.417   .     A
C801   C808    1.397   .     A
C801   C827    1.451   .     S
C802   C828    1.455   .     S
C802   C816    1.416   .     A
C803   C815    1.416   .     A
C803   C830    1.455   .     S
C804   C831    1.451   .     S
C804   C815    1.417   .     A
C805   C832    1.451   .     S
C805   C816    1.417   .     A
C806   C819    1.416   .     A
C806   C833    1.455   .     S
C807   C812    1.480   .     S
C807   O895    1.306   .     A
C807   O892    1.307   .     A
C808   C834    1.455   .     S
C808   C817    1.416   .     A
C809   C835    1.451   .     S
C809   C817    1.417   .     A
C810   C836    1.451   .     S
C810   C819    1.417   .     A
C811   C818    1.480   .     S
C815   C839    1.480   .     S
C816   C838    1.480   .     S
C817   C837    1.480   .     S
C818   O894    1.306   .     A
C818   O893    1.307   .     A
C819   C829    1.480   .     S
C820   N868    1.157   .     T
C821   N869    1.157   .     T
C822   N870    1.156   .     T
C823   N871    1.156   .     T
C824   N872    1.157   .     T
C825   N854    1.157   .     T
C826   N855    1.156   .     T
C827   N856    1.156   .     T
C828   N857    1.157   .     T
C829   O876    1.306   .     A
C829   O896    1.307   .     A
C830   N858    1.157   .     T
C831   N859    1.156   .     T
C832   N860    1.156   .     T
C833   N861    1.157   .     T
C834   N862    1.157   .     T
C835   N863    1.156   .     T
C836   N865    1.156   .     T
C837   O875    1.306   .     A
C837   O874    1.307   .     A
C838   O877    1.307   .     A
C838   O880    1.306   .     A
C839   O878    1.307   .     A
C839   O879    1.306   .     A
C840   O881    1.377   .     S
C840   C228    1.409   1_655 S
C840   N752    1.380   1_655 S
Cu841  O873    1.991   .     S
Cu841  O893    1.991   .     S
Cu841  Cu842   2.710   .     S
Cu841  N853    2.036   .     S
Cu842  O891    1.998   .     S
Cu842  N864    2.036   .     S
Cu842  O894    1.998   .     S
Cu843  N866    2.036   .     S
Cu843  O878    1.991   .     S
Cu843  Cu844   2.710   .     S
Cu843  O875    1.998   .     S
Cu844  N867    2.036   .     S
Cu844  O874    1.991   .     S
Cu844  O879    1.998   .     S
H846   O770    0.974   1_655 S
H848   O773    0.974   1_655 S
H849   O886    0.974   .     S
H850   O887    0.974   .     S
H851   O888    0.974   .     S
H852   O889    0.974   .     S
O876   Cu620   1.998   1_565 S
O877   Cu620   1.991   1_565 S
O880   Cu619   1.998   1_565 S
O881   H733    0.974   1_655 S
O883   H735    0.974   1_655 S
O884   Cu730   1.991   1_655 S
O890   Cu729   1.998   1_655 S
O892   Cu730   1.991   1_655 S
O895   Cu729   1.998   1_655 S
O896   Cu619   1.991   1_565 S
C897   C926    1.480   .     S
C897   O985    1.307   .     A
C897   O1003   1.306   .     A
C898   N965    1.380   .     A
C898   O994    1.377   .     S
C898   C115    1.409   1_456 S
C899   O995    1.377   .     S
C899   N1088   1.380   .     S
C900   N965    1.380   .     A
C900   O997    1.377   .     S
C900   C168    1.409   1_456 S
C901   O998    1.377   .     S
C901   N1203   1.380   .     S
C902   N978    1.380   .     A
C902   O999    1.377   .     S
C902   C7      1.409   1_556 S
C903   N979    1.380   .     A
C903   O1000   1.377   .     S
C904   O1001   1.377   .     S
C904   C5      1.409   1_556 S
C904   N1202   1.380   .     S
C905   C932    1.455   .     S
C905   C916    1.397   .     A
C905   C924    1.416   .     A
C906   C923    1.416   .     A
C906   C933    1.455   .     S
C906   C917    1.397   .     A
C907   C914    1.397   .     A
C907   C934    1.451   .     S
C907   C923    1.417   .     A
C908   C925    1.480   .     S
C908   O996    1.307   .     A
C908   O1002   1.306   .     A
C909   C924    1.417   .     A
C909   C915    1.397   .     A
C909   C935    1.451   .     S
C910   C926    1.416   .     A
C910   C921    1.397   .     A
C910   C936    1.455   .     S
C911   C925    1.416   .     A
C911   C937    1.455   .     S
C911   C922    1.397   .     A
C912   C925    1.417   .     A
C912   C938    1.451   .     S
C912   C918    1.397   .     A
C913   C926    1.417   .     A
C913   C920    1.397   .     A
C913   C939    1.451   .     S
C914   C940    1.455   .     S
C914   C928    1.416   .     A
C915   C927    1.416   .     A
C915   C942    1.455   .     S
C916   C943    1.451   .     S
C916   C927    1.417   .     A
C917   C944    1.451   .     S
C917   C928    1.417   .     A
C918   C931    1.416   .     A
C918   C945    1.455   .     S
C919   C924    1.480   .     S
C919   O1007   1.306   .     A
C919   O1004   1.307   .     A
C920   C946    1.455   .     S
C920   C929    1.416   .     A
C921   C947    1.451   .     S
C921   C929    1.417   .     A
C922   C948    1.451   .     S
C922   C931    1.417   .     A
C923   C930    1.480   .     S
C927   C951    1.480   .     S
C928   C950    1.480   .     S
C929   C949    1.480   .     S
C930   O1006   1.306   .     A
C930   O1005   1.307   .     A
C931   C941    1.480   .     S
C932   N980    1.157   .     T
C933   N981    1.157   .     T
C934   N982    1.156   .     T
C935   N983    1.156   .     T
C936   N984    1.157   .     T
C937   N966    1.157   .     T
C938   N967    1.156   .     T
C939   N968    1.156   .     T
C940   N969    1.157   .     T
C941   O988    1.306   .     A
C941   O1008   1.307   .     A
C942   N970    1.157   .     T
C943   N971    1.156   .     T
C944   N972    1.156   .     T
C945   N973    1.157   .     T
C946   N974    1.157   .     T
C947   N975    1.156   .     T
C948   N977    1.156   .     T
C949   O987    1.306   .     A
C949   O986    1.307   .     A
C950   O989    1.307   .     A
C950   O992    1.306   .     A
C951   O990    1.307   .     A
C951   O991    1.306   .     A
C952   O993    1.377   .     S
C952   N1088   1.380   .     S
Cu953  O985    1.991   .     S
Cu953  O1005   1.991   .     S
Cu953  Cu954   2.710   .     S
Cu953  N965    2.036   .     S
Cu953  O1114   1.998   1_455 S
Cu953  O1119   1.998   1_455 S
Cu954  O1003   1.998   .     S
Cu954  N976    2.036   .     S
Cu954  O1006   1.998   .     S
Cu954  O1108   1.991   1_455 S
Cu954  O1116   1.991   1_455 S
Cu955  N978    2.036   .     S
Cu955  O990    1.991   .     S
Cu955  Cu956   2.710   .     S
Cu955  O987    1.998   .     S
Cu955  O1216   1.998   1_545 S
Cu955  O1232   1.991   1_545 S
Cu956  N979    2.036   .     S
Cu956  O986    1.991   .     S
Cu956  O991    1.998   .     S
Cu956  O1212   1.998   1_545 S
Cu956  O1213   1.991   1_545 S
H957   O1105   0.974   1_455 S
H958   O1106   0.974   .     S
H959   O1107   0.974   1_455 S
H960   O1109   0.974   .     S
H961   O998    0.974   .     S
H962   O999    0.974   .     S
H963   O1000   0.974   .     S
H964   O1001   0.974   .     S
N976   C1064   1.380   1_455 S
N976   C1011   1.380   1_455 S
N978   C1128   1.380   1_545 S
N979   C1125   1.380   1_545 S
O988   Cu1180  1.998   .     S
O989   Cu1180  1.991   .     S
O992   Cu1179  1.998   .     S
O993   H1069   0.974   .     S
O994   H1070   0.974   1_455 S
O995   H1071   0.974   .     S
O996   Cu1066  1.991   .     S
O997   H1072   0.974   1_455 S
O1002  Cu1065  1.998   .     S
O1004  Cu1066  1.991   .     S
O1007  Cu1065  1.998   .     S
O1008  Cu1179  1.991   .     S
C1009  C1038   1.480   .     S
C1009  O1097   1.307   .     A
C1009  O1115   1.306   .     A
C1010  N1077   1.380   .     A
C1010  O1106   1.377   .     S
C1010  C3      1.409   1_556 S
C1011  O1107   1.377   .     S
C1011  C450    1.409   1_655 S
C1011  N976    1.380   1_655 S
C1012  N1077   1.380   .     A
C1012  O1109   1.377   .     S
C1012  C56     1.409   1_556 S
C1013  O1110   1.377   .     S
C1013  N1315   1.380   .     S
C1014  N1090   1.380   .     A
C1014  O1111   1.377   .     S
C1014  C119    1.409   1_556 S
C1015  N1091   1.380   .     A
C1015  O1112   1.377   .     S
C1016  O1113   1.377   .     S
C1016  C117    1.409   1_556 S
C1016  N1314   1.380   .     S
C1017  C1044   1.455   .     S
C1017  C1028   1.397   .     A
C1017  C1036   1.416   .     A
C1018  C1035   1.416   .     A
C1018  C1045   1.455   .     S
C1018  C1029   1.397   .     A
C1019  C1026   1.397   .     A
C1019  C1046   1.451   .     S
C1019  C1035   1.417   .     A
C1020  C1037   1.480   .     S
C1020  O1108   1.307   .     A
C1020  O1114   1.306   .     A
C1021  C1036   1.417   .     A
C1021  C1027   1.397   .     A
C1021  C1047   1.451   .     S
C1022  C1038   1.416   .     A
C1022  C1033   1.397   .     A
C1022  C1048   1.455   .     S
C1023  C1037   1.416   .     A
C1023  C1049   1.455   .     S
C1023  C1034   1.397   .     A
C1024  C1037   1.417   .     A
C1024  C1050   1.451   .     S
C1024  C1030   1.397   .     A
C1025  C1038   1.417   .     A
C1025  C1032   1.397   .     A
C1025  C1051   1.451   .     S
C1026  C1052   1.455   .     S
C1026  C1040   1.416   .     A
C1027  C1039   1.416   .     A
C1027  C1054   1.455   .     S
C1028  C1055   1.451   .     S
C1028  C1039   1.417   .     A
C1029  C1056   1.451   .     S
C1029  C1040   1.417   .     A
C1030  C1043   1.416   .     A
C1030  C1057   1.455   .     S
C1031  C1036   1.480   .     S
C1031  O1119   1.306   .     A
C1031  O1116   1.307   .     A
C1032  C1058   1.455   .     S
C1032  C1041   1.416   .     A
C1033  C1059   1.451   .     S
C1033  C1041   1.417   .     A
C1034  C1060   1.451   .     S
C1034  C1043   1.417   .     A
C1035  C1042   1.480   .     S
C1039  C1063   1.480   .     S
C1040  C1062   1.480   .     S
C1041  C1061   1.480   .     S
C1042  O1118   1.306   .     A
C1042  O1117   1.307   .     A
C1043  C1053   1.480   .     S
C1044  N1092   1.157   .     T
C1045  N1093   1.157   .     T
C1046  N1094   1.156   .     T
C1047  N1095   1.156   .     T
C1048  N1096   1.157   .     T
C1049  N1078   1.157   .     T
C1050  N1079   1.156   .     T
C1051  N1080   1.156   .     T
C1052  N1081   1.157   .     T
C1053  O1100   1.306   .     A
C1053  O1120   1.307   .     A
C1054  N1082   1.157   .     T
C1055  N1083   1.156   .     T
C1056  N1084   1.156   .     T
C1057  N1085   1.157   .     T
C1058  N1086   1.157   .     T
C1059  N1087   1.156   .     T
C1060  N1089   1.156   .     T
C1061  O1099   1.306   .     A
C1061  O1098   1.307   .     A
C1062  O1101   1.307   .     A
C1062  O1104   1.306   .     A
C1063  O1102   1.307   .     A
C1063  O1103   1.306   .     A
C1064  O1105   1.377   .     S
C1064  C452    1.409   1_655 S
C1064  N976    1.380   1_655 S
Cu1065 O1097   1.991   .     S
Cu1065 O1117   1.991   .     S
Cu1065 Cu1066  2.710   .     S
Cu1065 N1077   2.036   .     S
Cu1066 O1115   1.998   .     S
Cu1066 N1088   2.036   .     S
Cu1066 O1118   1.998   .     S
Cu1067 N1090   2.036   .     S
Cu1067 O1102   1.991   .     S
Cu1067 Cu1068  2.710   .     S
Cu1067 O1099   1.998   .     S
Cu1067 O1328   1.998   1_545 S
Cu1067 O1344   1.991   1_545 S
Cu1068 N1091   2.036   .     S
Cu1068 O1098   1.991   .     S
Cu1068 O1103   1.998   .     S
Cu1068 O1324   1.998   1_545 S
Cu1068 O1325   1.991   1_545 S
H1070  O994    0.974   1_655 S
H1072  O997    0.974   1_655 S
H1073  O1110   0.974   .     S
H1074  O1111   0.974   .     S
H1075  O1112   0.974   .     S
H1076  O1113   0.974   .     S
N1090  C1240   1.380   1_545 S
N1091  C1237   1.380   1_545 S
O1100  Cu1292  1.998   .     S
O1101  Cu1292  1.991   .     S
O1104  Cu1291  1.998   .     S
O1105  H957    0.974   1_655 S
O1107  H959    0.974   1_655 S
O1108  Cu954   1.991   1_655 S
O1114  Cu953   1.998   1_655 S
O1116  Cu954   1.991   1_655 S
O1119  Cu953   1.998   1_655 S
O1120  Cu1291  1.991   .     S
C1121  C1150   1.480   .     S
C1121  O1209   1.307   .     A
C1121  O1227   1.306   .     A
C1122  N1189   1.380   .     A
C1122  O1218   1.377   .     S
C1122  C339    1.409   1_456 S
C1123  O1219   1.377   .     S
C1123  N1312   1.380   .     S
C1124  N1189   1.380   .     A
C1124  O1221   1.377   .     S
C1124  C392    1.409   1_456 S
C1125  O1222   1.377   .     S
C1125  N979    1.380   1_565 S
C1126  N1202   1.380   .     A
C1126  O1223   1.377   .     S
C1126  C231    1.409   1_556 S
C1127  N1203   1.380   .     A
C1127  O1224   1.377   .     S
C1128  O1225   1.377   .     S
C1128  C229    1.409   1_556 S
C1128  N978    1.380   1_565 S
C1129  C1156   1.455   .     S
C1129  C1140   1.397   .     A
C1129  C1148   1.416   .     A
C1130  C1147   1.416   .     A
C1130  C1157   1.455   .     S
C1130  C1141   1.397   .     A
C1131  C1138   1.397   .     A
C1131  C1158   1.451   .     S
C1131  C1147   1.417   .     A
C1132  C1149   1.480   .     S
C1132  O1220   1.307   .     A
C1132  O1226   1.306   .     A
C1133  C1148   1.417   .     A
C1133  C1139   1.397   .     A
C1133  C1159   1.451   .     S
C1134  C1150   1.416   .     A
C1134  C1145   1.397   .     A
C1134  C1160   1.455   .     S
C1135  C1149   1.416   .     A
C1135  C1161   1.455   .     S
C1135  C1146   1.397   .     A
C1136  C1149   1.417   .     A
C1136  C1162   1.451   .     S
C1136  C1142   1.397   .     A
C1137  C1150   1.417   .     A
C1137  C1144   1.397   .     A
C1137  C1163   1.451   .     S
C1138  C1164   1.455   .     S
C1138  C1152   1.416   .     A
C1139  C1151   1.416   .     A
C1139  C1166   1.455   .     S
C1140  C1167   1.451   .     S
C1140  C1151   1.417   .     A
C1141  C1168   1.451   .     S
C1141  C1152   1.417   .     A
C1142  C1155   1.416   .     A
C1142  C1169   1.455   .     S
C1143  C1148   1.480   .     S
C1143  O1231   1.306   .     A
C1143  O1228   1.307   .     A
C1144  C1170   1.455   .     S
C1144  C1153   1.416   .     A
C1145  C1171   1.451   .     S
C1145  C1153   1.417   .     A
C1146  C1172   1.451   .     S
C1146  C1155   1.417   .     A
C1147  C1154   1.480   .     S
C1151  C1175   1.480   .     S
C1152  C1174   1.480   .     S
C1153  C1173   1.480   .     S
C1154  O1230   1.306   .     A
C1154  O1229   1.307   .     A
C1155  C1165   1.480   .     S
C1156  N1204   1.157   .     T
C1157  N1205   1.157   .     T
C1158  N1206   1.156   .     T
C1159  N1207   1.156   .     T
C1160  N1208   1.157   .     T
C1161  N1190   1.157   .     T
C1162  N1191   1.156   .     T
C1163  N1192   1.156   .     T
C1164  N1193   1.157   .     T
C1165  O1212   1.306   .     A
C1165  O1232   1.307   .     A
C1166  N1194   1.157   .     T
C1167  N1195   1.156   .     T
C1168  N1196   1.156   .     T
C1169  N1197   1.157   .     T
C1170  N1198   1.157   .     T
C1171  N1199   1.156   .     T
C1172  N1201   1.156   .     T
C1173  O1211   1.306   .     A
C1173  O1210   1.307   .     A
C1174  O1213   1.307   .     A
C1174  O1216   1.306   .     A
C1175  O1214   1.307   .     A
C1175  O1215   1.306   .     A
C1176  O1217   1.377   .     S
C1176  N1312   1.380   .     S
Cu1177 O1209   1.991   .     S
Cu1177 O1229   1.991   .     S
Cu1177 Cu1178  2.710   .     S
Cu1177 N1189   2.036   .     S
Cu1177 O1338   1.998   1_455 S
Cu1177 O1343   1.998   1_455 S
Cu1178 O1227   1.998   .     S
Cu1178 N1200   2.036   .     S
Cu1178 O1230   1.998   .     S
Cu1178 O1332   1.991   1_455 S
Cu1178 O1340   1.991   1_455 S
Cu1179 N1202   2.036   .     S
Cu1179 O1214   1.991   .     S
Cu1179 Cu1180  2.710   .     S
Cu1179 O1211   1.998   .     S
Cu1180 N1203   2.036   .     S
Cu1180 O1210   1.991   .     S
Cu1180 O1215   1.998   .     S
H1181  O1329   0.974   1_455 S
H1182  O1330   0.974   .     S
H1183  O1331   0.974   1_455 S
H1184  O1333   0.974   .     S
H1185  O1222   0.974   .     S
H1186  O1223   0.974   .     S
H1187  O1224   0.974   .     S
H1188  O1225   0.974   .     S
N1200  C1288   1.380   1_455 S
N1200  C1235   1.380   1_455 S
O1212  Cu956   1.998   1_565 S
O1213  Cu956   1.991   1_565 S
O1216  Cu955   1.998   1_565 S
O1217  H1293   0.974   .     S
O1218  H1294   0.974   1_455 S
O1219  H1295   0.974   .     S
O1220  Cu1290  1.991   .     S
O1221  H1296   0.974   1_455 S
O1226  Cu1289  1.998   .     S
O1228  Cu1290  1.991   .     S
O1231  Cu1289  1.998   .     S
O1232  Cu955   1.991   1_565 S
C1233  C1262   1.480   .     S
C1233  O1321   1.307   .     A
C1233  O1339   1.306   .     A
C1234  N1301   1.380   .     A
C1234  O1330   1.377   .     S
C1234  C227    1.409   1_556 S
C1235  O1331   1.377   .     S
C1235  C674    1.409   1_655 S
C1235  N1200   1.380   1_655 S
C1236  N1301   1.380   .     A
C1236  O1333   1.377   .     S
C1236  C280    1.409   1_556 S
C1237  O1334   1.377   .     S
C1237  N1091   1.380   1_565 S
C1238  N1314   1.380   .     A
C1238  O1335   1.377   .     S
C1238  C343    1.409   1_556 S
C1239  N1315   1.380   .     A
C1239  O1336   1.377   .     S
C1240  O1337   1.377   .     S
C1240  C341    1.409   1_556 S
C1240  N1090   1.380   1_565 S
C1241  C1268   1.455   .     S
C1241  C1252   1.397   .     A
C1241  C1260   1.416   .     A
C1242  C1259   1.416   .     A
C1242  C1269   1.455   .     S
C1242  C1253   1.397   .     A
C1243  C1250   1.397   .     A
C1243  C1270   1.451   .     S
C1243  C1259   1.417   .     A
C1244  C1261   1.480   .     S
C1244  O1332   1.307   .     A
C1244  O1338   1.306   .     A
C1245  C1260   1.417   .     A
C1245  C1251   1.397   .     A
C1245  C1271   1.451   .     S
C1246  C1262   1.416   .     A
C1246  C1257   1.397   .     A
C1246  C1272   1.455   .     S
C1247  C1261   1.416   .     A
C1247  C1273   1.455   .     S
C1247  C1258   1.397   .     A
C1248  C1261   1.417   .     A
C1248  C1274   1.451   .     S
C1248  C1254   1.397   .     A
C1249  C1262   1.417   .     A
C1249  C1256   1.397   .     A
C1249  C1275   1.451   .     S
C1250  C1276   1.455   .     S
C1250  C1264   1.416   .     A
C1251  C1263   1.416   .     A
C1251  C1278   1.455   .     S
C1252  C1279   1.451   .     S
C1252  C1263   1.417   .     A
C1253  C1280   1.451   .     S
C1253  C1264   1.417   .     A
C1254  C1267   1.416   .     A
C1254  C1281   1.455   .     S
C1255  C1260   1.480   .     S
C1255  O1343   1.306   .     A
C1255  O1340   1.307   .     A
C1256  C1282   1.455   .     S
C1256  C1265   1.416   .     A
C1257  C1283   1.451   .     S
C1257  C1265   1.417   .     A
C1258  C1284   1.451   .     S
C1258  C1267   1.417   .     A
C1259  C1266   1.480   .     S
C1263  C1287   1.480   .     S
C1264  C1286   1.480   .     S
C1265  C1285   1.480   .     S
C1266  O1342   1.306   .     A
C1266  O1341   1.307   .     A
C1267  C1277   1.480   .     S
C1268  N1316   1.157   .     T
C1269  N1317   1.157   .     T
C1270  N1318   1.156   .     T
C1271  N1319   1.156   .     T
C1272  N1320   1.157   .     T
C1273  N1302   1.157   .     T
C1274  N1303   1.156   .     T
C1275  N1304   1.156   .     T
C1276  N1305   1.157   .     T
C1277  O1324   1.306   .     A
C1277  O1344   1.307   .     A
C1278  N1306   1.157   .     T
C1279  N1307   1.156   .     T
C1280  N1308   1.156   .     T
C1281  N1309   1.157   .     T
C1282  N1310   1.157   .     T
C1283  N1311   1.156   .     T
C1284  N1313   1.156   .     T
C1285  O1323   1.306   .     A
C1285  O1322   1.307   .     A
C1286  O1325   1.307   .     A
C1286  O1328   1.306   .     A
C1287  O1326   1.307   .     A
C1287  O1327   1.306   .     A
C1288  O1329   1.377   .     S
C1288  C676    1.409   1_655 S
C1288  N1200   1.380   1_655 S
Cu1289 O1321   1.991   .     S
Cu1289 O1341   1.991   .     S
Cu1289 Cu1290  2.710   .     S
Cu1289 N1301   2.036   .     S
Cu1290 O1339   1.998   .     S
Cu1290 N1312   2.036   .     S
Cu1290 O1342   1.998   .     S
Cu1291 N1314   2.036   .     S
Cu1291 O1326   1.991   .     S
Cu1291 Cu1292  2.710   .     S
Cu1291 O1323   1.998   .     S
Cu1292 N1315   2.036   .     S
Cu1292 O1322   1.991   .     S
Cu1292 O1327   1.998   .     S
H1294  O1218   0.974   1_655 S
H1296  O1221   0.974   1_655 S
H1297  O1334   0.974   .     S
H1298  O1335   0.974   .     S
H1299  O1336   0.974   .     S
H1300  O1337   0.974   .     S
O1324  Cu1068  1.998   1_565 S
O1325  Cu1068  1.991   1_565 S
O1328  Cu1067  1.998   1_565 S
O1329  H1181   0.974   1_655 S
O1331  H1183   0.974   1_655 S
O1332  Cu1178  1.991   1_655 S
O1338  Cu1177  1.998   1_655 S
O1340  Cu1178  1.991   1_655 S
O1343  Cu1177  1.998   1_655 S
O1344  Cu1067  1.991   1_565 S
