data_str_m2_o1_o16_pcu_sym.184
_audit_creation_date              2020-01-03
_audit_creation_method            'Materials Studio'
_symmetry_space_group_name_H-M    'P1'
_symmetry_Int_Tables_number       1
_symmetry_cell_setting            triclinic
loop_
_symmetry_equiv_pos_as_xyz
  x,y,z
_cell_length_a                    28.6320
_cell_length_b                    32.3612
_cell_length_c                    26.7954
_cell_angle_alpha                 89.8718
_cell_angle_beta                  72.5027
_cell_angle_gamma                 90.0851
loop_
_atom_site_label
_atom_site_type_symbol
_atom_site_fract_x
_atom_site_fract_y
_atom_site_fract_z
_atom_site_U_iso_or_equiv
_atom_site_adp_type
_atom_site_occupancy
C1     C     0.16629   0.24587   0.25140   0.00000  Uiso   1.00
C2     C     0.14591   0.16306   0.48937   0.00000  Uiso   1.00
C3     C     0.15514   0.14945   0.43700   0.00000  Uiso   1.00
C4     C     0.18200   0.15676   0.01540   0.00000  Uiso   1.00
C5     C     0.22211   0.12994   0.49252   0.00000  Uiso   1.00
C6     C     0.22646   0.11187   0.44410   0.00000  Uiso   1.00
C7     C     0.19301   0.12032   0.41724   0.00000  Uiso   1.00
C8     C     0.17966   0.17578   0.06363   0.00000  Uiso   1.00
C9     C     0.24697   0.13338   0.07110   0.00000  Uiso   1.00
C10    C     0.12422   0.16376   0.40787   0.00000  Uiso   1.00
C11    C     0.20612   0.31201   0.22191   0.00000  Uiso   1.00
C12    C     0.14039   0.16486   0.35019   0.00000  Uiso   1.00
C13    C     0.20608   0.02137   0.22155   0.00000  Uiso   1.00
C14    C     0.16551   0.04282   0.25272   0.00000  Uiso   1.00
C15    C     0.12518   0.02152   0.28629   0.00000  Uiso   1.00
C16    C     0.12545   0.31170   0.28697   0.00000  Uiso   1.00
C17    C     0.16570   0.29047   0.25363   0.00000  Uiso   1.00
C18    C     0.29997   0.19191   0.28317   0.00000  Uiso   1.00
C19    C     0.01593   0.19144   0.28319   0.00000  Uiso   1.00
C20    C     0.03400   0.14168   0.21678   0.00000  Uiso   1.00
C21    C     0.31774   0.14162   0.21687   0.00000  Uiso   1.00
C22    C     0.16641   0.08744   0.25045   0.00000  Uiso   1.00
C23    C     0.19293   0.16656   0.14998   0.00000  Uiso   1.00
C24    C     0.25559   0.11980   0.02000   0.00000  Uiso   1.00
C25    C     0.20824   0.16020   0.09348   0.00000  Uiso   1.00
C26    C     0.07938   0.18243   0.43416   0.00000  Uiso   1.00
C27    C     0.06599   0.18826   0.48794   0.00000  Uiso   1.00
C28    C     0.09886   0.17871   0.01536   0.00000  Uiso   1.00
Cu29   Cu    0.11978   0.16666   0.25000   0.00000  Uiso   1.00
Cu30   Cu    0.21355   0.16667   0.25000   0.00000  Uiso   1.00
H31    H     0.26997   0.12219   0.09380   0.00000  Uiso   1.00
H32    H     0.23733   0.03772   0.19613   0.00000  Uiso   1.00
H33    H     0.02753   0.21112   0.30978   0.00000  Uiso   1.00
H34    H     0.06003   0.12162   0.19014   0.00000  Uiso   1.00
H35    H     0.30651   0.12154   0.19032   0.00000  Uiso   1.00
H36    H     0.25446   0.08906   0.42782   0.00000  Uiso   1.00
H37    H     0.05490   0.19305   0.41289   0.00000  Uiso   1.00
H38    H     0.08619   0.18192   0.05734   0.00000  Uiso   1.00
H39    H     0.23735   0.29572   0.19663   0.00000  Uiso   1.00
N40    N     0.04931   0.16666   0.24998   0.00000  Uiso   1.00
N41    N     0.28402   0.16669   0.24999   0.00000  Uiso   1.00
O42    O     0.12708   0.22678   0.25000   0.00000  Uiso   1.00
O43    O     0.20627   0.22679   0.25000   0.00000  Uiso   1.00
O44    O     0.10775   0.16665   0.32549   0.00000  Uiso   1.00
O45    O     0.18694   0.16666   0.32549   0.00000  Uiso   1.00
O46    O     0.12706   0.10654   0.24999   0.00000  Uiso   1.00
O47    O     0.20625   0.10655   0.24999   0.00000  Uiso   1.00
O48    O     0.14640   0.16667   0.17451   0.00000  Uiso   1.00
O49    O     0.22559   0.16668   0.17451   0.00000  Uiso   1.00
Cl50   Cl    0.07566   0.04837   0.32985   0.00000  Uiso   1.00
Cl51   Cl    0.07694   0.28479   0.33213   0.00000  Uiso   1.00
Br52   Br    0.25818   0.22990   0.33095   0.00000  Uiso   1.00
Cl53   Cl    0.30697   0.08783   0.49372   0.00000  Uiso   1.00
Br54   Br    0.14952   0.22923   0.08411   0.00000  Uiso   1.00
Br55   Br    0.00387   0.21194   0.02363   0.00000  Uiso   1.00
Br56   Br    0.19235   0.08047   0.36474   0.00000  Uiso   1.00
C57    C     0.49963   0.24587   0.25140   0.00000  Uiso   1.00
C58    C     0.47925   0.16306   0.48937   0.00000  Uiso   1.00
C59    C     0.48847   0.14945   0.43700   0.00000  Uiso   1.00
C60    C     0.51533   0.15676   0.01540   0.00000  Uiso   1.00
C61    C     0.55545   0.12994   0.49252   0.00000  Uiso   1.00
C62    C     0.55979   0.11187   0.44410   0.00000  Uiso   1.00
C63    C     0.52634   0.12032   0.41724   0.00000  Uiso   1.00
C64    C     0.51300   0.17578   0.06363   0.00000  Uiso   1.00
C65    C     0.58030   0.13338   0.07110   0.00000  Uiso   1.00
C66    C     0.45755   0.16376   0.40787   0.00000  Uiso   1.00
C67    C     0.53946   0.31201   0.22191   0.00000  Uiso   1.00
C68    C     0.47373   0.16486   0.35019   0.00000  Uiso   1.00
C69    C     0.53941   0.02137   0.22155   0.00000  Uiso   1.00
C70    C     0.49884   0.04282   0.25272   0.00000  Uiso   1.00
C71    C     0.45851   0.02152   0.28629   0.00000  Uiso   1.00
C72    C     0.45879   0.31170   0.28697   0.00000  Uiso   1.00
C73    C     0.49903   0.29047   0.25363   0.00000  Uiso   1.00
C74    C     0.63330   0.19191   0.28317   0.00000  Uiso   1.00
C75    C     0.34927   0.19144   0.28319   0.00000  Uiso   1.00
C76    C     0.36733   0.14168   0.21678   0.00000  Uiso   1.00
C77    C     0.65108   0.14162   0.21687   0.00000  Uiso   1.00
C78    C     0.49975   0.08744   0.25045   0.00000  Uiso   1.00
C79    C     0.52626   0.16656   0.14998   0.00000  Uiso   1.00
C80    C     0.58893   0.11980   0.02000   0.00000  Uiso   1.00
C81    C     0.54158   0.16020   0.09348   0.00000  Uiso   1.00
C82    C     0.41271   0.18243   0.43416   0.00000  Uiso   1.00
C83    C     0.39933   0.18826   0.48794   0.00000  Uiso   1.00
C84    C     0.43220   0.17871   0.01536   0.00000  Uiso   1.00
Cu85   Cu    0.45311   0.16666   0.25000   0.00000  Uiso   1.00
Cu86   Cu    0.54689   0.16667   0.25000   0.00000  Uiso   1.00
H87    H     0.60330   0.12219   0.09380   0.00000  Uiso   1.00
H88    H     0.57066   0.03772   0.19613   0.00000  Uiso   1.00
H89    H     0.36087   0.21112   0.30978   0.00000  Uiso   1.00
H90    H     0.39336   0.12162   0.19014   0.00000  Uiso   1.00
H91    H     0.63985   0.12154   0.19032   0.00000  Uiso   1.00
H92    H     0.58779   0.08906   0.42782   0.00000  Uiso   1.00
H93    H     0.38823   0.19305   0.41289   0.00000  Uiso   1.00
H94    H     0.41953   0.18192   0.05734   0.00000  Uiso   1.00
H95    H     0.57068   0.29572   0.19663   0.00000  Uiso   1.00
N96    N     0.38265   0.16666   0.24998   0.00000  Uiso   1.00
N97    N     0.61735   0.16669   0.24999   0.00000  Uiso   1.00
O98    O     0.46042   0.22678   0.25000   0.00000  Uiso   1.00
O99    O     0.53961   0.22679   0.25000   0.00000  Uiso   1.00
O100   O     0.44108   0.16665   0.32549   0.00000  Uiso   1.00
O101   O     0.52027   0.16666   0.32549   0.00000  Uiso   1.00
O102   O     0.46039   0.10654   0.24999   0.00000  Uiso   1.00
O103   O     0.53958   0.10655   0.24999   0.00000  Uiso   1.00
O104   O     0.47973   0.16667   0.17451   0.00000  Uiso   1.00
O105   O     0.55892   0.16668   0.17451   0.00000  Uiso   1.00
Cl106  Cl    0.40900   0.04837   0.32985   0.00000  Uiso   1.00
Cl107  Cl    0.41028   0.28479   0.33213   0.00000  Uiso   1.00
Br108  Br    0.59152   0.22990   0.33095   0.00000  Uiso   1.00
Cl109  Cl    0.64031   0.08783   0.49372   0.00000  Uiso   1.00
Br110  Br    0.48285   0.22923   0.08411   0.00000  Uiso   1.00
Br111  Br    0.33720   0.21194   0.02363   0.00000  Uiso   1.00
Br112  Br    0.52568   0.08047   0.36474   0.00000  Uiso   1.00
C113   C     0.83296   0.24587   0.25140   0.00000  Uiso   1.00
C114   C     0.81258   0.16306   0.48937   0.00000  Uiso   1.00
C115   C     0.82180   0.14945   0.43700   0.00000  Uiso   1.00
C116   C     0.84867   0.15676   0.01540   0.00000  Uiso   1.00
C117   C     0.88878   0.12994   0.49252   0.00000  Uiso   1.00
C118   C     0.89312   0.11187   0.44410   0.00000  Uiso   1.00
C119   C     0.85967   0.12032   0.41724   0.00000  Uiso   1.00
C120   C     0.84633   0.17578   0.06363   0.00000  Uiso   1.00
C121   C     0.91364   0.13338   0.07110   0.00000  Uiso   1.00
C122   C     0.79088   0.16376   0.40787   0.00000  Uiso   1.00
C123   C     0.87279   0.31201   0.22191   0.00000  Uiso   1.00
C124   C     0.80706   0.16486   0.35019   0.00000  Uiso   1.00
C125   C     0.87274   0.02137   0.22155   0.00000  Uiso   1.00
C126   C     0.83217   0.04282   0.25272   0.00000  Uiso   1.00
C127   C     0.79184   0.02152   0.28629   0.00000  Uiso   1.00
C128   C     0.79212   0.31170   0.28697   0.00000  Uiso   1.00
C129   C     0.83236   0.29047   0.25363   0.00000  Uiso   1.00
C130   C     0.96664   0.19191   0.28317   0.00000  Uiso   1.00
C131   C     0.68260   0.19144   0.28319   0.00000  Uiso   1.00
C132   C     0.70066   0.14168   0.21678   0.00000  Uiso   1.00
C133   C     0.98441   0.14162   0.21687   0.00000  Uiso   1.00
C134   C     0.83308   0.08744   0.25045   0.00000  Uiso   1.00
C135   C     0.85960   0.16656   0.14998   0.00000  Uiso   1.00
C136   C     0.92226   0.11980   0.02000   0.00000  Uiso   1.00
C137   C     0.87491   0.16020   0.09348   0.00000  Uiso   1.00
C138   C     0.74604   0.18243   0.43416   0.00000  Uiso   1.00
C139   C     0.73266   0.18826   0.48794   0.00000  Uiso   1.00
C140   C     0.76553   0.17871   0.01536   0.00000  Uiso   1.00
Cu141  Cu    0.78645   0.16666   0.25000   0.00000  Uiso   1.00
Cu142  Cu    0.88022   0.16667   0.25000   0.00000  Uiso   1.00
H143   H     0.93663   0.12219   0.09380   0.00000  Uiso   1.00
H144   H     0.90399   0.03772   0.19613   0.00000  Uiso   1.00
H145   H     0.69420   0.21112   0.30978   0.00000  Uiso   1.00
H146   H     0.72669   0.12162   0.19014   0.00000  Uiso   1.00
H147   H     0.97318   0.12154   0.19032   0.00000  Uiso   1.00
H148   H     0.92112   0.08906   0.42782   0.00000  Uiso   1.00
H149   H     0.72157   0.19305   0.41289   0.00000  Uiso   1.00
H150   H     0.75286   0.18192   0.05734   0.00000  Uiso   1.00
H151   H     0.90402   0.29572   0.19663   0.00000  Uiso   1.00
N152   N     0.71598   0.16666   0.24998   0.00000  Uiso   1.00
N153   N     0.95069   0.16669   0.24999   0.00000  Uiso   1.00
O154   O     0.79375   0.22678   0.25000   0.00000  Uiso   1.00
O155   O     0.87294   0.22679   0.25000   0.00000  Uiso   1.00
O156   O     0.77441   0.16665   0.32549   0.00000  Uiso   1.00
O157   O     0.85360   0.16666   0.32549   0.00000  Uiso   1.00
O158   O     0.79373   0.10654   0.24999   0.00000  Uiso   1.00
O159   O     0.87292   0.10655   0.24999   0.00000  Uiso   1.00
O160   O     0.81306   0.16667   0.17451   0.00000  Uiso   1.00
O161   O     0.89225   0.16668   0.17451   0.00000  Uiso   1.00
Cl162  Cl    0.74233   0.04837   0.32985   0.00000  Uiso   1.00
Cl163  Cl    0.74361   0.28479   0.33213   0.00000  Uiso   1.00
Br164  Br    0.92485   0.22990   0.33095   0.00000  Uiso   1.00
Cl165  Cl    0.97364   0.08783   0.49372   0.00000  Uiso   1.00
Br166  Br    0.81619   0.22923   0.08411   0.00000  Uiso   1.00
Br167  Br    0.67054   0.21194   0.02363   0.00000  Uiso   1.00
Br168  Br    0.85901   0.08047   0.36474   0.00000  Uiso   1.00
C169   C     0.16629   0.57920   0.25140   0.00000  Uiso   1.00
C170   C     0.14591   0.49639   0.48937   0.00000  Uiso   1.00
C171   C     0.15514   0.48279   0.43700   0.00000  Uiso   1.00
C172   C     0.18200   0.49009   0.01540   0.00000  Uiso   1.00
C173   C     0.22211   0.46327   0.49252   0.00000  Uiso   1.00
C174   C     0.22646   0.44520   0.44410   0.00000  Uiso   1.00
C175   C     0.19301   0.45366   0.41724   0.00000  Uiso   1.00
C176   C     0.17966   0.50912   0.06363   0.00000  Uiso   1.00
C177   C     0.24697   0.46671   0.07110   0.00000  Uiso   1.00
C178   C     0.12422   0.49710   0.40787   0.00000  Uiso   1.00
C179   C     0.20612   0.64534   0.22191   0.00000  Uiso   1.00
C180   C     0.14039   0.49820   0.35019   0.00000  Uiso   1.00
C181   C     0.20608   0.35470   0.22155   0.00000  Uiso   1.00
C182   C     0.16551   0.37615   0.25272   0.00000  Uiso   1.00
C183   C     0.12518   0.35486   0.28629   0.00000  Uiso   1.00
C184   C     0.12545   0.64504   0.28697   0.00000  Uiso   1.00
C185   C     0.16570   0.62381   0.25363   0.00000  Uiso   1.00
C186   C     0.29997   0.52525   0.28317   0.00000  Uiso   1.00
C187   C     0.01593   0.52477   0.28319   0.00000  Uiso   1.00
C188   C     0.03400   0.47501   0.21678   0.00000  Uiso   1.00
C189   C     0.31774   0.47495   0.21687   0.00000  Uiso   1.00
C190   C     0.16641   0.42077   0.25045   0.00000  Uiso   1.00
C191   C     0.19293   0.49989   0.14998   0.00000  Uiso   1.00
C192   C     0.25559   0.45314   0.02000   0.00000  Uiso   1.00
C193   C     0.20824   0.49353   0.09348   0.00000  Uiso   1.00
C194   C     0.07938   0.51577   0.43416   0.00000  Uiso   1.00
C195   C     0.06599   0.52159   0.48794   0.00000  Uiso   1.00
C196   C     0.09886   0.51204   0.01536   0.00000  Uiso   1.00
Cu197  Cu    0.11978   0.49999   0.25000   0.00000  Uiso   1.00
Cu198  Cu    0.21355   0.50001   0.25000   0.00000  Uiso   1.00
H199   H     0.26997   0.45552   0.09380   0.00000  Uiso   1.00
H200   H     0.23733   0.37105   0.19613   0.00000  Uiso   1.00
H201   H     0.02753   0.54445   0.30978   0.00000  Uiso   1.00
H202   H     0.06003   0.45495   0.19014   0.00000  Uiso   1.00
H203   H     0.30651   0.45487   0.19032   0.00000  Uiso   1.00
H204   H     0.25446   0.42239   0.42782   0.00000  Uiso   1.00
H205   H     0.05490   0.52638   0.41289   0.00000  Uiso   1.00
H206   H     0.08619   0.51526   0.05734   0.00000  Uiso   1.00
H207   H     0.23735   0.62905   0.19663   0.00000  Uiso   1.00
N208   N     0.04931   0.49999   0.24998   0.00000  Uiso   1.00
N209   N     0.28402   0.50002   0.24999   0.00000  Uiso   1.00
O210   O     0.12708   0.56011   0.25000   0.00000  Uiso   1.00
O211   O     0.20627   0.56012   0.25000   0.00000  Uiso   1.00
O212   O     0.10775   0.49998   0.32549   0.00000  Uiso   1.00
O213   O     0.18694   0.49999   0.32549   0.00000  Uiso   1.00
O214   O     0.12706   0.43988   0.24999   0.00000  Uiso   1.00
O215   O     0.20625   0.43989   0.24999   0.00000  Uiso   1.00
O216   O     0.14640   0.50001   0.17451   0.00000  Uiso   1.00
O217   O     0.22559   0.50002   0.17451   0.00000  Uiso   1.00
Cl218  Cl    0.07566   0.38170   0.32985   0.00000  Uiso   1.00
Cl219  Cl    0.07694   0.61813   0.33213   0.00000  Uiso   1.00
Br220  Br    0.25818   0.56323   0.33095   0.00000  Uiso   1.00
Cl221  Cl    0.30697   0.42116   0.49372   0.00000  Uiso   1.00
Br222  Br    0.14952   0.56257   0.08411   0.00000  Uiso   1.00
Br223  Br    0.00387   0.54528   0.02363   0.00000  Uiso   1.00
Br224  Br    0.19235   0.41380   0.36474   0.00000  Uiso   1.00
C225   C     0.49963   0.57920   0.25140   0.00000  Uiso   1.00
C226   C     0.47925   0.49639   0.48937   0.00000  Uiso   1.00
C227   C     0.48847   0.48279   0.43700   0.00000  Uiso   1.00
C228   C     0.51533   0.49009   0.01540   0.00000  Uiso   1.00
C229   C     0.55545   0.46327   0.49252   0.00000  Uiso   1.00
C230   C     0.55979   0.44520   0.44410   0.00000  Uiso   1.00
C231   C     0.52634   0.45366   0.41724   0.00000  Uiso   1.00
C232   C     0.51300   0.50912   0.06363   0.00000  Uiso   1.00
C233   C     0.58030   0.46671   0.07110   0.00000  Uiso   1.00
C234   C     0.45755   0.49710   0.40787   0.00000  Uiso   1.00
C235   C     0.53946   0.64534   0.22191   0.00000  Uiso   1.00
C236   C     0.47373   0.49820   0.35019   0.00000  Uiso   1.00
C237   C     0.53941   0.35470   0.22155   0.00000  Uiso   1.00
C238   C     0.49884   0.37615   0.25272   0.00000  Uiso   1.00
C239   C     0.45851   0.35486   0.28629   0.00000  Uiso   1.00
C240   C     0.45879   0.64504   0.28697   0.00000  Uiso   1.00
C241   C     0.49903   0.62381   0.25363   0.00000  Uiso   1.00
C242   C     0.63330   0.52525   0.28317   0.00000  Uiso   1.00
C243   C     0.34927   0.52477   0.28319   0.00000  Uiso   1.00
C244   C     0.36733   0.47501   0.21678   0.00000  Uiso   1.00
C245   C     0.65108   0.47495   0.21687   0.00000  Uiso   1.00
C246   C     0.49975   0.42077   0.25045   0.00000  Uiso   1.00
C247   C     0.52626   0.49989   0.14998   0.00000  Uiso   1.00
C248   C     0.58893   0.45314   0.02000   0.00000  Uiso   1.00
C249   C     0.54158   0.49353   0.09348   0.00000  Uiso   1.00
C250   C     0.41271   0.51577   0.43416   0.00000  Uiso   1.00
C251   C     0.39933   0.52159   0.48794   0.00000  Uiso   1.00
C252   C     0.43220   0.51204   0.01536   0.00000  Uiso   1.00
Cu253  Cu    0.45311   0.49999   0.25000   0.00000  Uiso   1.00
Cu254  Cu    0.54689   0.50001   0.25000   0.00000  Uiso   1.00
H255   H     0.60330   0.45552   0.09380   0.00000  Uiso   1.00
H256   H     0.57066   0.37105   0.19613   0.00000  Uiso   1.00
H257   H     0.36087   0.54445   0.30978   0.00000  Uiso   1.00
H258   H     0.39336   0.45495   0.19014   0.00000  Uiso   1.00
H259   H     0.63985   0.45487   0.19032   0.00000  Uiso   1.00
H260   H     0.58779   0.42239   0.42782   0.00000  Uiso   1.00
H261   H     0.38823   0.52638   0.41289   0.00000  Uiso   1.00
H262   H     0.41953   0.51526   0.05734   0.00000  Uiso   1.00
H263   H     0.57068   0.62905   0.19663   0.00000  Uiso   1.00
N264   N     0.38265   0.49999   0.24998   0.00000  Uiso   1.00
N265   N     0.61735   0.50002   0.24999   0.00000  Uiso   1.00
O266   O     0.46042   0.56011   0.25000   0.00000  Uiso   1.00
O267   O     0.53961   0.56012   0.25000   0.00000  Uiso   1.00
O268   O     0.44108   0.49998   0.32549   0.00000  Uiso   1.00
O269   O     0.52027   0.49999   0.32549   0.00000  Uiso   1.00
O270   O     0.46039   0.43988   0.24999   0.00000  Uiso   1.00
O271   O     0.53958   0.43989   0.24999   0.00000  Uiso   1.00
O272   O     0.47973   0.50001   0.17451   0.00000  Uiso   1.00
O273   O     0.55892   0.50002   0.17451   0.00000  Uiso   1.00
Cl274  Cl    0.40900   0.38170   0.32985   0.00000  Uiso   1.00
Cl275  Cl    0.41028   0.61813   0.33213   0.00000  Uiso   1.00
Br276  Br    0.59152   0.56323   0.33095   0.00000  Uiso   1.00
Cl277  Cl    0.64031   0.42116   0.49372   0.00000  Uiso   1.00
Br278  Br    0.48285   0.56257   0.08411   0.00000  Uiso   1.00
Br279  Br    0.33720   0.54528   0.02363   0.00000  Uiso   1.00
Br280  Br    0.52568   0.41380   0.36474   0.00000  Uiso   1.00
C281   C     0.83296   0.57920   0.25140   0.00000  Uiso   1.00
C282   C     0.81258   0.49639   0.48937   0.00000  Uiso   1.00
C283   C     0.82180   0.48279   0.43700   0.00000  Uiso   1.00
C284   C     0.84867   0.49009   0.01540   0.00000  Uiso   1.00
C285   C     0.88878   0.46327   0.49252   0.00000  Uiso   1.00
C286   C     0.89312   0.44520   0.44410   0.00000  Uiso   1.00
C287   C     0.85967   0.45366   0.41724   0.00000  Uiso   1.00
C288   C     0.84633   0.50912   0.06363   0.00000  Uiso   1.00
C289   C     0.91364   0.46671   0.07110   0.00000  Uiso   1.00
C290   C     0.79088   0.49710   0.40787   0.00000  Uiso   1.00
C291   C     0.87279   0.64534   0.22191   0.00000  Uiso   1.00
C292   C     0.80706   0.49820   0.35019   0.00000  Uiso   1.00
C293   C     0.87274   0.35470   0.22155   0.00000  Uiso   1.00
C294   C     0.83217   0.37615   0.25272   0.00000  Uiso   1.00
C295   C     0.79184   0.35486   0.28629   0.00000  Uiso   1.00
C296   C     0.79212   0.64504   0.28697   0.00000  Uiso   1.00
C297   C     0.83236   0.62381   0.25363   0.00000  Uiso   1.00
C298   C     0.96664   0.52525   0.28317   0.00000  Uiso   1.00
C299   C     0.68260   0.52477   0.28319   0.00000  Uiso   1.00
C300   C     0.70066   0.47501   0.21678   0.00000  Uiso   1.00
C301   C     0.98441   0.47495   0.21687   0.00000  Uiso   1.00
C302   C     0.83308   0.42077   0.25045   0.00000  Uiso   1.00
C303   C     0.85960   0.49989   0.14998   0.00000  Uiso   1.00
C304   C     0.92226   0.45314   0.02000   0.00000  Uiso   1.00
C305   C     0.87491   0.49353   0.09348   0.00000  Uiso   1.00
C306   C     0.74604   0.51577   0.43416   0.00000  Uiso   1.00
C307   C     0.73266   0.52159   0.48794   0.00000  Uiso   1.00
C308   C     0.76553   0.51204   0.01536   0.00000  Uiso   1.00
Cu309  Cu    0.78645   0.49999   0.25000   0.00000  Uiso   1.00
Cu310  Cu    0.88022   0.50001   0.25000   0.00000  Uiso   1.00
H311   H     0.93663   0.45552   0.09380   0.00000  Uiso   1.00
H312   H     0.90399   0.37105   0.19613   0.00000  Uiso   1.00
H313   H     0.69420   0.54445   0.30978   0.00000  Uiso   1.00
H314   H     0.72669   0.45495   0.19014   0.00000  Uiso   1.00
H315   H     0.97318   0.45487   0.19032   0.00000  Uiso   1.00
H316   H     0.92112   0.42239   0.42782   0.00000  Uiso   1.00
H317   H     0.72157   0.52638   0.41289   0.00000  Uiso   1.00
H318   H     0.75286   0.51526   0.05734   0.00000  Uiso   1.00
H319   H     0.90402   0.62905   0.19663   0.00000  Uiso   1.00
N320   N     0.71598   0.49999   0.24998   0.00000  Uiso   1.00
N321   N     0.95069   0.50002   0.24999   0.00000  Uiso   1.00
O322   O     0.79375   0.56011   0.25000   0.00000  Uiso   1.00
O323   O     0.87294   0.56012   0.25000   0.00000  Uiso   1.00
O324   O     0.77441   0.49998   0.32549   0.00000  Uiso   1.00
O325   O     0.85360   0.49999   0.32549   0.00000  Uiso   1.00
O326   O     0.79373   0.43988   0.24999   0.00000  Uiso   1.00
O327   O     0.87292   0.43989   0.24999   0.00000  Uiso   1.00
O328   O     0.81306   0.50001   0.17451   0.00000  Uiso   1.00
O329   O     0.89225   0.50002   0.17451   0.00000  Uiso   1.00
Cl330  Cl    0.74233   0.38170   0.32985   0.00000  Uiso   1.00
Cl331  Cl    0.74361   0.61813   0.33213   0.00000  Uiso   1.00
Br332  Br    0.92485   0.56323   0.33095   0.00000  Uiso   1.00
Cl333  Cl    0.97364   0.42116   0.49372   0.00000  Uiso   1.00
Br334  Br    0.81619   0.56257   0.08411   0.00000  Uiso   1.00
Br335  Br    0.67054   0.54528   0.02363   0.00000  Uiso   1.00
Br336  Br    0.85901   0.41380   0.36474   0.00000  Uiso   1.00
C337   C     0.16629   0.91254   0.25140   0.00000  Uiso   1.00
C338   C     0.14591   0.82972   0.48937   0.00000  Uiso   1.00
C339   C     0.15514   0.81612   0.43700   0.00000  Uiso   1.00
C340   C     0.18200   0.82342   0.01540   0.00000  Uiso   1.00
C341   C     0.22211   0.79661   0.49252   0.00000  Uiso   1.00
C342   C     0.22646   0.77854   0.44410   0.00000  Uiso   1.00
C343   C     0.19301   0.78699   0.41724   0.00000  Uiso   1.00
C344   C     0.17966   0.84245   0.06363   0.00000  Uiso   1.00
C345   C     0.24697   0.80004   0.07110   0.00000  Uiso   1.00
C346   C     0.12422   0.83043   0.40787   0.00000  Uiso   1.00
C347   C     0.20612   0.97867   0.22191   0.00000  Uiso   1.00
C348   C     0.14039   0.83153   0.35019   0.00000  Uiso   1.00
C349   C     0.20608   0.68803   0.22155   0.00000  Uiso   1.00
C350   C     0.16551   0.70948   0.25272   0.00000  Uiso   1.00
C351   C     0.12518   0.68819   0.28629   0.00000  Uiso   1.00
C352   C     0.12545   0.97837   0.28697   0.00000  Uiso   1.00
C353   C     0.16570   0.95714   0.25363   0.00000  Uiso   1.00
C354   C     0.29997   0.85858   0.28317   0.00000  Uiso   1.00
C355   C     0.01593   0.85811   0.28319   0.00000  Uiso   1.00
C356   C     0.03400   0.80835   0.21678   0.00000  Uiso   1.00
C357   C     0.31774   0.80828   0.21687   0.00000  Uiso   1.00
C358   C     0.16641   0.75410   0.25045   0.00000  Uiso   1.00
C359   C     0.19293   0.83323   0.14998   0.00000  Uiso   1.00
C360   C     0.25559   0.78647   0.02000   0.00000  Uiso   1.00
C361   C     0.20824   0.82687   0.09348   0.00000  Uiso   1.00
C362   C     0.07938   0.84910   0.43416   0.00000  Uiso   1.00
C363   C     0.06599   0.85493   0.48794   0.00000  Uiso   1.00
C364   C     0.09886   0.84537   0.01536   0.00000  Uiso   1.00
Cu365  Cu    0.11978   0.83333   0.25000   0.00000  Uiso   1.00
Cu366  Cu    0.21355   0.83334   0.25000   0.00000  Uiso   1.00
H367   H     0.26997   0.78886   0.09380   0.00000  Uiso   1.00
H368   H     0.23733   0.70438   0.19613   0.00000  Uiso   1.00
H369   H     0.02753   0.87779   0.30978   0.00000  Uiso   1.00
H370   H     0.06003   0.78828   0.19014   0.00000  Uiso   1.00
H371   H     0.30651   0.78821   0.19032   0.00000  Uiso   1.00
H372   H     0.25446   0.75573   0.42782   0.00000  Uiso   1.00
H373   H     0.05490   0.85972   0.41289   0.00000  Uiso   1.00
H374   H     0.08619   0.84859   0.05734   0.00000  Uiso   1.00
H375   H     0.23735   0.96239   0.19663   0.00000  Uiso   1.00
N376   N     0.04931   0.83332   0.24998   0.00000  Uiso   1.00
N377   N     0.28402   0.83335   0.24999   0.00000  Uiso   1.00
O378   O     0.12708   0.89345   0.25000   0.00000  Uiso   1.00
O379   O     0.20627   0.89346   0.25000   0.00000  Uiso   1.00
O380   O     0.10775   0.83332   0.32549   0.00000  Uiso   1.00
O381   O     0.18694   0.83333   0.32549   0.00000  Uiso   1.00
O382   O     0.12706   0.77321   0.24999   0.00000  Uiso   1.00
O383   O     0.20625   0.77322   0.24999   0.00000  Uiso   1.00
O384   O     0.14640   0.83334   0.17451   0.00000  Uiso   1.00
O385   O     0.22559   0.83335   0.17451   0.00000  Uiso   1.00
Cl386  Cl    0.07566   0.71504   0.32985   0.00000  Uiso   1.00
Cl387  Cl    0.07694   0.95146   0.33213   0.00000  Uiso   1.00
Br388  Br    0.25818   0.89657   0.33095   0.00000  Uiso   1.00
Cl389  Cl    0.30697   0.75450   0.49372   0.00000  Uiso   1.00
Br390  Br    0.14952   0.89590   0.08411   0.00000  Uiso   1.00
Br391  Br    0.00387   0.87861   0.02363   0.00000  Uiso   1.00
Br392  Br    0.19235   0.74714   0.36474   0.00000  Uiso   1.00
C393   C     0.49963   0.91254   0.25140   0.00000  Uiso   1.00
C394   C     0.47925   0.82972   0.48937   0.00000  Uiso   1.00
C395   C     0.48847   0.81612   0.43700   0.00000  Uiso   1.00
C396   C     0.51533   0.82342   0.01540   0.00000  Uiso   1.00
C397   C     0.55545   0.79661   0.49252   0.00000  Uiso   1.00
C398   C     0.55979   0.77854   0.44410   0.00000  Uiso   1.00
C399   C     0.52634   0.78699   0.41724   0.00000  Uiso   1.00
C400   C     0.51300   0.84245   0.06363   0.00000  Uiso   1.00
C401   C     0.58030   0.80004   0.07110   0.00000  Uiso   1.00
C402   C     0.45755   0.83043   0.40787   0.00000  Uiso   1.00
C403   C     0.53946   0.97867   0.22191   0.00000  Uiso   1.00
C404   C     0.47373   0.83153   0.35019   0.00000  Uiso   1.00
C405   C     0.53941   0.68803   0.22155   0.00000  Uiso   1.00
C406   C     0.49884   0.70948   0.25272   0.00000  Uiso   1.00
C407   C     0.45851   0.68819   0.28629   0.00000  Uiso   1.00
C408   C     0.45879   0.97837   0.28697   0.00000  Uiso   1.00
C409   C     0.49903   0.95714   0.25363   0.00000  Uiso   1.00
C410   C     0.63330   0.85858   0.28317   0.00000  Uiso   1.00
C411   C     0.34927   0.85811   0.28319   0.00000  Uiso   1.00
C412   C     0.36733   0.80835   0.21678   0.00000  Uiso   1.00
C413   C     0.65108   0.80828   0.21687   0.00000  Uiso   1.00
C414   C     0.49975   0.75410   0.25045   0.00000  Uiso   1.00
C415   C     0.52626   0.83323   0.14998   0.00000  Uiso   1.00
C416   C     0.58893   0.78647   0.02000   0.00000  Uiso   1.00
C417   C     0.54158   0.82687   0.09348   0.00000  Uiso   1.00
C418   C     0.41271   0.84910   0.43416   0.00000  Uiso   1.00
C419   C     0.39933   0.85493   0.48794   0.00000  Uiso   1.00
C420   C     0.43220   0.84537   0.01536   0.00000  Uiso   1.00
Cu421  Cu    0.45311   0.83333   0.25000   0.00000  Uiso   1.00
Cu422  Cu    0.54689   0.83334   0.25000   0.00000  Uiso   1.00
H423   H     0.60330   0.78886   0.09380   0.00000  Uiso   1.00
H424   H     0.57066   0.70438   0.19613   0.00000  Uiso   1.00
H425   H     0.36087   0.87779   0.30978   0.00000  Uiso   1.00
H426   H     0.39336   0.78828   0.19014   0.00000  Uiso   1.00
H427   H     0.63985   0.78821   0.19032   0.00000  Uiso   1.00
H428   H     0.58779   0.75573   0.42782   0.00000  Uiso   1.00
H429   H     0.38823   0.85972   0.41289   0.00000  Uiso   1.00
H430   H     0.41953   0.84859   0.05734   0.00000  Uiso   1.00
H431   H     0.57068   0.96239   0.19663   0.00000  Uiso   1.00
N432   N     0.38265   0.83332   0.24998   0.00000  Uiso   1.00
N433   N     0.61735   0.83335   0.24999   0.00000  Uiso   1.00
O434   O     0.46042   0.89345   0.25000   0.00000  Uiso   1.00
O435   O     0.53961   0.89346   0.25000   0.00000  Uiso   1.00
O436   O     0.44108   0.83332   0.32549   0.00000  Uiso   1.00
O437   O     0.52027   0.83333   0.32549   0.00000  Uiso   1.00
O438   O     0.46039   0.77321   0.24999   0.00000  Uiso   1.00
O439   O     0.53958   0.77322   0.24999   0.00000  Uiso   1.00
O440   O     0.47973   0.83334   0.17451   0.00000  Uiso   1.00
O441   O     0.55892   0.83335   0.17451   0.00000  Uiso   1.00
Cl442  Cl    0.40900   0.71504   0.32985   0.00000  Uiso   1.00
Cl443  Cl    0.41028   0.95146   0.33213   0.00000  Uiso   1.00
Br444  Br    0.59152   0.89657   0.33095   0.00000  Uiso   1.00
Cl445  Cl    0.64031   0.75450   0.49372   0.00000  Uiso   1.00
Br446  Br    0.48285   0.89590   0.08411   0.00000  Uiso   1.00
Br447  Br    0.33720   0.87861   0.02363   0.00000  Uiso   1.00
Br448  Br    0.52568   0.74714   0.36474   0.00000  Uiso   1.00
C449   C     0.83296   0.91254   0.25140   0.00000  Uiso   1.00
C450   C     0.81258   0.82972   0.48937   0.00000  Uiso   1.00
C451   C     0.82180   0.81612   0.43700   0.00000  Uiso   1.00
C452   C     0.84867   0.82342   0.01540   0.00000  Uiso   1.00
C453   C     0.88878   0.79661   0.49252   0.00000  Uiso   1.00
C454   C     0.89312   0.77854   0.44410   0.00000  Uiso   1.00
C455   C     0.85967   0.78699   0.41724   0.00000  Uiso   1.00
C456   C     0.84633   0.84245   0.06363   0.00000  Uiso   1.00
C457   C     0.91364   0.80004   0.07110   0.00000  Uiso   1.00
C458   C     0.79088   0.83043   0.40787   0.00000  Uiso   1.00
C459   C     0.87279   0.97867   0.22191   0.00000  Uiso   1.00
C460   C     0.80706   0.83153   0.35019   0.00000  Uiso   1.00
C461   C     0.87274   0.68803   0.22155   0.00000  Uiso   1.00
C462   C     0.83217   0.70948   0.25272   0.00000  Uiso   1.00
C463   C     0.79184   0.68819   0.28629   0.00000  Uiso   1.00
C464   C     0.79212   0.97837   0.28697   0.00000  Uiso   1.00
C465   C     0.83236   0.95714   0.25363   0.00000  Uiso   1.00
C466   C     0.96664   0.85858   0.28317   0.00000  Uiso   1.00
C467   C     0.68260   0.85811   0.28319   0.00000  Uiso   1.00
C468   C     0.70066   0.80835   0.21678   0.00000  Uiso   1.00
C469   C     0.98441   0.80828   0.21687   0.00000  Uiso   1.00
C470   C     0.83308   0.75410   0.25045   0.00000  Uiso   1.00
C471   C     0.85960   0.83323   0.14998   0.00000  Uiso   1.00
C472   C     0.92226   0.78647   0.02000   0.00000  Uiso   1.00
C473   C     0.87491   0.82687   0.09348   0.00000  Uiso   1.00
C474   C     0.74604   0.84910   0.43416   0.00000  Uiso   1.00
C475   C     0.73266   0.85493   0.48794   0.00000  Uiso   1.00
C476   C     0.76553   0.84537   0.01536   0.00000  Uiso   1.00
Cu477  Cu    0.78645   0.83333   0.25000   0.00000  Uiso   1.00
Cu478  Cu    0.88022   0.83334   0.25000   0.00000  Uiso   1.00
H479   H     0.93663   0.78886   0.09380   0.00000  Uiso   1.00
H480   H     0.90399   0.70438   0.19613   0.00000  Uiso   1.00
H481   H     0.69420   0.87779   0.30978   0.00000  Uiso   1.00
H482   H     0.72669   0.78828   0.19014   0.00000  Uiso   1.00
H483   H     0.97318   0.78821   0.19032   0.00000  Uiso   1.00
H484   H     0.92112   0.75573   0.42782   0.00000  Uiso   1.00
H485   H     0.72157   0.85972   0.41289   0.00000  Uiso   1.00
H486   H     0.75286   0.84859   0.05734   0.00000  Uiso   1.00
H487   H     0.90402   0.96239   0.19663   0.00000  Uiso   1.00
N488   N     0.71598   0.83332   0.24998   0.00000  Uiso   1.00
N489   N     0.95069   0.83335   0.24999   0.00000  Uiso   1.00
O490   O     0.79375   0.89345   0.25000   0.00000  Uiso   1.00
O491   O     0.87294   0.89346   0.25000   0.00000  Uiso   1.00
O492   O     0.77441   0.83332   0.32549   0.00000  Uiso   1.00
O493   O     0.85360   0.83333   0.32549   0.00000  Uiso   1.00
O494   O     0.79373   0.77321   0.24999   0.00000  Uiso   1.00
O495   O     0.87292   0.77322   0.24999   0.00000  Uiso   1.00
O496   O     0.81306   0.83334   0.17451   0.00000  Uiso   1.00
O497   O     0.89225   0.83335   0.17451   0.00000  Uiso   1.00
Cl498  Cl    0.74233   0.71504   0.32985   0.00000  Uiso   1.00
Cl499  Cl    0.74361   0.95146   0.33213   0.00000  Uiso   1.00
Br500  Br    0.92485   0.89657   0.33095   0.00000  Uiso   1.00
Cl501  Cl    0.97364   0.75450   0.49372   0.00000  Uiso   1.00
Br502  Br    0.81619   0.89590   0.08411   0.00000  Uiso   1.00
Br503  Br    0.67054   0.87861   0.02363   0.00000  Uiso   1.00
Br504  Br    0.85901   0.74714   0.36474   0.00000  Uiso   1.00
C505   C     0.16629   0.24587   0.75140   0.00000  Uiso   1.00
C506   C     0.14591   0.16306   0.98937   0.00000  Uiso   1.00
C507   C     0.15514   0.14945   0.93700   0.00000  Uiso   1.00
C508   C     0.18200   0.15676   0.51540   0.00000  Uiso   1.00
C509   C     0.22211   0.12994   0.99252   0.00000  Uiso   1.00
C510   C     0.22646   0.11187   0.94410   0.00000  Uiso   1.00
C511   C     0.19301   0.12032   0.91724   0.00000  Uiso   1.00
C512   C     0.17966   0.17578   0.56363   0.00000  Uiso   1.00
C513   C     0.24697   0.13338   0.57110   0.00000  Uiso   1.00
C514   C     0.12422   0.16376   0.90787   0.00000  Uiso   1.00
C515   C     0.20612   0.31201   0.72191   0.00000  Uiso   1.00
C516   C     0.14039   0.16486   0.85019   0.00000  Uiso   1.00
C517   C     0.20608   0.02137   0.72155   0.00000  Uiso   1.00
C518   C     0.16551   0.04282   0.75272   0.00000  Uiso   1.00
C519   C     0.12518   0.02152   0.78629   0.00000  Uiso   1.00
C520   C     0.12545   0.31170   0.78697   0.00000  Uiso   1.00
C521   C     0.16570   0.29047   0.75363   0.00000  Uiso   1.00
C522   C     0.29997   0.19191   0.78317   0.00000  Uiso   1.00
C523   C     0.01593   0.19144   0.78319   0.00000  Uiso   1.00
C524   C     0.03400   0.14168   0.71678   0.00000  Uiso   1.00
C525   C     0.31774   0.14162   0.71687   0.00000  Uiso   1.00
C526   C     0.16641   0.08744   0.75045   0.00000  Uiso   1.00
C527   C     0.19293   0.16656   0.64998   0.00000  Uiso   1.00
C528   C     0.25559   0.11980   0.52000   0.00000  Uiso   1.00
C529   C     0.20824   0.16020   0.59348   0.00000  Uiso   1.00
C530   C     0.07938   0.18243   0.93416   0.00000  Uiso   1.00
C531   C     0.06599   0.18826   0.98794   0.00000  Uiso   1.00
C532   C     0.09886   0.17871   0.51536   0.00000  Uiso   1.00
Cu533  Cu    0.11978   0.16666   0.75000   0.00000  Uiso   1.00
Cu534  Cu    0.21355   0.16667   0.75000   0.00000  Uiso   1.00
H535   H     0.26997   0.12219   0.59380   0.00000  Uiso   1.00
H536   H     0.23733   0.03772   0.69613   0.00000  Uiso   1.00
H537   H     0.02753   0.21112   0.80978   0.00000  Uiso   1.00
H538   H     0.06003   0.12162   0.69014   0.00000  Uiso   1.00
H539   H     0.30651   0.12154   0.69032   0.00000  Uiso   1.00
H540   H     0.25446   0.08906   0.92782   0.00000  Uiso   1.00
H541   H     0.05490   0.19305   0.91289   0.00000  Uiso   1.00
H542   H     0.08619   0.18192   0.55734   0.00000  Uiso   1.00
H543   H     0.23735   0.29572   0.69663   0.00000  Uiso   1.00
N544   N     0.04931   0.16666   0.74998   0.00000  Uiso   1.00
N545   N     0.28402   0.16669   0.74999   0.00000  Uiso   1.00
O546   O     0.12708   0.22678   0.75000   0.00000  Uiso   1.00
O547   O     0.20627   0.22679   0.75000   0.00000  Uiso   1.00
O548   O     0.10775   0.16665   0.82549   0.00000  Uiso   1.00
O549   O     0.18694   0.16666   0.82549   0.00000  Uiso   1.00
O550   O     0.12706   0.10654   0.74999   0.00000  Uiso   1.00
O551   O     0.20625   0.10655   0.74999   0.00000  Uiso   1.00
O552   O     0.14640   0.16667   0.67451   0.00000  Uiso   1.00
O553   O     0.22559   0.16668   0.67451   0.00000  Uiso   1.00
Cl554  Cl    0.07566   0.04837   0.82985   0.00000  Uiso   1.00
Cl555  Cl    0.07694   0.28479   0.83213   0.00000  Uiso   1.00
Br556  Br    0.25818   0.22990   0.83095   0.00000  Uiso   1.00
Cl557  Cl    0.30697   0.08783   0.99372   0.00000  Uiso   1.00
Br558  Br    0.14952   0.22923   0.58411   0.00000  Uiso   1.00
Br559  Br    0.00387   0.21194   0.52363   0.00000  Uiso   1.00
Br560  Br    0.19235   0.08047   0.86474   0.00000  Uiso   1.00
C561   C     0.49963   0.24587   0.75140   0.00000  Uiso   1.00
C562   C     0.47925   0.16306   0.98937   0.00000  Uiso   1.00
C563   C     0.48847   0.14945   0.93700   0.00000  Uiso   1.00
C564   C     0.51533   0.15676   0.51540   0.00000  Uiso   1.00
C565   C     0.55545   0.12994   0.99252   0.00000  Uiso   1.00
C566   C     0.55979   0.11187   0.94410   0.00000  Uiso   1.00
C567   C     0.52634   0.12032   0.91724   0.00000  Uiso   1.00
C568   C     0.51300   0.17578   0.56363   0.00000  Uiso   1.00
C569   C     0.58030   0.13338   0.57110   0.00000  Uiso   1.00
C570   C     0.45755   0.16376   0.90787   0.00000  Uiso   1.00
C571   C     0.53946   0.31201   0.72191   0.00000  Uiso   1.00
C572   C     0.47373   0.16486   0.85019   0.00000  Uiso   1.00
C573   C     0.53941   0.02137   0.72155   0.00000  Uiso   1.00
C574   C     0.49884   0.04282   0.75272   0.00000  Uiso   1.00
C575   C     0.45851   0.02152   0.78629   0.00000  Uiso   1.00
C576   C     0.45879   0.31170   0.78697   0.00000  Uiso   1.00
C577   C     0.49903   0.29047   0.75363   0.00000  Uiso   1.00
C578   C     0.63330   0.19191   0.78317   0.00000  Uiso   1.00
C579   C     0.34927   0.19144   0.78319   0.00000  Uiso   1.00
C580   C     0.36733   0.14168   0.71678   0.00000  Uiso   1.00
C581   C     0.65108   0.14162   0.71687   0.00000  Uiso   1.00
C582   C     0.49975   0.08744   0.75045   0.00000  Uiso   1.00
C583   C     0.52626   0.16656   0.64998   0.00000  Uiso   1.00
C584   C     0.58893   0.11980   0.52000   0.00000  Uiso   1.00
C585   C     0.54158   0.16020   0.59348   0.00000  Uiso   1.00
C586   C     0.41271   0.18243   0.93416   0.00000  Uiso   1.00
C587   C     0.39933   0.18826   0.98794   0.00000  Uiso   1.00
C588   C     0.43220   0.17871   0.51536   0.00000  Uiso   1.00
Cu589  Cu    0.45311   0.16666   0.75000   0.00000  Uiso   1.00
Cu590  Cu    0.54689   0.16667   0.75000   0.00000  Uiso   1.00
H591   H     0.60330   0.12219   0.59380   0.00000  Uiso   1.00
H592   H     0.57066   0.03772   0.69613   0.00000  Uiso   1.00
H593   H     0.36087   0.21112   0.80978   0.00000  Uiso   1.00
H594   H     0.39336   0.12162   0.69014   0.00000  Uiso   1.00
H595   H     0.63985   0.12154   0.69032   0.00000  Uiso   1.00
H596   H     0.58779   0.08906   0.92782   0.00000  Uiso   1.00
H597   H     0.38823   0.19305   0.91289   0.00000  Uiso   1.00
H598   H     0.41953   0.18192   0.55734   0.00000  Uiso   1.00
H599   H     0.57068   0.29572   0.69663   0.00000  Uiso   1.00
N600   N     0.38265   0.16666   0.74998   0.00000  Uiso   1.00
N601   N     0.61735   0.16669   0.74999   0.00000  Uiso   1.00
O602   O     0.46042   0.22678   0.75000   0.00000  Uiso   1.00
O603   O     0.53961   0.22679   0.75000   0.00000  Uiso   1.00
O604   O     0.44108   0.16665   0.82549   0.00000  Uiso   1.00
O605   O     0.52027   0.16666   0.82549   0.00000  Uiso   1.00
O606   O     0.46039   0.10654   0.74999   0.00000  Uiso   1.00
O607   O     0.53958   0.10655   0.74999   0.00000  Uiso   1.00
O608   O     0.47973   0.16667   0.67451   0.00000  Uiso   1.00
O609   O     0.55892   0.16668   0.67451   0.00000  Uiso   1.00
Cl610  Cl    0.40900   0.04837   0.82985   0.00000  Uiso   1.00
Cl611  Cl    0.41028   0.28479   0.83213   0.00000  Uiso   1.00
Br612  Br    0.59152   0.22990   0.83095   0.00000  Uiso   1.00
Cl613  Cl    0.64031   0.08783   0.99372   0.00000  Uiso   1.00
Br614  Br    0.48285   0.22923   0.58411   0.00000  Uiso   1.00
Br615  Br    0.33720   0.21194   0.52363   0.00000  Uiso   1.00
Br616  Br    0.52568   0.08047   0.86474   0.00000  Uiso   1.00
C617   C     0.83296   0.24587   0.75140   0.00000  Uiso   1.00
C618   C     0.81258   0.16306   0.98937   0.00000  Uiso   1.00
C619   C     0.82180   0.14945   0.93700   0.00000  Uiso   1.00
C620   C     0.84867   0.15676   0.51540   0.00000  Uiso   1.00
C621   C     0.88878   0.12994   0.99252   0.00000  Uiso   1.00
C622   C     0.89312   0.11187   0.94410   0.00000  Uiso   1.00
C623   C     0.85967   0.12032   0.91724   0.00000  Uiso   1.00
C624   C     0.84633   0.17578   0.56363   0.00000  Uiso   1.00
C625   C     0.91364   0.13338   0.57110   0.00000  Uiso   1.00
C626   C     0.79088   0.16376   0.90787   0.00000  Uiso   1.00
C627   C     0.87279   0.31201   0.72191   0.00000  Uiso   1.00
C628   C     0.80706   0.16486   0.85019   0.00000  Uiso   1.00
C629   C     0.87274   0.02137   0.72155   0.00000  Uiso   1.00
C630   C     0.83217   0.04282   0.75272   0.00000  Uiso   1.00
C631   C     0.79184   0.02152   0.78629   0.00000  Uiso   1.00
C632   C     0.79212   0.31170   0.78697   0.00000  Uiso   1.00
C633   C     0.83236   0.29047   0.75363   0.00000  Uiso   1.00
C634   C     0.96664   0.19191   0.78317   0.00000  Uiso   1.00
C635   C     0.68260   0.19144   0.78319   0.00000  Uiso   1.00
C636   C     0.70066   0.14168   0.71678   0.00000  Uiso   1.00
C637   C     0.98441   0.14162   0.71687   0.00000  Uiso   1.00
C638   C     0.83308   0.08744   0.75045   0.00000  Uiso   1.00
C639   C     0.85960   0.16656   0.64998   0.00000  Uiso   1.00
C640   C     0.92226   0.11980   0.52000   0.00000  Uiso   1.00
C641   C     0.87491   0.16020   0.59348   0.00000  Uiso   1.00
C642   C     0.74604   0.18243   0.93416   0.00000  Uiso   1.00
C643   C     0.73266   0.18826   0.98794   0.00000  Uiso   1.00
C644   C     0.76553   0.17871   0.51536   0.00000  Uiso   1.00
Cu645  Cu    0.78645   0.16666   0.75000   0.00000  Uiso   1.00
Cu646  Cu    0.88022   0.16667   0.75000   0.00000  Uiso   1.00
H647   H     0.93663   0.12219   0.59380   0.00000  Uiso   1.00
H648   H     0.90399   0.03772   0.69613   0.00000  Uiso   1.00
H649   H     0.69420   0.21112   0.80978   0.00000  Uiso   1.00
H650   H     0.72669   0.12162   0.69014   0.00000  Uiso   1.00
H651   H     0.97318   0.12154   0.69032   0.00000  Uiso   1.00
H652   H     0.92112   0.08906   0.92782   0.00000  Uiso   1.00
H653   H     0.72157   0.19305   0.91289   0.00000  Uiso   1.00
H654   H     0.75286   0.18192   0.55734   0.00000  Uiso   1.00
H655   H     0.90402   0.29572   0.69663   0.00000  Uiso   1.00
N656   N     0.71598   0.16666   0.74998   0.00000  Uiso   1.00
N657   N     0.95069   0.16669   0.74999   0.00000  Uiso   1.00
O658   O     0.79375   0.22678   0.75000   0.00000  Uiso   1.00
O659   O     0.87294   0.22679   0.75000   0.00000  Uiso   1.00
O660   O     0.77441   0.16665   0.82549   0.00000  Uiso   1.00
O661   O     0.85360   0.16666   0.82549   0.00000  Uiso   1.00
O662   O     0.79373   0.10654   0.74999   0.00000  Uiso   1.00
O663   O     0.87292   0.10655   0.74999   0.00000  Uiso   1.00
O664   O     0.81306   0.16667   0.67451   0.00000  Uiso   1.00
O665   O     0.89225   0.16668   0.67451   0.00000  Uiso   1.00
Cl666  Cl    0.74233   0.04837   0.82985   0.00000  Uiso   1.00
Cl667  Cl    0.74361   0.28479   0.83213   0.00000  Uiso   1.00
Br668  Br    0.92485   0.22990   0.83095   0.00000  Uiso   1.00
Cl669  Cl    0.97364   0.08783   0.99372   0.00000  Uiso   1.00
Br670  Br    0.81619   0.22923   0.58411   0.00000  Uiso   1.00
Br671  Br    0.67054   0.21194   0.52363   0.00000  Uiso   1.00
Br672  Br    0.85901   0.08047   0.86474   0.00000  Uiso   1.00
C673   C     0.16629   0.57920   0.75140   0.00000  Uiso   1.00
C674   C     0.14591   0.49639   0.98937   0.00000  Uiso   1.00
C675   C     0.15514   0.48279   0.93700   0.00000  Uiso   1.00
C676   C     0.18200   0.49009   0.51540   0.00000  Uiso   1.00
C677   C     0.22211   0.46327   0.99252   0.00000  Uiso   1.00
C678   C     0.22646   0.44520   0.94410   0.00000  Uiso   1.00
C679   C     0.19301   0.45366   0.91724   0.00000  Uiso   1.00
C680   C     0.17966   0.50912   0.56363   0.00000  Uiso   1.00
C681   C     0.24697   0.46671   0.57110   0.00000  Uiso   1.00
C682   C     0.12422   0.49710   0.90787   0.00000  Uiso   1.00
C683   C     0.20612   0.64534   0.72191   0.00000  Uiso   1.00
C684   C     0.14039   0.49820   0.85019   0.00000  Uiso   1.00
C685   C     0.20608   0.35470   0.72155   0.00000  Uiso   1.00
C686   C     0.16551   0.37615   0.75272   0.00000  Uiso   1.00
C687   C     0.12518   0.35486   0.78629   0.00000  Uiso   1.00
C688   C     0.12545   0.64504   0.78697   0.00000  Uiso   1.00
C689   C     0.16570   0.62381   0.75363   0.00000  Uiso   1.00
C690   C     0.29997   0.52525   0.78317   0.00000  Uiso   1.00
C691   C     0.01593   0.52477   0.78319   0.00000  Uiso   1.00
C692   C     0.03400   0.47501   0.71678   0.00000  Uiso   1.00
C693   C     0.31774   0.47495   0.71687   0.00000  Uiso   1.00
C694   C     0.16641   0.42077   0.75045   0.00000  Uiso   1.00
C695   C     0.19293   0.49989   0.64998   0.00000  Uiso   1.00
C696   C     0.25559   0.45314   0.52000   0.00000  Uiso   1.00
C697   C     0.20824   0.49353   0.59348   0.00000  Uiso   1.00
C698   C     0.07938   0.51577   0.93416   0.00000  Uiso   1.00
C699   C     0.06599   0.52159   0.98794   0.00000  Uiso   1.00
C700   C     0.09886   0.51204   0.51536   0.00000  Uiso   1.00
Cu701  Cu    0.11978   0.49999   0.75000   0.00000  Uiso   1.00
Cu702  Cu    0.21355   0.50001   0.75000   0.00000  Uiso   1.00
H703   H     0.26997   0.45552   0.59380   0.00000  Uiso   1.00
H704   H     0.23733   0.37105   0.69613   0.00000  Uiso   1.00
H705   H     0.02753   0.54445   0.80978   0.00000  Uiso   1.00
H706   H     0.06003   0.45495   0.69014   0.00000  Uiso   1.00
H707   H     0.30651   0.45487   0.69032   0.00000  Uiso   1.00
H708   H     0.25446   0.42239   0.92782   0.00000  Uiso   1.00
H709   H     0.05490   0.52638   0.91289   0.00000  Uiso   1.00
H710   H     0.08619   0.51526   0.55734   0.00000  Uiso   1.00
H711   H     0.23735   0.62905   0.69663   0.00000  Uiso   1.00
N712   N     0.04931   0.49999   0.74998   0.00000  Uiso   1.00
N713   N     0.28402   0.50002   0.74999   0.00000  Uiso   1.00
O714   O     0.12708   0.56011   0.75000   0.00000  Uiso   1.00
O715   O     0.20627   0.56012   0.75000   0.00000  Uiso   1.00
O716   O     0.10775   0.49998   0.82549   0.00000  Uiso   1.00
O717   O     0.18694   0.49999   0.82549   0.00000  Uiso   1.00
O718   O     0.12706   0.43988   0.74999   0.00000  Uiso   1.00
O719   O     0.20625   0.43989   0.74999   0.00000  Uiso   1.00
O720   O     0.14640   0.50001   0.67451   0.00000  Uiso   1.00
O721   O     0.22559   0.50002   0.67451   0.00000  Uiso   1.00
Cl722  Cl    0.07566   0.38170   0.82985   0.00000  Uiso   1.00
Cl723  Cl    0.07694   0.61813   0.83213   0.00000  Uiso   1.00
Br724  Br    0.25818   0.56323   0.83095   0.00000  Uiso   1.00
Cl725  Cl    0.30697   0.42116   0.99372   0.00000  Uiso   1.00
Br726  Br    0.14952   0.56257   0.58411   0.00000  Uiso   1.00
Br727  Br    0.00387   0.54528   0.52363   0.00000  Uiso   1.00
Br728  Br    0.19235   0.41380   0.86474   0.00000  Uiso   1.00
C729   C     0.49963   0.57920   0.75140   0.00000  Uiso   1.00
C730   C     0.47925   0.49639   0.98937   0.00000  Uiso   1.00
C731   C     0.48847   0.48279   0.93700   0.00000  Uiso   1.00
C732   C     0.51533   0.49009   0.51540   0.00000  Uiso   1.00
C733   C     0.55545   0.46327   0.99252   0.00000  Uiso   1.00
C734   C     0.55979   0.44520   0.94410   0.00000  Uiso   1.00
C735   C     0.52634   0.45366   0.91724   0.00000  Uiso   1.00
C736   C     0.51300   0.50912   0.56363   0.00000  Uiso   1.00
C737   C     0.58030   0.46671   0.57110   0.00000  Uiso   1.00
C738   C     0.45755   0.49710   0.90787   0.00000  Uiso   1.00
C739   C     0.53946   0.64534   0.72191   0.00000  Uiso   1.00
C740   C     0.47373   0.49820   0.85019   0.00000  Uiso   1.00
C741   C     0.53941   0.35470   0.72155   0.00000  Uiso   1.00
C742   C     0.49884   0.37615   0.75272   0.00000  Uiso   1.00
C743   C     0.45851   0.35486   0.78629   0.00000  Uiso   1.00
C744   C     0.45879   0.64504   0.78697   0.00000  Uiso   1.00
C745   C     0.49903   0.62381   0.75363   0.00000  Uiso   1.00
C746   C     0.63330   0.52525   0.78317   0.00000  Uiso   1.00
C747   C     0.34927   0.52477   0.78319   0.00000  Uiso   1.00
C748   C     0.36733   0.47501   0.71678   0.00000  Uiso   1.00
C749   C     0.65108   0.47495   0.71687   0.00000  Uiso   1.00
C750   C     0.49975   0.42077   0.75045   0.00000  Uiso   1.00
C751   C     0.52626   0.49989   0.64998   0.00000  Uiso   1.00
C752   C     0.58893   0.45314   0.52000   0.00000  Uiso   1.00
C753   C     0.54158   0.49353   0.59348   0.00000  Uiso   1.00
C754   C     0.41271   0.51577   0.93416   0.00000  Uiso   1.00
C755   C     0.39933   0.52159   0.98794   0.00000  Uiso   1.00
C756   C     0.43220   0.51204   0.51536   0.00000  Uiso   1.00
Cu757  Cu    0.45311   0.49999   0.75000   0.00000  Uiso   1.00
Cu758  Cu    0.54689   0.50001   0.75000   0.00000  Uiso   1.00
H759   H     0.60330   0.45552   0.59380   0.00000  Uiso   1.00
H760   H     0.57066   0.37105   0.69613   0.00000  Uiso   1.00
H761   H     0.36087   0.54445   0.80978   0.00000  Uiso   1.00
H762   H     0.39336   0.45495   0.69014   0.00000  Uiso   1.00
H763   H     0.63985   0.45487   0.69032   0.00000  Uiso   1.00
H764   H     0.58779   0.42239   0.92782   0.00000  Uiso   1.00
H765   H     0.38823   0.52638   0.91289   0.00000  Uiso   1.00
H766   H     0.41953   0.51526   0.55734   0.00000  Uiso   1.00
H767   H     0.57068   0.62905   0.69663   0.00000  Uiso   1.00
N768   N     0.38265   0.49999   0.74998   0.00000  Uiso   1.00
N769   N     0.61735   0.50002   0.74999   0.00000  Uiso   1.00
O770   O     0.46042   0.56011   0.75000   0.00000  Uiso   1.00
O771   O     0.53961   0.56012   0.75000   0.00000  Uiso   1.00
O772   O     0.44108   0.49998   0.82549   0.00000  Uiso   1.00
O773   O     0.52027   0.49999   0.82549   0.00000  Uiso   1.00
O774   O     0.46039   0.43988   0.74999   0.00000  Uiso   1.00
O775   O     0.53958   0.43989   0.74999   0.00000  Uiso   1.00
O776   O     0.47973   0.50001   0.67451   0.00000  Uiso   1.00
O777   O     0.55892   0.50002   0.67451   0.00000  Uiso   1.00
Cl778  Cl    0.40900   0.38170   0.82985   0.00000  Uiso   1.00
Cl779  Cl    0.41028   0.61813   0.83213   0.00000  Uiso   1.00
Br780  Br    0.59152   0.56323   0.83095   0.00000  Uiso   1.00
Cl781  Cl    0.64031   0.42116   0.99372   0.00000  Uiso   1.00
Br782  Br    0.48285   0.56257   0.58411   0.00000  Uiso   1.00
Br783  Br    0.33720   0.54528   0.52363   0.00000  Uiso   1.00
Br784  Br    0.52568   0.41380   0.86474   0.00000  Uiso   1.00
C785   C     0.83296   0.57920   0.75140   0.00000  Uiso   1.00
C786   C     0.81258   0.49639   0.98937   0.00000  Uiso   1.00
C787   C     0.82180   0.48279   0.93700   0.00000  Uiso   1.00
C788   C     0.84867   0.49009   0.51540   0.00000  Uiso   1.00
C789   C     0.88878   0.46327   0.99252   0.00000  Uiso   1.00
C790   C     0.89312   0.44520   0.94410   0.00000  Uiso   1.00
C791   C     0.85967   0.45366   0.91724   0.00000  Uiso   1.00
C792   C     0.84633   0.50912   0.56363   0.00000  Uiso   1.00
C793   C     0.91364   0.46671   0.57110   0.00000  Uiso   1.00
C794   C     0.79088   0.49710   0.90787   0.00000  Uiso   1.00
C795   C     0.87279   0.64534   0.72191   0.00000  Uiso   1.00
C796   C     0.80706   0.49820   0.85019   0.00000  Uiso   1.00
C797   C     0.87274   0.35470   0.72155   0.00000  Uiso   1.00
C798   C     0.83217   0.37615   0.75272   0.00000  Uiso   1.00
C799   C     0.79184   0.35486   0.78629   0.00000  Uiso   1.00
C800   C     0.79212   0.64504   0.78697   0.00000  Uiso   1.00
C801   C     0.83236   0.62381   0.75363   0.00000  Uiso   1.00
C802   C     0.96664   0.52525   0.78317   0.00000  Uiso   1.00
C803   C     0.68260   0.52477   0.78319   0.00000  Uiso   1.00
C804   C     0.70066   0.47501   0.71678   0.00000  Uiso   1.00
C805   C     0.98441   0.47495   0.71687   0.00000  Uiso   1.00
C806   C     0.83308   0.42077   0.75045   0.00000  Uiso   1.00
C807   C     0.85960   0.49989   0.64998   0.00000  Uiso   1.00
C808   C     0.92226   0.45314   0.52000   0.00000  Uiso   1.00
C809   C     0.87491   0.49353   0.59348   0.00000  Uiso   1.00
C810   C     0.74604   0.51577   0.93416   0.00000  Uiso   1.00
C811   C     0.73266   0.52159   0.98794   0.00000  Uiso   1.00
C812   C     0.76553   0.51204   0.51536   0.00000  Uiso   1.00
Cu813  Cu    0.78645   0.49999   0.75000   0.00000  Uiso   1.00
Cu814  Cu    0.88022   0.50001   0.75000   0.00000  Uiso   1.00
H815   H     0.93663   0.45552   0.59380   0.00000  Uiso   1.00
H816   H     0.90399   0.37105   0.69613   0.00000  Uiso   1.00
H817   H     0.69420   0.54445   0.80978   0.00000  Uiso   1.00
H818   H     0.72669   0.45495   0.69014   0.00000  Uiso   1.00
H819   H     0.97318   0.45487   0.69032   0.00000  Uiso   1.00
H820   H     0.92112   0.42239   0.92782   0.00000  Uiso   1.00
H821   H     0.72157   0.52638   0.91289   0.00000  Uiso   1.00
H822   H     0.75286   0.51526   0.55734   0.00000  Uiso   1.00
H823   H     0.90402   0.62905   0.69663   0.00000  Uiso   1.00
N824   N     0.71598   0.49999   0.74998   0.00000  Uiso   1.00
N825   N     0.95069   0.50002   0.74999   0.00000  Uiso   1.00
O826   O     0.79375   0.56011   0.75000   0.00000  Uiso   1.00
O827   O     0.87294   0.56012   0.75000   0.00000  Uiso   1.00
O828   O     0.77441   0.49998   0.82549   0.00000  Uiso   1.00
O829   O     0.85360   0.49999   0.82549   0.00000  Uiso   1.00
O830   O     0.79373   0.43988   0.74999   0.00000  Uiso   1.00
O831   O     0.87292   0.43989   0.74999   0.00000  Uiso   1.00
O832   O     0.81306   0.50001   0.67451   0.00000  Uiso   1.00
O833   O     0.89225   0.50002   0.67451   0.00000  Uiso   1.00
Cl834  Cl    0.74233   0.38170   0.82985   0.00000  Uiso   1.00
Cl835  Cl    0.74361   0.61813   0.83213   0.00000  Uiso   1.00
Br836  Br    0.92485   0.56323   0.83095   0.00000  Uiso   1.00
Cl837  Cl    0.97364   0.42116   0.99372   0.00000  Uiso   1.00
Br838  Br    0.81619   0.56257   0.58411   0.00000  Uiso   1.00
Br839  Br    0.67054   0.54528   0.52363   0.00000  Uiso   1.00
Br840  Br    0.85901   0.41380   0.86474   0.00000  Uiso   1.00
C841   C     0.16629   0.91254   0.75140   0.00000  Uiso   1.00
C842   C     0.14591   0.82972   0.98937   0.00000  Uiso   1.00
C843   C     0.15514   0.81612   0.93700   0.00000  Uiso   1.00
C844   C     0.18200   0.82342   0.51540   0.00000  Uiso   1.00
C845   C     0.22211   0.79661   0.99252   0.00000  Uiso   1.00
C846   C     0.22646   0.77854   0.94410   0.00000  Uiso   1.00
C847   C     0.19301   0.78699   0.91724   0.00000  Uiso   1.00
C848   C     0.17966   0.84245   0.56363   0.00000  Uiso   1.00
C849   C     0.24697   0.80004   0.57110   0.00000  Uiso   1.00
C850   C     0.12422   0.83043   0.90787   0.00000  Uiso   1.00
C851   C     0.20612   0.97867   0.72191   0.00000  Uiso   1.00
C852   C     0.14039   0.83153   0.85019   0.00000  Uiso   1.00
C853   C     0.20608   0.68803   0.72155   0.00000  Uiso   1.00
C854   C     0.16551   0.70948   0.75272   0.00000  Uiso   1.00
C855   C     0.12518   0.68819   0.78629   0.00000  Uiso   1.00
C856   C     0.12545   0.97837   0.78697   0.00000  Uiso   1.00
C857   C     0.16570   0.95714   0.75363   0.00000  Uiso   1.00
C858   C     0.29997   0.85858   0.78317   0.00000  Uiso   1.00
C859   C     0.01593   0.85811   0.78319   0.00000  Uiso   1.00
C860   C     0.03400   0.80835   0.71678   0.00000  Uiso   1.00
C861   C     0.31774   0.80828   0.71687   0.00000  Uiso   1.00
C862   C     0.16641   0.75410   0.75045   0.00000  Uiso   1.00
C863   C     0.19293   0.83323   0.64998   0.00000  Uiso   1.00
C864   C     0.25559   0.78647   0.52000   0.00000  Uiso   1.00
C865   C     0.20824   0.82687   0.59348   0.00000  Uiso   1.00
C866   C     0.07938   0.84910   0.93416   0.00000  Uiso   1.00
C867   C     0.06599   0.85493   0.98794   0.00000  Uiso   1.00
C868   C     0.09886   0.84537   0.51536   0.00000  Uiso   1.00
Cu869  Cu    0.11978   0.83333   0.75000   0.00000  Uiso   1.00
Cu870  Cu    0.21355   0.83334   0.75000   0.00000  Uiso   1.00
H871   H     0.26997   0.78886   0.59380   0.00000  Uiso   1.00
H872   H     0.23733   0.70438   0.69613   0.00000  Uiso   1.00
H873   H     0.02753   0.87779   0.80978   0.00000  Uiso   1.00
H874   H     0.06003   0.78828   0.69014   0.00000  Uiso   1.00
H875   H     0.30651   0.78821   0.69032   0.00000  Uiso   1.00
H876   H     0.25446   0.75573   0.92782   0.00000  Uiso   1.00
H877   H     0.05490   0.85972   0.91289   0.00000  Uiso   1.00
H878   H     0.08619   0.84859   0.55734   0.00000  Uiso   1.00
H879   H     0.23735   0.96239   0.69663   0.00000  Uiso   1.00
N880   N     0.04931   0.83332   0.74998   0.00000  Uiso   1.00
N881   N     0.28402   0.83335   0.74999   0.00000  Uiso   1.00
O882   O     0.12708   0.89345   0.75000   0.00000  Uiso   1.00
O883   O     0.20627   0.89346   0.75000   0.00000  Uiso   1.00
O884   O     0.10775   0.83332   0.82549   0.00000  Uiso   1.00
O885   O     0.18694   0.83333   0.82549   0.00000  Uiso   1.00
O886   O     0.12706   0.77321   0.74999   0.00000  Uiso   1.00
O887   O     0.20625   0.77322   0.74999   0.00000  Uiso   1.00
O888   O     0.14640   0.83334   0.67451   0.00000  Uiso   1.00
O889   O     0.22559   0.83335   0.67451   0.00000  Uiso   1.00
Cl890  Cl    0.07566   0.71504   0.82985   0.00000  Uiso   1.00
Cl891  Cl    0.07694   0.95146   0.83213   0.00000  Uiso   1.00
Br892  Br    0.25818   0.89657   0.83095   0.00000  Uiso   1.00
Cl893  Cl    0.30697   0.75450   0.99372   0.00000  Uiso   1.00
Br894  Br    0.14952   0.89590   0.58411   0.00000  Uiso   1.00
Br895  Br    0.00387   0.87861   0.52363   0.00000  Uiso   1.00
Br896  Br    0.19235   0.74714   0.86474   0.00000  Uiso   1.00
C897   C     0.49963   0.91254   0.75140   0.00000  Uiso   1.00
C898   C     0.47925   0.82972   0.98937   0.00000  Uiso   1.00
C899   C     0.48847   0.81612   0.93700   0.00000  Uiso   1.00
C900   C     0.51533   0.82342   0.51540   0.00000  Uiso   1.00
C901   C     0.55545   0.79661   0.99252   0.00000  Uiso   1.00
C902   C     0.55979   0.77854   0.94410   0.00000  Uiso   1.00
C903   C     0.52634   0.78699   0.91724   0.00000  Uiso   1.00
C904   C     0.51300   0.84245   0.56363   0.00000  Uiso   1.00
C905   C     0.58030   0.80004   0.57110   0.00000  Uiso   1.00
C906   C     0.45755   0.83043   0.90787   0.00000  Uiso   1.00
C907   C     0.53946   0.97867   0.72191   0.00000  Uiso   1.00
C908   C     0.47373   0.83153   0.85019   0.00000  Uiso   1.00
C909   C     0.53941   0.68803   0.72155   0.00000  Uiso   1.00
C910   C     0.49884   0.70948   0.75272   0.00000  Uiso   1.00
C911   C     0.45851   0.68819   0.78629   0.00000  Uiso   1.00
C912   C     0.45879   0.97837   0.78697   0.00000  Uiso   1.00
C913   C     0.49903   0.95714   0.75363   0.00000  Uiso   1.00
C914   C     0.63330   0.85858   0.78317   0.00000  Uiso   1.00
C915   C     0.34927   0.85811   0.78319   0.00000  Uiso   1.00
C916   C     0.36733   0.80835   0.71678   0.00000  Uiso   1.00
C917   C     0.65108   0.80828   0.71687   0.00000  Uiso   1.00
C918   C     0.49975   0.75410   0.75045   0.00000  Uiso   1.00
C919   C     0.52626   0.83323   0.64998   0.00000  Uiso   1.00
C920   C     0.58893   0.78647   0.52000   0.00000  Uiso   1.00
C921   C     0.54158   0.82687   0.59348   0.00000  Uiso   1.00
C922   C     0.41271   0.84910   0.93416   0.00000  Uiso   1.00
C923   C     0.39933   0.85493   0.98794   0.00000  Uiso   1.00
C924   C     0.43220   0.84537   0.51536   0.00000  Uiso   1.00
Cu925  Cu    0.45311   0.83333   0.75000   0.00000  Uiso   1.00
Cu926  Cu    0.54689   0.83334   0.75000   0.00000  Uiso   1.00
H927   H     0.60330   0.78886   0.59380   0.00000  Uiso   1.00
H928   H     0.57066   0.70438   0.69613   0.00000  Uiso   1.00
H929   H     0.36087   0.87779   0.80978   0.00000  Uiso   1.00
H930   H     0.39336   0.78828   0.69014   0.00000  Uiso   1.00
H931   H     0.63985   0.78821   0.69032   0.00000  Uiso   1.00
H932   H     0.58779   0.75573   0.92782   0.00000  Uiso   1.00
H933   H     0.38823   0.85972   0.91289   0.00000  Uiso   1.00
H934   H     0.41953   0.84859   0.55734   0.00000  Uiso   1.00
H935   H     0.57068   0.96239   0.69663   0.00000  Uiso   1.00
N936   N     0.38265   0.83332   0.74998   0.00000  Uiso   1.00
N937   N     0.61735   0.83335   0.74999   0.00000  Uiso   1.00
O938   O     0.46042   0.89345   0.75000   0.00000  Uiso   1.00
O939   O     0.53961   0.89346   0.75000   0.00000  Uiso   1.00
O940   O     0.44108   0.83332   0.82549   0.00000  Uiso   1.00
O941   O     0.52027   0.83333   0.82549   0.00000  Uiso   1.00
O942   O     0.46039   0.77321   0.74999   0.00000  Uiso   1.00
O943   O     0.53958   0.77322   0.74999   0.00000  Uiso   1.00
O944   O     0.47973   0.83334   0.67451   0.00000  Uiso   1.00
O945   O     0.55892   0.83335   0.67451   0.00000  Uiso   1.00
Cl946  Cl    0.40900   0.71504   0.82985   0.00000  Uiso   1.00
Cl947  Cl    0.41028   0.95146   0.83213   0.00000  Uiso   1.00
Br948  Br    0.59152   0.89657   0.83095   0.00000  Uiso   1.00
Cl949  Cl    0.64031   0.75450   0.99372   0.00000  Uiso   1.00
Br950  Br    0.48285   0.89590   0.58411   0.00000  Uiso   1.00
Br951  Br    0.33720   0.87861   0.52363   0.00000  Uiso   1.00
Br952  Br    0.52568   0.74714   0.86474   0.00000  Uiso   1.00
C953   C     0.83296   0.91254   0.75140   0.00000  Uiso   1.00
C954   C     0.81258   0.82972   0.98937   0.00000  Uiso   1.00
C955   C     0.82180   0.81612   0.93700   0.00000  Uiso   1.00
C956   C     0.84867   0.82342   0.51540   0.00000  Uiso   1.00
C957   C     0.88878   0.79661   0.99252   0.00000  Uiso   1.00
C958   C     0.89312   0.77854   0.94410   0.00000  Uiso   1.00
C959   C     0.85967   0.78699   0.91724   0.00000  Uiso   1.00
C960   C     0.84633   0.84245   0.56363   0.00000  Uiso   1.00
C961   C     0.91364   0.80004   0.57110   0.00000  Uiso   1.00
C962   C     0.79088   0.83043   0.90787   0.00000  Uiso   1.00
C963   C     0.87279   0.97867   0.72191   0.00000  Uiso   1.00
C964   C     0.80706   0.83153   0.85019   0.00000  Uiso   1.00
C965   C     0.87274   0.68803   0.72155   0.00000  Uiso   1.00
C966   C     0.83217   0.70948   0.75272   0.00000  Uiso   1.00
C967   C     0.79184   0.68819   0.78629   0.00000  Uiso   1.00
C968   C     0.79212   0.97837   0.78697   0.00000  Uiso   1.00
C969   C     0.83236   0.95714   0.75363   0.00000  Uiso   1.00
C970   C     0.96664   0.85858   0.78317   0.00000  Uiso   1.00
C971   C     0.68260   0.85811   0.78319   0.00000  Uiso   1.00
C972   C     0.70066   0.80835   0.71678   0.00000  Uiso   1.00
C973   C     0.98441   0.80828   0.71687   0.00000  Uiso   1.00
C974   C     0.83308   0.75410   0.75045   0.00000  Uiso   1.00
C975   C     0.85960   0.83323   0.64998   0.00000  Uiso   1.00
C976   C     0.92226   0.78647   0.52000   0.00000  Uiso   1.00
C977   C     0.87491   0.82687   0.59348   0.00000  Uiso   1.00
C978   C     0.74604   0.84910   0.93416   0.00000  Uiso   1.00
C979   C     0.73266   0.85493   0.98794   0.00000  Uiso   1.00
C980   C     0.76553   0.84537   0.51536   0.00000  Uiso   1.00
Cu981  Cu    0.78645   0.83333   0.75000   0.00000  Uiso   1.00
Cu982  Cu    0.88022   0.83334   0.75000   0.00000  Uiso   1.00
H983   H     0.93663   0.78886   0.59380   0.00000  Uiso   1.00
H984   H     0.90399   0.70438   0.69613   0.00000  Uiso   1.00
H985   H     0.69420   0.87779   0.80978   0.00000  Uiso   1.00
H986   H     0.72669   0.78828   0.69014   0.00000  Uiso   1.00
H987   H     0.97318   0.78821   0.69032   0.00000  Uiso   1.00
H988   H     0.92112   0.75573   0.92782   0.00000  Uiso   1.00
H989   H     0.72157   0.85972   0.91289   0.00000  Uiso   1.00
H990   H     0.75286   0.84859   0.55734   0.00000  Uiso   1.00
H991   H     0.90402   0.96239   0.69663   0.00000  Uiso   1.00
N992   N     0.71598   0.83332   0.74998   0.00000  Uiso   1.00
N993   N     0.95069   0.83335   0.74999   0.00000  Uiso   1.00
O994   O     0.79375   0.89345   0.75000   0.00000  Uiso   1.00
O995   O     0.87294   0.89346   0.75000   0.00000  Uiso   1.00
O996   O     0.77441   0.83332   0.82549   0.00000  Uiso   1.00
O997   O     0.85360   0.83333   0.82549   0.00000  Uiso   1.00
O998   O     0.79373   0.77321   0.74999   0.00000  Uiso   1.00
O999   O     0.87292   0.77322   0.74999   0.00000  Uiso   1.00
O1000  O     0.81306   0.83334   0.67451   0.00000  Uiso   1.00
O1001  O     0.89225   0.83335   0.67451   0.00000  Uiso   1.00
Cl1002 Cl    0.74233   0.71504   0.82985   0.00000  Uiso   1.00
Cl1003 Cl    0.74361   0.95146   0.83213   0.00000  Uiso   1.00
Br1004 Br    0.92485   0.89657   0.83095   0.00000  Uiso   1.00
Cl1005 Cl    0.97364   0.75450   0.99372   0.00000  Uiso   1.00
Br1006 Br    0.81619   0.89590   0.58411   0.00000  Uiso   1.00
Br1007 Br    0.67054   0.87861   0.52363   0.00000  Uiso   1.00
Br1008 Br    0.85901   0.74714   0.86474   0.00000  Uiso   1.00
loop_
_geom_bond_atom_site_label_1
_geom_bond_atom_site_label_2
_geom_bond_distance
_geom_bond_site_symmetry_2
_ccdc_geom_bond_type
C1     C17     1.445   .     S
C1     O42     1.291   .     A
C1     O43     1.292   .     A
C2     C3      1.419   .     A
C2     C508    1.424   .     S
C2     C532    1.413   .     S
C3     C10     1.422   .     A
C3     C7      1.416   .     A
C4     C8      1.416   .     A
C4     C506    1.424   1_554 S
C4     C509    1.425   1_554 S
C5     C6      1.395   .     A
C5     C508    1.425   .     S
C5     C528    1.412   .     S
C6     C7      1.387   .     A
C6     H36     1.082   .     S
C7     Br56    1.915   .     S
C8     C25     1.399   .     A
C8     Br54    1.940   .     S
C9     H31     1.084   .     S
C9     C25     1.396   .     A
C9     C24     1.389   .     A
C10    C26     1.404   .     A
C10    C12     1.474   .     S
C11    H39     1.084   .     S
C11    C17     1.397   .     A
C11    C181    1.382   .     S
C12    O44     1.299   .     A
C12    O45     1.299   .     A
C13    H32     1.084   .     S
C13    C14     1.397   .     A
C13    C347    1.382   1_545 S
C14    C22     1.445   .     S
C14    C15     1.410   .     A
C15    Cl50    1.772   .     S
C15    C352    1.397   1_545 S
C16    Cl51    1.770   .     S
C16    C17     1.409   .     A
C16    C183    1.397   .     S
C18    Br52    1.916   .     S
C18    N41     1.383   .     A
C18    C75     1.412   .     S
C19    N40     1.357   .     A
C19    H33     1.081   .     S
C19    C130    1.412   1_455 S
C20    H34     1.082   .     S
C20    N40     1.369   .     A
C20    C133    1.419   1_455 S
C21    H35     1.082   .     S
C21    N41     1.367   .     A
C21    C76     1.419   .     S
C22    O46     1.289   .     A
C22    O47     1.294   .     A
C23    C25     1.459   .     S
C23    O49     1.295   .     A
C23    O48     1.296   .     A
C24    C509    1.412   1_554 S
C24    Cl557   1.765   1_554 S
C26    H37     1.084   .     S
C26    C27     1.389   .     A
C27    C532    1.392   .     S
C27    Br559   1.911   .     S
C28    H38     1.079   .     S
C28    C531    1.392   1_554 S
C28    C506    1.413   1_554 S
Cu29   O42     1.956   .     S
Cu29   O46     1.957   .     S
Cu29   Cu30    2.685   .     S
Cu29   N40     2.018   .     S
Cu29   O44     1.947   .     S
Cu29   O48     1.935   .     S
Cu30   N41     2.018   .     S
Cu30   O47     1.956   .     S
Cu30   O49     1.947   .     S
Cu30   O43     1.957   .     S
Cu30   O45     1.935   .     S
Cl53   C528    1.765   .     S
Br55   C531    1.911   1_554 S
C57    C73     1.445   .     S
C57    O98     1.291   .     A
C57    O99     1.292   .     A
C58    C59     1.419   .     A
C58    C564    1.424   .     S
C58    C588    1.413   .     S
C59    C66     1.422   .     A
C59    C63     1.416   .     A
C60    C64     1.416   .     A
C60    C562    1.424   1_554 S
C60    C565    1.425   1_554 S
C61    C62     1.395   .     A
C61    C564    1.425   .     S
C61    C584    1.412   .     S
C62    C63     1.387   .     A
C62    H92     1.082   .     S
C63    Br112   1.915   .     S
C64    C81     1.399   .     A
C64    Br110   1.940   .     S
C65    H87     1.084   .     S
C65    C81     1.396   .     A
C65    C80     1.389   .     A
C66    C82     1.404   .     A
C66    C68     1.474   .     S
C67    H95     1.084   .     S
C67    C73     1.397   .     A
C67    C237    1.382   .     S
C68    O100    1.299   .     A
C68    O101    1.299   .     A
C69    H88     1.084   .     S
C69    C70     1.397   .     A
C69    C403    1.382   1_545 S
C70    C78     1.445   .     S
C70    C71     1.410   .     A
C71    Cl106   1.772   .     S
C71    C408    1.397   1_545 S
C72    Cl107   1.770   .     S
C72    C73     1.409   .     A
C72    C239    1.397   .     S
C74    Br108   1.916   .     S
C74    N97     1.383   .     A
C74    C131    1.412   .     S
C75    N96     1.357   .     A
C75    H89     1.081   .     S
C76    H90     1.082   .     S
C76    N96     1.369   .     A
C77    H91     1.082   .     S
C77    N97     1.367   .     A
C77    C132    1.419   .     S
C78    O102    1.289   .     A
C78    O103    1.294   .     A
C79    C81     1.459   .     S
C79    O105    1.295   .     A
C79    O104    1.296   .     A
C80    C565    1.412   1_554 S
C80    Cl613   1.765   1_554 S
C82    H93     1.084   .     S
C82    C83     1.389   .     A
C83    C588    1.392   .     S
C83    Br615   1.911   .     S
C84    H94     1.079   .     S
C84    C587    1.392   1_554 S
C84    C562    1.413   1_554 S
Cu85   O98     1.956   .     S
Cu85   O102    1.957   .     S
Cu85   Cu86    2.685   .     S
Cu85   N96     2.018   .     S
Cu85   O100    1.947   .     S
Cu85   O104    1.935   .     S
Cu86   N97     2.018   .     S
Cu86   O103    1.956   .     S
Cu86   O105    1.947   .     S
Cu86   O99     1.957   .     S
Cu86   O101    1.935   .     S
Cl109  C584    1.765   .     S
Br111  C587    1.911   1_554 S
C113   C129    1.445   .     S
C113   O154    1.291   .     A
C113   O155    1.292   .     A
C114   C115    1.419   .     A
C114   C620    1.424   .     S
C114   C644    1.413   .     S
C115   C122    1.422   .     A
C115   C119    1.416   .     A
C116   C120    1.416   .     A
C116   C618    1.424   1_554 S
C116   C621    1.425   1_554 S
C117   C118    1.395   .     A
C117   C620    1.425   .     S
C117   C640    1.412   .     S
C118   C119    1.387   .     A
C118   H148    1.082   .     S
C119   Br168   1.915   .     S
C120   C137    1.399   .     A
C120   Br166   1.940   .     S
C121   H143    1.084   .     S
C121   C137    1.396   .     A
C121   C136    1.389   .     A
C122   C138    1.404   .     A
C122   C124    1.474   .     S
C123   H151    1.084   .     S
C123   C129    1.397   .     A
C123   C293    1.382   .     S
C124   O156    1.299   .     A
C124   O157    1.299   .     A
C125   H144    1.084   .     S
C125   C126    1.397   .     A
C125   C459    1.382   1_545 S
C126   C134    1.445   .     S
C126   C127    1.410   .     A
C127   Cl162   1.772   .     S
C127   C464    1.397   1_545 S
C128   Cl163   1.770   .     S
C128   C129    1.409   .     A
C128   C295    1.397   .     S
C130   Br164   1.916   .     S
C130   N153    1.383   .     A
C130   C19     1.412   1_655 S
C131   N152    1.357   .     A
C131   H145    1.081   .     S
C132   H146    1.082   .     S
C132   N152    1.369   .     A
C133   H147    1.082   .     S
C133   N153    1.367   .     A
C133   C20     1.419   1_655 S
C134   O158    1.289   .     A
C134   O159    1.294   .     A
C135   C137    1.459   .     S
C135   O161    1.295   .     A
C135   O160    1.296   .     A
C136   C621    1.412   1_554 S
C136   Cl669   1.765   1_554 S
C138   H149    1.084   .     S
C138   C139    1.389   .     A
C139   C644    1.392   .     S
C139   Br671   1.911   .     S
C140   H150    1.079   .     S
C140   C643    1.392   1_554 S
C140   C618    1.413   1_554 S
Cu141  O154    1.956   .     S
Cu141  O158    1.957   .     S
Cu141  Cu142   2.685   .     S
Cu141  N152    2.018   .     S
Cu141  O156    1.947   .     S
Cu141  O160    1.935   .     S
Cu142  N153    2.018   .     S
Cu142  O159    1.956   .     S
Cu142  O161    1.947   .     S
Cu142  O155    1.957   .     S
Cu142  O157    1.935   .     S
Cl165  C640    1.765   .     S
Br167  C643    1.911   1_554 S
C169   C185    1.445   .     S
C169   O210    1.291   .     A
C169   O211    1.292   .     A
C170   C171    1.419   .     A
C170   C676    1.424   .     S
C170   C700    1.413   .     S
C171   C178    1.422   .     A
C171   C175    1.416   .     A
C172   C176    1.416   .     A
C172   C674    1.424   1_554 S
C172   C677    1.425   1_554 S
C173   C174    1.395   .     A
C173   C676    1.425   .     S
C173   C696    1.412   .     S
C174   C175    1.387   .     A
C174   H204    1.082   .     S
C175   Br224   1.915   .     S
C176   C193    1.399   .     A
C176   Br222   1.940   .     S
C177   H199    1.084   .     S
C177   C193    1.396   .     A
C177   C192    1.389   .     A
C178   C194    1.404   .     A
C178   C180    1.474   .     S
C179   H207    1.084   .     S
C179   C185    1.397   .     A
C179   C349    1.382   .     S
C180   O212    1.299   .     A
C180   O213    1.299   .     A
C181   H200    1.084   .     S
C181   C182    1.397   .     A
C182   C190    1.445   .     S
C182   C183    1.410   .     A
C183   Cl218   1.772   .     S
C184   Cl219   1.770   .     S
C184   C185    1.409   .     A
C184   C351    1.397   .     S
C186   Br220   1.916   .     S
C186   N209    1.383   .     A
C186   C243    1.412   .     S
C187   N208    1.357   .     A
C187   H201    1.081   .     S
C187   C298    1.412   1_455 S
C188   H202    1.082   .     S
C188   N208    1.369   .     A
C188   C301    1.419   1_455 S
C189   H203    1.082   .     S
C189   N209    1.367   .     A
C189   C244    1.419   .     S
C190   O214    1.289   .     A
C190   O215    1.294   .     A
C191   C193    1.459   .     S
C191   O217    1.295   .     A
C191   O216    1.296   .     A
C192   C677    1.412   1_554 S
C192   Cl725   1.765   1_554 S
C194   H205    1.084   .     S
C194   C195    1.389   .     A
C195   C700    1.392   .     S
C195   Br727   1.911   .     S
C196   H206    1.079   .     S
C196   C699    1.392   1_554 S
C196   C674    1.413   1_554 S
Cu197  O210    1.956   .     S
Cu197  O214    1.957   .     S
Cu197  Cu198   2.685   .     S
Cu197  N208    2.018   .     S
Cu197  O212    1.947   .     S
Cu197  O216    1.935   .     S
Cu198  N209    2.018   .     S
Cu198  O215    1.956   .     S
Cu198  O217    1.947   .     S
Cu198  O211    1.957   .     S
Cu198  O213    1.935   .     S
Cl221  C696    1.765   .     S
Br223  C699    1.911   1_554 S
C225   C241    1.445   .     S
C225   O266    1.291   .     A
C225   O267    1.292   .     A
C226   C227    1.419   .     A
C226   C732    1.424   .     S
C226   C756    1.413   .     S
C227   C234    1.422   .     A
C227   C231    1.416   .     A
C228   C232    1.416   .     A
C228   C730    1.424   1_554 S
C228   C733    1.425   1_554 S
C229   C230    1.395   .     A
C229   C732    1.425   .     S
C229   C752    1.412   .     S
C230   C231    1.387   .     A
C230   H260    1.082   .     S
C231   Br280   1.915   .     S
C232   C249    1.399   .     A
C232   Br278   1.940   .     S
C233   H255    1.084   .     S
C233   C249    1.396   .     A
C233   C248    1.389   .     A
C234   C250    1.404   .     A
C234   C236    1.474   .     S
C235   H263    1.084   .     S
C235   C241    1.397   .     A
C235   C405    1.382   .     S
C236   O268    1.299   .     A
C236   O269    1.299   .     A
C237   H256    1.084   .     S
C237   C238    1.397   .     A
C238   C246    1.445   .     S
C238   C239    1.410   .     A
C239   Cl274   1.772   .     S
C240   Cl275   1.770   .     S
C240   C241    1.409   .     A
C240   C407    1.397   .     S
C242   Br276   1.916   .     S
C242   N265    1.383   .     A
C242   C299    1.412   .     S
C243   N264    1.357   .     A
C243   H257    1.081   .     S
C244   H258    1.082   .     S
C244   N264    1.369   .     A
C245   H259    1.082   .     S
C245   N265    1.367   .     A
C245   C300    1.419   .     S
C246   O270    1.289   .     A
C246   O271    1.294   .     A
C247   C249    1.459   .     S
C247   O273    1.295   .     A
C247   O272    1.296   .     A
C248   C733    1.412   1_554 S
C248   Cl781   1.765   1_554 S
C250   H261    1.084   .     S
C250   C251    1.389   .     A
C251   C756    1.392   .     S
C251   Br783   1.911   .     S
C252   H262    1.079   .     S
C252   C755    1.392   1_554 S
C252   C730    1.413   1_554 S
Cu253  O266    1.956   .     S
Cu253  O270    1.957   .     S
Cu253  Cu254   2.685   .     S
Cu253  N264    2.018   .     S
Cu253  O268    1.947   .     S
Cu253  O272    1.935   .     S
Cu254  N265    2.018   .     S
Cu254  O271    1.956   .     S
Cu254  O273    1.947   .     S
Cu254  O267    1.957   .     S
Cu254  O269    1.935   .     S
Cl277  C752    1.765   .     S
Br279  C755    1.911   1_554 S
C281   C297    1.445   .     S
C281   O322    1.291   .     A
C281   O323    1.292   .     A
C282   C283    1.419   .     A
C282   C788    1.424   .     S
C282   C812    1.413   .     S
C283   C290    1.422   .     A
C283   C287    1.416   .     A
C284   C288    1.416   .     A
C284   C786    1.424   1_554 S
C284   C789    1.425   1_554 S
C285   C286    1.395   .     A
C285   C788    1.425   .     S
C285   C808    1.412   .     S
C286   C287    1.387   .     A
C286   H316    1.082   .     S
C287   Br336   1.915   .     S
C288   C305    1.399   .     A
C288   Br334   1.940   .     S
C289   H311    1.084   .     S
C289   C305    1.396   .     A
C289   C304    1.389   .     A
C290   C306    1.404   .     A
C290   C292    1.474   .     S
C291   H319    1.084   .     S
C291   C297    1.397   .     A
C291   C461    1.382   .     S
C292   O324    1.299   .     A
C292   O325    1.299   .     A
C293   H312    1.084   .     S
C293   C294    1.397   .     A
C294   C302    1.445   .     S
C294   C295    1.410   .     A
C295   Cl330   1.772   .     S
C296   Cl331   1.770   .     S
C296   C297    1.409   .     A
C296   C463    1.397   .     S
C298   Br332   1.916   .     S
C298   N321    1.383   .     A
C298   C187    1.412   1_655 S
C299   N320    1.357   .     A
C299   H313    1.081   .     S
C300   H314    1.082   .     S
C300   N320    1.369   .     A
C301   H315    1.082   .     S
C301   N321    1.367   .     A
C301   C188    1.419   1_655 S
C302   O326    1.289   .     A
C302   O327    1.294   .     A
C303   C305    1.459   .     S
C303   O329    1.295   .     A
C303   O328    1.296   .     A
C304   C789    1.412   1_554 S
C304   Cl837   1.765   1_554 S
C306   H317    1.084   .     S
C306   C307    1.389   .     A
C307   C812    1.392   .     S
C307   Br839   1.911   .     S
C308   H318    1.079   .     S
C308   C811    1.392   1_554 S
C308   C786    1.413   1_554 S
Cu309  O322    1.956   .     S
Cu309  O326    1.957   .     S
Cu309  Cu310   2.685   .     S
Cu309  N320    2.018   .     S
Cu309  O324    1.947   .     S
Cu309  O328    1.935   .     S
Cu310  N321    2.018   .     S
Cu310  O327    1.956   .     S
Cu310  O329    1.947   .     S
Cu310  O323    1.957   .     S
Cu310  O325    1.935   .     S
Cl333  C808    1.765   .     S
Br335  C811    1.911   1_554 S
C337   C353    1.445   .     S
C337   O378    1.291   .     A
C337   O379    1.292   .     A
C338   C339    1.419   .     A
C338   C844    1.424   .     S
C338   C868    1.413   .     S
C339   C346    1.422   .     A
C339   C343    1.416   .     A
C340   C344    1.416   .     A
C340   C842    1.424   1_554 S
C340   C845    1.425   1_554 S
C341   C342    1.395   .     A
C341   C844    1.425   .     S
C341   C864    1.412   .     S
C342   C343    1.387   .     A
C342   H372    1.082   .     S
C343   Br392   1.915   .     S
C344   C361    1.399   .     A
C344   Br390   1.940   .     S
C345   H367    1.084   .     S
C345   C361    1.396   .     A
C345   C360    1.389   .     A
C346   C362    1.404   .     A
C346   C348    1.474   .     S
C347   H375    1.084   .     S
C347   C353    1.397   .     A
C347   C13     1.382   1_565 S
C348   O380    1.299   .     A
C348   O381    1.299   .     A
C349   H368    1.084   .     S
C349   C350    1.397   .     A
C350   C358    1.445   .     S
C350   C351    1.410   .     A
C351   Cl386   1.772   .     S
C352   Cl387   1.770   .     S
C352   C353    1.409   .     A
C352   C15     1.397   1_565 S
C354   Br388   1.916   .     S
C354   N377    1.383   .     A
C354   C411    1.412   .     S
C355   N376    1.357   .     A
C355   H369    1.081   .     S
C355   C466    1.412   1_455 S
C356   H370    1.082   .     S
C356   N376    1.369   .     A
C356   C469    1.419   1_455 S
C357   H371    1.082   .     S
C357   N377    1.367   .     A
C357   C412    1.419   .     S
C358   O382    1.289   .     A
C358   O383    1.294   .     A
C359   C361    1.459   .     S
C359   O385    1.295   .     A
C359   O384    1.296   .     A
C360   C845    1.412   1_554 S
C360   Cl893   1.765   1_554 S
C362   H373    1.084   .     S
C362   C363    1.389   .     A
C363   C868    1.392   .     S
C363   Br895   1.911   .     S
C364   H374    1.079   .     S
C364   C867    1.392   1_554 S
C364   C842    1.413   1_554 S
Cu365  O378    1.956   .     S
Cu365  O382    1.957   .     S
Cu365  Cu366   2.685   .     S
Cu365  N376    2.018   .     S
Cu365  O380    1.947   .     S
Cu365  O384    1.935   .     S
Cu366  N377    2.018   .     S
Cu366  O383    1.956   .     S
Cu366  O385    1.947   .     S
Cu366  O379    1.957   .     S
Cu366  O381    1.935   .     S
Cl389  C864    1.765   .     S
Br391  C867    1.911   1_554 S
C393   C409    1.445   .     S
C393   O434    1.291   .     A
C393   O435    1.292   .     A
C394   C395    1.419   .     A
C394   C900    1.424   .     S
C394   C924    1.413   .     S
C395   C402    1.422   .     A
C395   C399    1.416   .     A
C396   C400    1.416   .     A
C396   C898    1.424   1_554 S
C396   C901    1.425   1_554 S
C397   C398    1.395   .     A
C397   C900    1.425   .     S
C397   C920    1.412   .     S
C398   C399    1.387   .     A
C398   H428    1.082   .     S
C399   Br448   1.915   .     S
C400   C417    1.399   .     A
C400   Br446   1.940   .     S
C401   H423    1.084   .     S
C401   C417    1.396   .     A
C401   C416    1.389   .     A
C402   C418    1.404   .     A
C402   C404    1.474   .     S
C403   H431    1.084   .     S
C403   C409    1.397   .     A
C403   C69     1.382   1_565 S
C404   O436    1.299   .     A
C404   O437    1.299   .     A
C405   H424    1.084   .     S
C405   C406    1.397   .     A
C406   C414    1.445   .     S
C406   C407    1.410   .     A
C407   Cl442   1.772   .     S
C408   Cl443   1.770   .     S
C408   C409    1.409   .     A
C408   C71     1.397   1_565 S
C410   Br444   1.916   .     S
C410   N433    1.383   .     A
C410   C467    1.412   .     S
C411   N432    1.357   .     A
C411   H425    1.081   .     S
C412   H426    1.082   .     S
C412   N432    1.369   .     A
C413   H427    1.082   .     S
C413   N433    1.367   .     A
C413   C468    1.419   .     S
C414   O438    1.289   .     A
C414   O439    1.294   .     A
C415   C417    1.459   .     S
C415   O441    1.295   .     A
C415   O440    1.296   .     A
C416   C901    1.412   1_554 S
C416   Cl949   1.765   1_554 S
C418   H429    1.084   .     S
C418   C419    1.389   .     A
C419   C924    1.392   .     S
C419   Br951   1.911   .     S
C420   H430    1.079   .     S
C420   C923    1.392   1_554 S
C420   C898    1.413   1_554 S
Cu421  O434    1.956   .     S
Cu421  O438    1.957   .     S
Cu421  Cu422   2.685   .     S
Cu421  N432    2.018   .     S
Cu421  O436    1.947   .     S
Cu421  O440    1.935   .     S
Cu422  N433    2.018   .     S
Cu422  O439    1.956   .     S
Cu422  O441    1.947   .     S
Cu422  O435    1.957   .     S
Cu422  O437    1.935   .     S
Cl445  C920    1.765   .     S
Br447  C923    1.911   1_554 S
C449   C465    1.445   .     S
C449   O490    1.291   .     A
C449   O491    1.292   .     A
C450   C451    1.419   .     A
C450   C956    1.424   .     S
C450   C980    1.413   .     S
C451   C458    1.422   .     A
C451   C455    1.416   .     A
C452   C456    1.416   .     A
C452   C954    1.424   1_554 S
C452   C957    1.425   1_554 S
C453   C454    1.395   .     A
C453   C956    1.425   .     S
C453   C976    1.412   .     S
C454   C455    1.387   .     A
C454   H484    1.082   .     S
C455   Br504   1.915   .     S
C456   C473    1.399   .     A
C456   Br502   1.940   .     S
C457   H479    1.084   .     S
C457   C473    1.396   .     A
C457   C472    1.389   .     A
C458   C474    1.404   .     A
C458   C460    1.474   .     S
C459   H487    1.084   .     S
C459   C465    1.397   .     A
C459   C125    1.382   1_565 S
C460   O492    1.299   .     A
C460   O493    1.299   .     A
C461   H480    1.084   .     S
C461   C462    1.397   .     A
C462   C470    1.445   .     S
C462   C463    1.410   .     A
C463   Cl498   1.772   .     S
C464   Cl499   1.770   .     S
C464   C465    1.409   .     A
C464   C127    1.397   1_565 S
C466   Br500   1.916   .     S
C466   N489    1.383   .     A
C466   C355    1.412   1_655 S
C467   N488    1.357   .     A
C467   H481    1.081   .     S
C468   H482    1.082   .     S
C468   N488    1.369   .     A
C469   H483    1.082   .     S
C469   N489    1.367   .     A
C469   C356    1.419   1_655 S
C470   O494    1.289   .     A
C470   O495    1.294   .     A
C471   C473    1.459   .     S
C471   O497    1.295   .     A
C471   O496    1.296   .     A
C472   C957    1.412   1_554 S
C472   Cl1005  1.765   1_554 S
C474   H485    1.084   .     S
C474   C475    1.389   .     A
C475   C980    1.392   .     S
C475   Br1007  1.911   .     S
C476   H486    1.079   .     S
C476   C979    1.392   1_554 S
C476   C954    1.413   1_554 S
Cu477  O490    1.956   .     S
Cu477  O494    1.957   .     S
Cu477  Cu478   2.685   .     S
Cu477  N488    2.018   .     S
Cu477  O492    1.947   .     S
Cu477  O496    1.935   .     S
Cu478  N489    2.018   .     S
Cu478  O495    1.956   .     S
Cu478  O497    1.947   .     S
Cu478  O491    1.957   .     S
Cu478  O493    1.935   .     S
Cl501  C976    1.765   .     S
Br503  C979    1.911   1_554 S
C505   C521    1.445   .     S
C505   O546    1.291   .     A
C505   O547    1.292   .     A
C506   C507    1.419   .     A
C506   C4      1.424   1_556 S
C506   C28     1.413   1_556 S
C507   C514    1.422   .     A
C507   C511    1.416   .     A
C508   C512    1.416   .     A
C509   C510    1.395   .     A
C509   C4      1.425   1_556 S
C509   C24     1.412   1_556 S
C510   C511    1.387   .     A
C510   H540    1.082   .     S
C511   Br560   1.915   .     S
C512   C529    1.399   .     A
C512   Br558   1.940   .     S
C513   H535    1.084   .     S
C513   C529    1.396   .     A
C513   C528    1.389   .     A
C514   C530    1.404   .     A
C514   C516    1.474   .     S
C515   H543    1.084   .     S
C515   C521    1.397   .     A
C515   C685    1.382   .     S
C516   O548    1.299   .     A
C516   O549    1.299   .     A
C517   H536    1.084   .     S
C517   C518    1.397   .     A
C517   C851    1.382   1_545 S
C518   C526    1.445   .     S
C518   C519    1.410   .     A
C519   Cl554   1.772   .     S
C519   C856    1.397   1_545 S
C520   Cl555   1.770   .     S
C520   C521    1.409   .     A
C520   C687    1.397   .     S
C522   Br556   1.916   .     S
C522   N545    1.383   .     A
C522   C579    1.412   .     S
C523   N544    1.357   .     A
C523   H537    1.081   .     S
C523   C634    1.412   1_455 S
C524   H538    1.082   .     S
C524   N544    1.369   .     A
C524   C637    1.419   1_455 S
C525   H539    1.082   .     S
C525   N545    1.367   .     A
C525   C580    1.419   .     S
C526   O550    1.289   .     A
C526   O551    1.294   .     A
C527   C529    1.459   .     S
C527   O553    1.295   .     A
C527   O552    1.296   .     A
C530   H541    1.084   .     S
C530   C531    1.389   .     A
C531   C28     1.392   1_556 S
C531   Br55    1.911   1_556 S
C532   H542    1.079   .     S
Cu533  O546    1.956   .     S
Cu533  O550    1.957   .     S
Cu533  Cu534   2.685   .     S
Cu533  N544    2.018   .     S
Cu533  O548    1.947   .     S
Cu533  O552    1.935   .     S
Cu534  N545    2.018   .     S
Cu534  O551    1.956   .     S
Cu534  O553    1.947   .     S
Cu534  O547    1.957   .     S
Cu534  O549    1.935   .     S
Cl557  C24     1.765   1_556 S
C561   C577    1.445   .     S
C561   O602    1.291   .     A
C561   O603    1.292   .     A
C562   C563    1.419   .     A
C562   C60     1.424   1_556 S
C562   C84     1.413   1_556 S
C563   C570    1.422   .     A
C563   C567    1.416   .     A
C564   C568    1.416   .     A
C565   C566    1.395   .     A
C565   C60     1.425   1_556 S
C565   C80     1.412   1_556 S
C566   C567    1.387   .     A
C566   H596    1.082   .     S
C567   Br616   1.915   .     S
C568   C585    1.399   .     A
C568   Br614   1.940   .     S
C569   H591    1.084   .     S
C569   C585    1.396   .     A
C569   C584    1.389   .     A
C570   C586    1.404   .     A
C570   C572    1.474   .     S
C571   H599    1.084   .     S
C571   C577    1.397   .     A
C571   C741    1.382   .     S
C572   O604    1.299   .     A
C572   O605    1.299   .     A
C573   H592    1.084   .     S
C573   C574    1.397   .     A
C573   C907    1.382   1_545 S
C574   C582    1.445   .     S
C574   C575    1.410   .     A
C575   Cl610   1.772   .     S
C575   C912    1.397   1_545 S
C576   Cl611   1.770   .     S
C576   C577    1.409   .     A
C576   C743    1.397   .     S
C578   Br612   1.916   .     S
C578   N601    1.383   .     A
C578   C635    1.412   .     S
C579   N600    1.357   .     A
C579   H593    1.081   .     S
C580   H594    1.082   .     S
C580   N600    1.369   .     A
C581   H595    1.082   .     S
C581   N601    1.367   .     A
C581   C636    1.419   .     S
C582   O606    1.289   .     A
C582   O607    1.294   .     A
C583   C585    1.459   .     S
C583   O609    1.295   .     A
C583   O608    1.296   .     A
C586   H597    1.084   .     S
C586   C587    1.389   .     A
C587   C84     1.392   1_556 S
C587   Br111   1.911   1_556 S
C588   H598    1.079   .     S
Cu589  O602    1.956   .     S
Cu589  O606    1.957   .     S
Cu589  Cu590   2.685   .     S
Cu589  N600    2.018   .     S
Cu589  O604    1.947   .     S
Cu589  O608    1.935   .     S
Cu590  N601    2.018   .     S
Cu590  O607    1.956   .     S
Cu590  O609    1.947   .     S
Cu590  O603    1.957   .     S
Cu590  O605    1.935   .     S
Cl613  C80     1.765   1_556 S
C617   C633    1.445   .     S
C617   O658    1.291   .     A
C617   O659    1.292   .     A
C618   C619    1.419   .     A
C618   C116    1.424   1_556 S
C618   C140    1.413   1_556 S
C619   C626    1.422   .     A
C619   C623    1.416   .     A
C620   C624    1.416   .     A
C621   C622    1.395   .     A
C621   C116    1.425   1_556 S
C621   C136    1.412   1_556 S
C622   C623    1.387   .     A
C622   H652    1.082   .     S
C623   Br672   1.915   .     S
C624   C641    1.399   .     A
C624   Br670   1.940   .     S
C625   H647    1.084   .     S
C625   C641    1.396   .     A
C625   C640    1.389   .     A
C626   C642    1.404   .     A
C626   C628    1.474   .     S
C627   H655    1.084   .     S
C627   C633    1.397   .     A
C627   C797    1.382   .     S
C628   O660    1.299   .     A
C628   O661    1.299   .     A
C629   H648    1.084   .     S
C629   C630    1.397   .     A
C629   C963    1.382   1_545 S
C630   C638    1.445   .     S
C630   C631    1.410   .     A
C631   Cl666   1.772   .     S
C631   C968    1.397   1_545 S
C632   Cl667   1.770   .     S
C632   C633    1.409   .     A
C632   C799    1.397   .     S
C634   Br668   1.916   .     S
C634   N657    1.383   .     A
C634   C523    1.412   1_655 S
C635   N656    1.357   .     A
C635   H649    1.081   .     S
C636   H650    1.082   .     S
C636   N656    1.369   .     A
C637   H651    1.082   .     S
C637   N657    1.367   .     A
C637   C524    1.419   1_655 S
C638   O662    1.289   .     A
C638   O663    1.294   .     A
C639   C641    1.459   .     S
C639   O665    1.295   .     A
C639   O664    1.296   .     A
C642   H653    1.084   .     S
C642   C643    1.389   .     A
C643   C140    1.392   1_556 S
C643   Br167   1.911   1_556 S
C644   H654    1.079   .     S
Cu645  O658    1.956   .     S
Cu645  O662    1.957   .     S
Cu645  Cu646   2.685   .     S
Cu645  N656    2.018   .     S
Cu645  O660    1.947   .     S
Cu645  O664    1.935   .     S
Cu646  N657    2.018   .     S
Cu646  O663    1.956   .     S
Cu646  O665    1.947   .     S
Cu646  O659    1.957   .     S
Cu646  O661    1.935   .     S
Cl669  C136    1.765   1_556 S
C673   C689    1.445   .     S
C673   O714    1.291   .     A
C673   O715    1.292   .     A
C674   C675    1.419   .     A
C674   C172    1.424   1_556 S
C674   C196    1.413   1_556 S
C675   C682    1.422   .     A
C675   C679    1.416   .     A
C676   C680    1.416   .     A
C677   C678    1.395   .     A
C677   C172    1.425   1_556 S
C677   C192    1.412   1_556 S
C678   C679    1.387   .     A
C678   H708    1.082   .     S
C679   Br728   1.915   .     S
C680   C697    1.399   .     A
C680   Br726   1.940   .     S
C681   H703    1.084   .     S
C681   C697    1.396   .     A
C681   C696    1.389   .     A
C682   C698    1.404   .     A
C682   C684    1.474   .     S
C683   H711    1.084   .     S
C683   C689    1.397   .     A
C683   C853    1.382   .     S
C684   O716    1.299   .     A
C684   O717    1.299   .     A
C685   H704    1.084   .     S
C685   C686    1.397   .     A
C686   C694    1.445   .     S
C686   C687    1.410   .     A
C687   Cl722   1.772   .     S
C688   Cl723   1.770   .     S
C688   C689    1.409   .     A
C688   C855    1.397   .     S
C690   Br724   1.916   .     S
C690   N713    1.383   .     A
C690   C747    1.412   .     S
C691   N712    1.357   .     A
C691   H705    1.081   .     S
C691   C802    1.412   1_455 S
C692   H706    1.082   .     S
C692   N712    1.369   .     A
C692   C805    1.419   1_455 S
C693   H707    1.082   .     S
C693   N713    1.367   .     A
C693   C748    1.419   .     S
C694   O718    1.289   .     A
C694   O719    1.294   .     A
C695   C697    1.459   .     S
C695   O721    1.295   .     A
C695   O720    1.296   .     A
C698   H709    1.084   .     S
C698   C699    1.389   .     A
C699   C196    1.392   1_556 S
C699   Br223   1.911   1_556 S
C700   H710    1.079   .     S
Cu701  O714    1.956   .     S
Cu701  O718    1.957   .     S
Cu701  Cu702   2.685   .     S
Cu701  N712    2.018   .     S
Cu701  O716    1.947   .     S
Cu701  O720    1.935   .     S
Cu702  N713    2.018   .     S
Cu702  O719    1.956   .     S
Cu702  O721    1.947   .     S
Cu702  O715    1.957   .     S
Cu702  O717    1.935   .     S
Cl725  C192    1.765   1_556 S
C729   C745    1.445   .     S
C729   O770    1.291   .     A
C729   O771    1.292   .     A
C730   C731    1.419   .     A
C730   C228    1.424   1_556 S
C730   C252    1.413   1_556 S
C731   C738    1.422   .     A
C731   C735    1.416   .     A
C732   C736    1.416   .     A
C733   C734    1.395   .     A
C733   C228    1.425   1_556 S
C733   C248    1.412   1_556 S
C734   C735    1.387   .     A
C734   H764    1.082   .     S
C735   Br784   1.915   .     S
C736   C753    1.399   .     A
C736   Br782   1.940   .     S
C737   H759    1.084   .     S
C737   C753    1.396   .     A
C737   C752    1.389   .     A
C738   C754    1.404   .     A
C738   C740    1.474   .     S
C739   H767    1.084   .     S
C739   C745    1.397   .     A
C739   C909    1.382   .     S
C740   O772    1.299   .     A
C740   O773    1.299   .     A
C741   H760    1.084   .     S
C741   C742    1.397   .     A
C742   C750    1.445   .     S
C742   C743    1.410   .     A
C743   Cl778   1.772   .     S
C744   Cl779   1.770   .     S
C744   C745    1.409   .     A
C744   C911    1.397   .     S
C746   Br780   1.916   .     S
C746   N769    1.383   .     A
C746   C803    1.412   .     S
C747   N768    1.357   .     A
C747   H761    1.081   .     S
C748   H762    1.082   .     S
C748   N768    1.369   .     A
C749   H763    1.082   .     S
C749   N769    1.367   .     A
C749   C804    1.419   .     S
C750   O774    1.289   .     A
C750   O775    1.294   .     A
C751   C753    1.459   .     S
C751   O777    1.295   .     A
C751   O776    1.296   .     A
C754   H765    1.084   .     S
C754   C755    1.389   .     A
C755   C252    1.392   1_556 S
C755   Br279   1.911   1_556 S
C756   H766    1.079   .     S
Cu757  O770    1.956   .     S
Cu757  O774    1.957   .     S
Cu757  Cu758   2.685   .     S
Cu757  N768    2.018   .     S
Cu757  O772    1.947   .     S
Cu757  O776    1.935   .     S
Cu758  N769    2.018   .     S
Cu758  O775    1.956   .     S
Cu758  O777    1.947   .     S
Cu758  O771    1.957   .     S
Cu758  O773    1.935   .     S
Cl781  C248    1.765   1_556 S
C785   C801    1.445   .     S
C785   O826    1.291   .     A
C785   O827    1.292   .     A
C786   C787    1.419   .     A
C786   C284    1.424   1_556 S
C786   C308    1.413   1_556 S
C787   C794    1.422   .     A
C787   C791    1.416   .     A
C788   C792    1.416   .     A
C789   C790    1.395   .     A
C789   C284    1.425   1_556 S
C789   C304    1.412   1_556 S
C790   C791    1.387   .     A
C790   H820    1.082   .     S
C791   Br840   1.915   .     S
C792   C809    1.399   .     A
C792   Br838   1.940   .     S
C793   H815    1.084   .     S
C793   C809    1.396   .     A
C793   C808    1.389   .     A
C794   C810    1.404   .     A
C794   C796    1.474   .     S
C795   H823    1.084   .     S
C795   C801    1.397   .     A
C795   C965    1.382   .     S
C796   O828    1.299   .     A
C796   O829    1.299   .     A
C797   H816    1.084   .     S
C797   C798    1.397   .     A
C798   C806    1.445   .     S
C798   C799    1.410   .     A
C799   Cl834   1.772   .     S
C800   Cl835   1.770   .     S
C800   C801    1.409   .     A
C800   C967    1.397   .     S
C802   Br836   1.916   .     S
C802   N825    1.383   .     A
C802   C691    1.412   1_655 S
C803   N824    1.357   .     A
C803   H817    1.081   .     S
C804   H818    1.082   .     S
C804   N824    1.369   .     A
C805   H819    1.082   .     S
C805   N825    1.367   .     A
C805   C692    1.419   1_655 S
C806   O830    1.289   .     A
C806   O831    1.294   .     A
C807   C809    1.459   .     S
C807   O833    1.295   .     A
C807   O832    1.296   .     A
C810   H821    1.084   .     S
C810   C811    1.389   .     A
C811   C308    1.392   1_556 S
C811   Br335   1.911   1_556 S
C812   H822    1.079   .     S
Cu813  O826    1.956   .     S
Cu813  O830    1.957   .     S
Cu813  Cu814   2.685   .     S
Cu813  N824    2.018   .     S
Cu813  O828    1.947   .     S
Cu813  O832    1.935   .     S
Cu814  N825    2.018   .     S
Cu814  O831    1.956   .     S
Cu814  O833    1.947   .     S
Cu814  O827    1.957   .     S
Cu814  O829    1.935   .     S
Cl837  C304    1.765   1_556 S
C841   C857    1.445   .     S
C841   O882    1.291   .     A
C841   O883    1.292   .     A
C842   C843    1.419   .     A
C842   C340    1.424   1_556 S
C842   C364    1.413   1_556 S
C843   C850    1.422   .     A
C843   C847    1.416   .     A
C844   C848    1.416   .     A
C845   C846    1.395   .     A
C845   C340    1.425   1_556 S
C845   C360    1.412   1_556 S
C846   C847    1.387   .     A
C846   H876    1.082   .     S
C847   Br896   1.915   .     S
C848   C865    1.399   .     A
C848   Br894   1.940   .     S
C849   H871    1.084   .     S
C849   C865    1.396   .     A
C849   C864    1.389   .     A
C850   C866    1.404   .     A
C850   C852    1.474   .     S
C851   H879    1.084   .     S
C851   C857    1.397   .     A
C851   C517    1.382   1_565 S
C852   O884    1.299   .     A
C852   O885    1.299   .     A
C853   H872    1.084   .     S
C853   C854    1.397   .     A
C854   C862    1.445   .     S
C854   C855    1.410   .     A
C855   Cl890   1.772   .     S
C856   Cl891   1.770   .     S
C856   C857    1.409   .     A
C856   C519    1.397   1_565 S
C858   Br892   1.916   .     S
C858   N881    1.383   .     A
C858   C915    1.412   .     S
C859   N880    1.357   .     A
C859   H873    1.081   .     S
C859   C970    1.412   1_455 S
C860   H874    1.082   .     S
C860   N880    1.369   .     A
C860   C973    1.419   1_455 S
C861   H875    1.082   .     S
C861   N881    1.367   .     A
C861   C916    1.419   .     S
C862   O886    1.289   .     A
C862   O887    1.294   .     A
C863   C865    1.459   .     S
C863   O889    1.295   .     A
C863   O888    1.296   .     A
C866   H877    1.084   .     S
C866   C867    1.389   .     A
C867   C364    1.392   1_556 S
C867   Br391   1.911   1_556 S
C868   H878    1.079   .     S
Cu869  O882    1.956   .     S
Cu869  O886    1.957   .     S
Cu869  Cu870   2.685   .     S
Cu869  N880    2.018   .     S
Cu869  O884    1.947   .     S
Cu869  O888    1.935   .     S
Cu870  N881    2.018   .     S
Cu870  O887    1.956   .     S
Cu870  O889    1.947   .     S
Cu870  O883    1.957   .     S
Cu870  O885    1.935   .     S
Cl893  C360    1.765   1_556 S
C897   C913    1.445   .     S
C897   O938    1.291   .     A
C897   O939    1.292   .     A
C898   C899    1.419   .     A
C898   C396    1.424   1_556 S
C898   C420    1.413   1_556 S
C899   C906    1.422   .     A
C899   C903    1.416   .     A
C900   C904    1.416   .     A
C901   C902    1.395   .     A
C901   C396    1.425   1_556 S
C901   C416    1.412   1_556 S
C902   C903    1.387   .     A
C902   H932    1.082   .     S
C903   Br952   1.915   .     S
C904   C921    1.399   .     A
C904   Br950   1.940   .     S
C905   H927    1.084   .     S
C905   C921    1.396   .     A
C905   C920    1.389   .     A
C906   C922    1.404   .     A
C906   C908    1.474   .     S
C907   H935    1.084   .     S
C907   C913    1.397   .     A
C907   C573    1.382   1_565 S
C908   O940    1.299   .     A
C908   O941    1.299   .     A
C909   H928    1.084   .     S
C909   C910    1.397   .     A
C910   C918    1.445   .     S
C910   C911    1.410   .     A
C911   Cl946   1.772   .     S
C912   Cl947   1.770   .     S
C912   C913    1.409   .     A
C912   C575    1.397   1_565 S
C914   Br948   1.916   .     S
C914   N937    1.383   .     A
C914   C971    1.412   .     S
C915   N936    1.357   .     A
C915   H929    1.081   .     S
C916   H930    1.082   .     S
C916   N936    1.369   .     A
C917   H931    1.082   .     S
C917   N937    1.367   .     A
C917   C972    1.419   .     S
C918   O942    1.289   .     A
C918   O943    1.294   .     A
C919   C921    1.459   .     S
C919   O945    1.295   .     A
C919   O944    1.296   .     A
C922   H933    1.084   .     S
C922   C923    1.389   .     A
C923   C420    1.392   1_556 S
C923   Br447   1.911   1_556 S
C924   H934    1.079   .     S
Cu925  O938    1.956   .     S
Cu925  O942    1.957   .     S
Cu925  Cu926   2.685   .     S
Cu925  N936    2.018   .     S
Cu925  O940    1.947   .     S
Cu925  O944    1.935   .     S
Cu926  N937    2.018   .     S
Cu926  O943    1.956   .     S
Cu926  O945    1.947   .     S
Cu926  O939    1.957   .     S
Cu926  O941    1.935   .     S
Cl949  C416    1.765   1_556 S
C953   C969    1.445   .     S
C953   O994    1.291   .     A
C953   O995    1.292   .     A
C954   C955    1.419   .     A
C954   C452    1.424   1_556 S
C954   C476    1.413   1_556 S
C955   C962    1.422   .     A
C955   C959    1.416   .     A
C956   C960    1.416   .     A
C957   C958    1.395   .     A
C957   C452    1.425   1_556 S
C957   C472    1.412   1_556 S
C958   C959    1.387   .     A
C958   H988    1.082   .     S
C959   Br1008  1.915   .     S
C960   C977    1.399   .     A
C960   Br1006  1.940   .     S
C961   H983    1.084   .     S
C961   C977    1.396   .     A
C961   C976    1.389   .     A
C962   C978    1.404   .     A
C962   C964    1.474   .     S
C963   H991    1.084   .     S
C963   C969    1.397   .     A
C963   C629    1.382   1_565 S
C964   O996    1.299   .     A
C964   O997    1.299   .     A
C965   H984    1.084   .     S
C965   C966    1.397   .     A
C966   C974    1.445   .     S
C966   C967    1.410   .     A
C967   Cl1002  1.772   .     S
C968   Cl1003  1.770   .     S
C968   C969    1.409   .     A
C968   C631    1.397   1_565 S
C970   Br1004  1.916   .     S
C970   N993    1.383   .     A
C970   C859    1.412   1_655 S
C971   N992    1.357   .     A
C971   H985    1.081   .     S
C972   H986    1.082   .     S
C972   N992    1.369   .     A
C973   H987    1.082   .     S
C973   N993    1.367   .     A
C973   C860    1.419   1_655 S
C974   O998    1.289   .     A
C974   O999    1.294   .     A
C975   C977    1.459   .     S
C975   O1001   1.295   .     A
C975   O1000   1.296   .     A
C978   H989    1.084   .     S
C978   C979    1.389   .     A
C979   C476    1.392   1_556 S
C979   Br503   1.911   1_556 S
C980   H990    1.079   .     S
Cu981  O994    1.956   .     S
Cu981  O998    1.957   .     S
Cu981  Cu982   2.685   .     S
Cu981  N992    2.018   .     S
Cu981  O996    1.947   .     S
Cu981  O1000   1.935   .     S
Cu982  N993    2.018   .     S
Cu982  O999    1.956   .     S
Cu982  O1001   1.947   .     S
Cu982  O995    1.957   .     S
Cu982  O997    1.935   .     S
Cl1005 C472    1.765   1_556 S
