data_str_m2_o1_o16_pcu_sym.232
_audit_creation_date              2020-01-03
_audit_creation_method            'Materials Studio'
_symmetry_space_group_name_H-M    'P1'
_symmetry_Int_Tables_number       1
_symmetry_cell_setting            triclinic
loop_
_symmetry_equiv_pos_as_xyz
  x,y,z
_cell_length_a                    28.5430
_cell_length_b                    32.5085
_cell_length_c                    26.7212
_cell_angle_alpha                 90.2257
_cell_angle_beta                  71.4191
_cell_angle_gamma                 89.7144
loop_
_atom_site_label
_atom_site_type_symbol
_atom_site_fract_x
_atom_site_fract_y
_atom_site_fract_z
_atom_site_U_iso_or_equiv
_atom_site_adp_type
_atom_site_occupancy
C1     C     0.16674   0.24602   0.24871   0.00000  Uiso   1.00
C2     C     0.14483   0.16439   0.49016   0.00000  Uiso   1.00
C3     C     0.15317   0.15120   0.43751   0.00000  Uiso   1.00
C4     C     0.18165   0.15648   0.01439   0.00000  Uiso   1.00
C5     C     0.22463   0.13332   0.48697   0.00000  Uiso   1.00
C6     C     0.22918   0.11580   0.43709   0.00000  Uiso   1.00
C7     C     0.19104   0.12181   0.41519   0.00000  Uiso   1.00
C8     C     0.17699   0.17129   0.06525   0.00000  Uiso   1.00
C9     C     0.25389   0.13843   0.06357   0.00000  Uiso   1.00
C10    C     0.12244   0.16661   0.40901   0.00000  Uiso   1.00
C11    C     0.20343   0.31186   0.26045   0.00000  Uiso   1.00
C12    C     0.13977   0.16604   0.35058   0.00000  Uiso   1.00
C13    C     0.20434   0.02101   0.26025   0.00000  Uiso   1.00
C14    C     0.16773   0.04299   0.24728   0.00000  Uiso   1.00
C15    C     0.13128   0.02246   0.23261   0.00000  Uiso   1.00
C16    C     0.13030   0.31311   0.23140   0.00000  Uiso   1.00
C17    C     0.16644   0.29080   0.24673   0.00000  Uiso   1.00
C18    C     0.29983   0.19503   0.27888   0.00000  Uiso   1.00
C19    C     0.01608   0.19495   0.27888   0.00000  Uiso   1.00
C20    C     0.03373   0.13843   0.22027   0.00000  Uiso   1.00
C21    C     0.31702   0.13828   0.22119   0.00000  Uiso   1.00
C22    C     0.16705   0.08744   0.24913   0.00000  Uiso   1.00
C23    C     0.19357   0.16565   0.14943   0.00000  Uiso   1.00
C24    C     0.26114   0.12641   0.01127   0.00000  Uiso   1.00
C25    C     0.21008   0.15979   0.09155   0.00000  Uiso   1.00
C26    C     0.07815   0.18759   0.43646   0.00000  Uiso   1.00
C27    C     0.06582   0.19383   0.49074   0.00000  Uiso   1.00
C28    C     0.09922   0.18396   0.01693   0.00000  Uiso   1.00
Cu29   Cu    0.11978   0.16666   0.25000   0.00000  Uiso   1.00
Cu30   Cu    0.21355   0.16667   0.25000   0.00000  Uiso   1.00
H31    H     0.23293   0.03664   0.27151   0.00000  Uiso   1.00
H32    H     0.10356   0.03980   0.22173   0.00000  Uiso   1.00
H33    H     0.27415   0.21773   0.30219   0.00000  Uiso   1.00
H34    H     0.02792   0.21753   0.30191   0.00000  Uiso   1.00
H35    H     0.30463   0.11507   0.19931   0.00000  Uiso   1.00
H36    H     0.29463   0.10965   0.49077   0.00000  Uiso   1.00
H37    H     0.14643   0.19063   0.08675   0.00000  Uiso   1.00
H38    H     0.08740   0.19116   0.05845   0.00000  Uiso   1.00
H39    H     0.03098   0.20843   0.01227   0.00000  Uiso   1.00
H40    H     0.23143   0.29551   0.27211   0.00000  Uiso   1.00
N41    N     0.04931   0.16666   0.24999   0.00000  Uiso   1.00
N42    N     0.28402   0.16669   0.25000   0.00000  Uiso   1.00
O43    O     0.12708   0.22678   0.25001   0.00000  Uiso   1.00
O44    O     0.20627   0.22679   0.25001   0.00000  Uiso   1.00
O45    O     0.10775   0.16665   0.32549   0.00000  Uiso   1.00
O46    O     0.18694   0.16666   0.32549   0.00000  Uiso   1.00
O47    O     0.12706   0.10654   0.25000   0.00000  Uiso   1.00
O48    O     0.20625   0.10655   0.25000   0.00000  Uiso   1.00
O49    O     0.14640   0.16667   0.17451   0.00000  Uiso   1.00
O50    O     0.22559   0.16668   0.17451   0.00000  Uiso   1.00
C51    C     0.29212   0.12612   0.08877   0.00000  Uiso   1.00
H52    H     0.30739   0.15391   0.10207   0.00000  Uiso   1.00
H53    H     0.27532   0.10545   0.12263   0.00000  Uiso   1.00
H54    H     0.32345   0.10923   0.06071   0.00000  Uiso   1.00
C55    C     0.09105   0.29310   0.21279   0.00000  Uiso   1.00
H56    H     0.06382   0.27731   0.24617   0.00000  Uiso   1.00
H57    H     0.07009   0.31593   0.19740   0.00000  Uiso   1.00
H58    H     0.10831   0.27103   0.18021   0.00000  Uiso   1.00
O59    O     0.06546   0.10730   0.19421   0.00000  Uiso   1.00
C60    C     0.07501   0.10919   0.13889   0.00000  Uiso   1.00
H61    H     0.11509   0.11442   0.12066   0.00000  Uiso   1.00
H62    H     0.05530   0.13448   0.12548   0.00000  Uiso   1.00
C63    C     0.06304   0.06794   0.11823   0.00000  Uiso   1.00
H64    H     0.07809   0.04246   0.13625   0.00000  Uiso   1.00
H65    H     0.02231   0.06435   0.12958   0.00000  Uiso   1.00
C66    C     0.08570   0.06481   0.05819   0.00000  Uiso   1.00
H67    H     0.07387   0.09113   0.03867   0.00000  Uiso   1.00
H68    H     0.07375   0.03580   0.04399   0.00000  Uiso   1.00
H69    H     0.12670   0.06467   0.04667   0.00000  Uiso   1.00
C70    C     0.27372   0.08980   0.40753   0.00000  Uiso   1.00
H71    H     0.27259   0.07898   0.36852   0.00000  Uiso   1.00
H72    H     0.30792   0.10823   0.39993   0.00000  Uiso   1.00
H73    H     0.27598   0.06229   0.43117   0.00000  Uiso   1.00
O74    O     0.04566   0.20101   0.41096   0.00000  Uiso   1.00
C75    C     0.05100   0.24393   0.40215   0.00000  Uiso   1.00
H76    H     0.07662   0.24900   0.36154   0.00000  Uiso   1.00
H77    H     0.06608   0.26045   0.43035   0.00000  Uiso   1.00
C78    C     0.00050   0.26294   0.40743   0.00000  Uiso   1.00
H79    H     0.31556   0.24532   0.38326   0.00000  Uiso   1.00
H80    H     0.30994   0.26128   0.44932   0.00000  Uiso   1.00
C81    C     0.00523   0.30778   0.38982   0.00000  Uiso   1.00
H82    H     0.02197   0.32635   0.41464   0.00000  Uiso   1.00
H83    H     0.30135   0.32054   0.39393   0.00000  Uiso   1.00
H84    H     0.02856   0.31008   0.34780   0.00000  Uiso   1.00
O85    O     0.18991   0.09735   0.37295   0.00000  Uiso   1.00
C86    C     0.15299   0.06686   0.39051   0.00000  Uiso   1.00
H87    H     0.13789   0.06057   0.35783   0.00000  Uiso   1.00
H88    H     0.12071   0.07667   0.42479   0.00000  Uiso   1.00
C89    C     0.17537   0.02710   0.40386   0.00000  Uiso   1.00
H90    H     0.20920   0.01872   0.37095   0.00000  Uiso   1.00
H91    H     0.18583   0.03194   0.44009   0.00000  Uiso   1.00
C92    C     0.13883   0.32499   0.41309   0.00000  Uiso   1.00
H93    H     0.10490   0.33242   0.44636   0.00000  Uiso   1.00
H94    H     0.15597   0.29672   0.42297   0.00000  Uiso   1.00
H95    H     0.12868   0.31891   0.37692   0.00000  Uiso   1.00
C96    C     0.50007   0.24602   0.24871   0.00000  Uiso   1.00
C97    C     0.47817   0.16439   0.49016   0.00000  Uiso   1.00
C98    C     0.48650   0.15120   0.43751   0.00000  Uiso   1.00
C99    C     0.51499   0.15648   0.01439   0.00000  Uiso   1.00
C100   C     0.55796   0.13332   0.48697   0.00000  Uiso   1.00
C101   C     0.56251   0.11580   0.43709   0.00000  Uiso   1.00
C102   C     0.52437   0.12181   0.41519   0.00000  Uiso   1.00
C103   C     0.51032   0.17129   0.06525   0.00000  Uiso   1.00
C104   C     0.58723   0.13843   0.06357   0.00000  Uiso   1.00
C105   C     0.45577   0.16661   0.40901   0.00000  Uiso   1.00
C106   C     0.53676   0.31186   0.26045   0.00000  Uiso   1.00
C107   C     0.47311   0.16604   0.35058   0.00000  Uiso   1.00
C108   C     0.53767   0.02101   0.26025   0.00000  Uiso   1.00
C109   C     0.50106   0.04299   0.24728   0.00000  Uiso   1.00
C110   C     0.46462   0.02246   0.23261   0.00000  Uiso   1.00
C111   C     0.46363   0.31311   0.23140   0.00000  Uiso   1.00
C112   C     0.49977   0.29080   0.24673   0.00000  Uiso   1.00
C113   C     0.63317   0.19503   0.27888   0.00000  Uiso   1.00
C114   C     0.34941   0.19495   0.27888   0.00000  Uiso   1.00
C115   C     0.36707   0.13843   0.22027   0.00000  Uiso   1.00
C116   C     0.65035   0.13828   0.22119   0.00000  Uiso   1.00
C117   C     0.50038   0.08744   0.24913   0.00000  Uiso   1.00
C118   C     0.52691   0.16565   0.14943   0.00000  Uiso   1.00
C119   C     0.59447   0.12641   0.01127   0.00000  Uiso   1.00
C120   C     0.54341   0.15979   0.09155   0.00000  Uiso   1.00
C121   C     0.41148   0.18759   0.43646   0.00000  Uiso   1.00
C122   C     0.39916   0.19383   0.49074   0.00000  Uiso   1.00
C123   C     0.43255   0.18396   0.01693   0.00000  Uiso   1.00
Cu124  Cu    0.45311   0.16666   0.25000   0.00000  Uiso   1.00
Cu125  Cu    0.54689   0.16667   0.25000   0.00000  Uiso   1.00
H126   H     0.56627   0.03664   0.27151   0.00000  Uiso   1.00
H127   H     0.43690   0.03980   0.22173   0.00000  Uiso   1.00
H128   H     0.60748   0.21773   0.30219   0.00000  Uiso   1.00
H129   H     0.36126   0.21753   0.30191   0.00000  Uiso   1.00
H130   H     0.63796   0.11507   0.19931   0.00000  Uiso   1.00
H131   H     0.62796   0.10965   0.49077   0.00000  Uiso   1.00
H132   H     0.47976   0.19063   0.08675   0.00000  Uiso   1.00
H133   H     0.42074   0.19116   0.05845   0.00000  Uiso   1.00
H134   H     0.36432   0.20843   0.01227   0.00000  Uiso   1.00
H135   H     0.56476   0.29551   0.27211   0.00000  Uiso   1.00
N136   N     0.38265   0.16666   0.24999   0.00000  Uiso   1.00
N137   N     0.61735   0.16669   0.25000   0.00000  Uiso   1.00
O138   O     0.46042   0.22678   0.25001   0.00000  Uiso   1.00
O139   O     0.53961   0.22679   0.25001   0.00000  Uiso   1.00
O140   O     0.44108   0.16665   0.32549   0.00000  Uiso   1.00
O141   O     0.52027   0.16666   0.32549   0.00000  Uiso   1.00
O142   O     0.46039   0.10654   0.25000   0.00000  Uiso   1.00
O143   O     0.53958   0.10655   0.25000   0.00000  Uiso   1.00
O144   O     0.47973   0.16667   0.17451   0.00000  Uiso   1.00
O145   O     0.55892   0.16668   0.17451   0.00000  Uiso   1.00
C146   C     0.62545   0.12612   0.08877   0.00000  Uiso   1.00
H147   H     0.64073   0.15391   0.10207   0.00000  Uiso   1.00
H148   H     0.60865   0.10545   0.12263   0.00000  Uiso   1.00
H149   H     0.65678   0.10923   0.06071   0.00000  Uiso   1.00
C150   C     0.42438   0.29310   0.21279   0.00000  Uiso   1.00
H151   H     0.39716   0.27731   0.24617   0.00000  Uiso   1.00
H152   H     0.40342   0.31593   0.19740   0.00000  Uiso   1.00
H153   H     0.44164   0.27103   0.18021   0.00000  Uiso   1.00
O154   O     0.39879   0.10730   0.19421   0.00000  Uiso   1.00
C155   C     0.40834   0.10919   0.13889   0.00000  Uiso   1.00
H156   H     0.44842   0.11442   0.12066   0.00000  Uiso   1.00
H157   H     0.38863   0.13448   0.12548   0.00000  Uiso   1.00
C158   C     0.39637   0.06794   0.11823   0.00000  Uiso   1.00
H159   H     0.41142   0.04246   0.13625   0.00000  Uiso   1.00
H160   H     0.35565   0.06435   0.12958   0.00000  Uiso   1.00
C161   C     0.41903   0.06481   0.05819   0.00000  Uiso   1.00
H162   H     0.40720   0.09113   0.03867   0.00000  Uiso   1.00
H163   H     0.40709   0.03580   0.04399   0.00000  Uiso   1.00
H164   H     0.46003   0.06467   0.04667   0.00000  Uiso   1.00
C165   C     0.60706   0.08980   0.40753   0.00000  Uiso   1.00
H166   H     0.60592   0.07898   0.36852   0.00000  Uiso   1.00
H167   H     0.64126   0.10823   0.39993   0.00000  Uiso   1.00
H168   H     0.60931   0.06229   0.43117   0.00000  Uiso   1.00
O169   O     0.37899   0.20101   0.41096   0.00000  Uiso   1.00
C170   C     0.38434   0.24393   0.40215   0.00000  Uiso   1.00
H171   H     0.40996   0.24900   0.36154   0.00000  Uiso   1.00
H172   H     0.39942   0.26045   0.43035   0.00000  Uiso   1.00
C173   C     0.33384   0.26294   0.40743   0.00000  Uiso   1.00
H174   H     0.64889   0.24532   0.38326   0.00000  Uiso   1.00
H175   H     0.64327   0.26128   0.44932   0.00000  Uiso   1.00
C176   C     0.33856   0.30778   0.38982   0.00000  Uiso   1.00
H177   H     0.35530   0.32635   0.41464   0.00000  Uiso   1.00
H178   H     0.63468   0.32054   0.39393   0.00000  Uiso   1.00
H179   H     0.36189   0.31008   0.34780   0.00000  Uiso   1.00
O180   O     0.52324   0.09735   0.37295   0.00000  Uiso   1.00
C181   C     0.48632   0.06686   0.39051   0.00000  Uiso   1.00
H182   H     0.47123   0.06057   0.35783   0.00000  Uiso   1.00
H183   H     0.45404   0.07667   0.42479   0.00000  Uiso   1.00
C184   C     0.50870   0.02710   0.40386   0.00000  Uiso   1.00
H185   H     0.54254   0.01872   0.37095   0.00000  Uiso   1.00
H186   H     0.51917   0.03194   0.44009   0.00000  Uiso   1.00
C187   C     0.47217   0.32499   0.41309   0.00000  Uiso   1.00
H188   H     0.43824   0.33242   0.44636   0.00000  Uiso   1.00
H189   H     0.48930   0.29672   0.42297   0.00000  Uiso   1.00
H190   H     0.46202   0.31891   0.37692   0.00000  Uiso   1.00
C191   C     0.83341   0.24602   0.24871   0.00000  Uiso   1.00
C192   C     0.81150   0.16439   0.49016   0.00000  Uiso   1.00
C193   C     0.81983   0.15120   0.43751   0.00000  Uiso   1.00
C194   C     0.84832   0.15648   0.01439   0.00000  Uiso   1.00
C195   C     0.89130   0.13332   0.48697   0.00000  Uiso   1.00
C196   C     0.89584   0.11580   0.43709   0.00000  Uiso   1.00
C197   C     0.85770   0.12181   0.41519   0.00000  Uiso   1.00
C198   C     0.84366   0.17129   0.06525   0.00000  Uiso   1.00
C199   C     0.92056   0.13843   0.06357   0.00000  Uiso   1.00
C200   C     0.78910   0.16661   0.40901   0.00000  Uiso   1.00
C201   C     0.87009   0.31186   0.26045   0.00000  Uiso   1.00
C202   C     0.80644   0.16604   0.35058   0.00000  Uiso   1.00
C203   C     0.87100   0.02101   0.26025   0.00000  Uiso   1.00
C204   C     0.83439   0.04299   0.24728   0.00000  Uiso   1.00
C205   C     0.79795   0.02246   0.23261   0.00000  Uiso   1.00
C206   C     0.79697   0.31311   0.23140   0.00000  Uiso   1.00
C207   C     0.83311   0.29080   0.24673   0.00000  Uiso   1.00
C208   C     0.96650   0.19503   0.27888   0.00000  Uiso   1.00
C209   C     0.68275   0.19495   0.27888   0.00000  Uiso   1.00
C210   C     0.70040   0.13843   0.22027   0.00000  Uiso   1.00
C211   C     0.98368   0.13828   0.22119   0.00000  Uiso   1.00
C212   C     0.83372   0.08744   0.24913   0.00000  Uiso   1.00
C213   C     0.86024   0.16565   0.14943   0.00000  Uiso   1.00
C214   C     0.92781   0.12641   0.01127   0.00000  Uiso   1.00
C215   C     0.87675   0.15979   0.09155   0.00000  Uiso   1.00
C216   C     0.74481   0.18759   0.43646   0.00000  Uiso   1.00
C217   C     0.73249   0.19383   0.49074   0.00000  Uiso   1.00
C218   C     0.76588   0.18396   0.01693   0.00000  Uiso   1.00
Cu219  Cu    0.78645   0.16666   0.25000   0.00000  Uiso   1.00
Cu220  Cu    0.88022   0.16667   0.25000   0.00000  Uiso   1.00
H221   H     0.89960   0.03664   0.27151   0.00000  Uiso   1.00
H222   H     0.77023   0.03980   0.22173   0.00000  Uiso   1.00
H223   H     0.94082   0.21773   0.30219   0.00000  Uiso   1.00
H224   H     0.69459   0.21753   0.30191   0.00000  Uiso   1.00
H225   H     0.97130   0.11507   0.19931   0.00000  Uiso   1.00
H226   H     0.96129   0.10965   0.49077   0.00000  Uiso   1.00
H227   H     0.81310   0.19063   0.08675   0.00000  Uiso   1.00
H228   H     0.75407   0.19116   0.05845   0.00000  Uiso   1.00
H229   H     0.69765   0.20843   0.01227   0.00000  Uiso   1.00
H230   H     0.89810   0.29551   0.27211   0.00000  Uiso   1.00
N231   N     0.71598   0.16666   0.24999   0.00000  Uiso   1.00
N232   N     0.95069   0.16669   0.25000   0.00000  Uiso   1.00
O233   O     0.79375   0.22678   0.25001   0.00000  Uiso   1.00
O234   O     0.87294   0.22679   0.25001   0.00000  Uiso   1.00
O235   O     0.77441   0.16665   0.32549   0.00000  Uiso   1.00
O236   O     0.85360   0.16666   0.32549   0.00000  Uiso   1.00
O237   O     0.79373   0.10654   0.25000   0.00000  Uiso   1.00
O238   O     0.87292   0.10655   0.25000   0.00000  Uiso   1.00
O239   O     0.81306   0.16667   0.17451   0.00000  Uiso   1.00
O240   O     0.89225   0.16668   0.17451   0.00000  Uiso   1.00
C241   C     0.95878   0.12612   0.08877   0.00000  Uiso   1.00
H242   H     0.97406   0.15391   0.10207   0.00000  Uiso   1.00
H243   H     0.94198   0.10545   0.12263   0.00000  Uiso   1.00
H244   H     0.99012   0.10923   0.06071   0.00000  Uiso   1.00
C245   C     0.75772   0.29310   0.21279   0.00000  Uiso   1.00
H246   H     0.73049   0.27731   0.24617   0.00000  Uiso   1.00
H247   H     0.73675   0.31593   0.19740   0.00000  Uiso   1.00
H248   H     0.77497   0.27103   0.18021   0.00000  Uiso   1.00
O249   O     0.73213   0.10730   0.19421   0.00000  Uiso   1.00
C250   C     0.74167   0.10919   0.13889   0.00000  Uiso   1.00
H251   H     0.78176   0.11442   0.12066   0.00000  Uiso   1.00
H252   H     0.72197   0.13448   0.12548   0.00000  Uiso   1.00
C253   C     0.72970   0.06794   0.11823   0.00000  Uiso   1.00
H254   H     0.74476   0.04246   0.13625   0.00000  Uiso   1.00
H255   H     0.68898   0.06435   0.12958   0.00000  Uiso   1.00
C256   C     0.75236   0.06481   0.05819   0.00000  Uiso   1.00
H257   H     0.74053   0.09113   0.03867   0.00000  Uiso   1.00
H258   H     0.74042   0.03580   0.04399   0.00000  Uiso   1.00
H259   H     0.79337   0.06467   0.04667   0.00000  Uiso   1.00
C260   C     0.94039   0.08980   0.40753   0.00000  Uiso   1.00
H261   H     0.93925   0.07898   0.36852   0.00000  Uiso   1.00
H262   H     0.97459   0.10823   0.39993   0.00000  Uiso   1.00
H263   H     0.94265   0.06229   0.43117   0.00000  Uiso   1.00
O264   O     0.71233   0.20101   0.41096   0.00000  Uiso   1.00
C265   C     0.71767   0.24393   0.40215   0.00000  Uiso   1.00
H266   H     0.74329   0.24900   0.36154   0.00000  Uiso   1.00
H267   H     0.73275   0.26045   0.43035   0.00000  Uiso   1.00
C268   C     0.66717   0.26294   0.40743   0.00000  Uiso   1.00
H269   H     0.98222   0.24532   0.38326   0.00000  Uiso   1.00
H270   H     0.97661   0.26128   0.44932   0.00000  Uiso   1.00
C271   C     0.67190   0.30778   0.38982   0.00000  Uiso   1.00
H272   H     0.68864   0.32635   0.41464   0.00000  Uiso   1.00
H273   H     0.96802   0.32054   0.39393   0.00000  Uiso   1.00
H274   H     0.69522   0.31008   0.34780   0.00000  Uiso   1.00
O275   O     0.85657   0.09735   0.37295   0.00000  Uiso   1.00
C276   C     0.81965   0.06686   0.39051   0.00000  Uiso   1.00
H277   H     0.80456   0.06057   0.35783   0.00000  Uiso   1.00
H278   H     0.78737   0.07667   0.42479   0.00000  Uiso   1.00
C279   C     0.84204   0.02710   0.40386   0.00000  Uiso   1.00
H280   H     0.87587   0.01872   0.37095   0.00000  Uiso   1.00
H281   H     0.85250   0.03194   0.44009   0.00000  Uiso   1.00
C282   C     0.80550   0.32499   0.41309   0.00000  Uiso   1.00
H283   H     0.77157   0.33242   0.44636   0.00000  Uiso   1.00
H284   H     0.82263   0.29672   0.42297   0.00000  Uiso   1.00
H285   H     0.79535   0.31891   0.37692   0.00000  Uiso   1.00
C286   C     0.16674   0.57935   0.24871   0.00000  Uiso   1.00
C287   C     0.14483   0.49773   0.49016   0.00000  Uiso   1.00
C288   C     0.15317   0.48453   0.43751   0.00000  Uiso   1.00
C289   C     0.18165   0.48981   0.01439   0.00000  Uiso   1.00
C290   C     0.22463   0.46665   0.48697   0.00000  Uiso   1.00
C291   C     0.22918   0.44914   0.43709   0.00000  Uiso   1.00
C292   C     0.19104   0.45514   0.41519   0.00000  Uiso   1.00
C293   C     0.17699   0.50462   0.06525   0.00000  Uiso   1.00
C294   C     0.25389   0.47176   0.06357   0.00000  Uiso   1.00
C295   C     0.12244   0.49994   0.40901   0.00000  Uiso   1.00
C296   C     0.20343   0.64519   0.26045   0.00000  Uiso   1.00
C297   C     0.13977   0.49937   0.35058   0.00000  Uiso   1.00
C298   C     0.20434   0.35435   0.26025   0.00000  Uiso   1.00
C299   C     0.16773   0.37632   0.24728   0.00000  Uiso   1.00
C300   C     0.13128   0.35579   0.23261   0.00000  Uiso   1.00
C301   C     0.13030   0.64645   0.23140   0.00000  Uiso   1.00
C302   C     0.16644   0.62413   0.24673   0.00000  Uiso   1.00
C303   C     0.29983   0.52836   0.27888   0.00000  Uiso   1.00
C304   C     0.01608   0.52829   0.27888   0.00000  Uiso   1.00
C305   C     0.03373   0.47177   0.22027   0.00000  Uiso   1.00
C306   C     0.31702   0.47162   0.22119   0.00000  Uiso   1.00
C307   C     0.16705   0.42077   0.24913   0.00000  Uiso   1.00
C308   C     0.19357   0.49898   0.14943   0.00000  Uiso   1.00
C309   C     0.26114   0.45974   0.01127   0.00000  Uiso   1.00
C310   C     0.21008   0.49312   0.09155   0.00000  Uiso   1.00
C311   C     0.07815   0.52092   0.43646   0.00000  Uiso   1.00
C312   C     0.06582   0.52716   0.49074   0.00000  Uiso   1.00
C313   C     0.09922   0.51729   0.01693   0.00000  Uiso   1.00
Cu314  Cu    0.11978   0.49999   0.25000   0.00000  Uiso   1.00
Cu315  Cu    0.21355   0.50001   0.25000   0.00000  Uiso   1.00
H316   H     0.23293   0.36997   0.27151   0.00000  Uiso   1.00
H317   H     0.10356   0.37314   0.22173   0.00000  Uiso   1.00
H318   H     0.27415   0.55107   0.30219   0.00000  Uiso   1.00
H319   H     0.02792   0.55087   0.30191   0.00000  Uiso   1.00
H320   H     0.30463   0.44840   0.19931   0.00000  Uiso   1.00
H321   H     0.29463   0.44298   0.49077   0.00000  Uiso   1.00
H322   H     0.14643   0.52396   0.08675   0.00000  Uiso   1.00
H323   H     0.08740   0.52449   0.05845   0.00000  Uiso   1.00
H324   H     0.03098   0.54176   0.01227   0.00000  Uiso   1.00
H325   H     0.23143   0.62884   0.27211   0.00000  Uiso   1.00
N326   N     0.04931   0.49999   0.24999   0.00000  Uiso   1.00
N327   N     0.28402   0.50002   0.25000   0.00000  Uiso   1.00
O328   O     0.12708   0.56011   0.25001   0.00000  Uiso   1.00
O329   O     0.20627   0.56012   0.25001   0.00000  Uiso   1.00
O330   O     0.10775   0.49998   0.32549   0.00000  Uiso   1.00
O331   O     0.18694   0.49999   0.32549   0.00000  Uiso   1.00
O332   O     0.12706   0.43988   0.25000   0.00000  Uiso   1.00
O333   O     0.20625   0.43989   0.25000   0.00000  Uiso   1.00
O334   O     0.14640   0.50001   0.17451   0.00000  Uiso   1.00
O335   O     0.22559   0.50002   0.17451   0.00000  Uiso   1.00
C336   C     0.29212   0.45946   0.08877   0.00000  Uiso   1.00
H337   H     0.30739   0.48724   0.10207   0.00000  Uiso   1.00
H338   H     0.27532   0.43878   0.12263   0.00000  Uiso   1.00
H339   H     0.32345   0.44257   0.06071   0.00000  Uiso   1.00
C340   C     0.09105   0.62643   0.21279   0.00000  Uiso   1.00
H341   H     0.06382   0.61064   0.24617   0.00000  Uiso   1.00
H342   H     0.07009   0.64927   0.19740   0.00000  Uiso   1.00
H343   H     0.10831   0.60436   0.18021   0.00000  Uiso   1.00
O344   O     0.06546   0.44063   0.19421   0.00000  Uiso   1.00
C345   C     0.07501   0.44252   0.13889   0.00000  Uiso   1.00
H346   H     0.11509   0.44775   0.12066   0.00000  Uiso   1.00
H347   H     0.05530   0.46782   0.12548   0.00000  Uiso   1.00
C348   C     0.06304   0.40127   0.11823   0.00000  Uiso   1.00
H349   H     0.07809   0.37579   0.13625   0.00000  Uiso   1.00
H350   H     0.02231   0.39768   0.12958   0.00000  Uiso   1.00
C351   C     0.08570   0.39814   0.05819   0.00000  Uiso   1.00
H352   H     0.07387   0.42446   0.03867   0.00000  Uiso   1.00
H353   H     0.07375   0.36913   0.04399   0.00000  Uiso   1.00
H354   H     0.12670   0.39800   0.04667   0.00000  Uiso   1.00
C355   C     0.27372   0.42313   0.40753   0.00000  Uiso   1.00
H356   H     0.27259   0.41231   0.36852   0.00000  Uiso   1.00
H357   H     0.30792   0.44156   0.39993   0.00000  Uiso   1.00
H358   H     0.27598   0.39562   0.43117   0.00000  Uiso   1.00
O359   O     0.04566   0.53435   0.41096   0.00000  Uiso   1.00
C360   C     0.05100   0.57727   0.40215   0.00000  Uiso   1.00
H361   H     0.07662   0.58234   0.36154   0.00000  Uiso   1.00
H362   H     0.06608   0.59378   0.43035   0.00000  Uiso   1.00
C363   C     0.00050   0.59627   0.40743   0.00000  Uiso   1.00
H364   H     0.31556   0.57865   0.38326   0.00000  Uiso   1.00
H365   H     0.30994   0.59461   0.44932   0.00000  Uiso   1.00
C366   C     0.00523   0.64111   0.38982   0.00000  Uiso   1.00
H367   H     0.02197   0.65968   0.41464   0.00000  Uiso   1.00
H368   H     0.30135   0.65388   0.39393   0.00000  Uiso   1.00
H369   H     0.02856   0.64342   0.34780   0.00000  Uiso   1.00
O370   O     0.18991   0.43068   0.37295   0.00000  Uiso   1.00
C371   C     0.15299   0.40019   0.39051   0.00000  Uiso   1.00
H372   H     0.13789   0.39390   0.35783   0.00000  Uiso   1.00
H373   H     0.12071   0.41000   0.42479   0.00000  Uiso   1.00
C374   C     0.17537   0.36043   0.40386   0.00000  Uiso   1.00
H375   H     0.20920   0.35205   0.37095   0.00000  Uiso   1.00
H376   H     0.18583   0.36528   0.44009   0.00000  Uiso   1.00
C377   C     0.13883   0.65832   0.41309   0.00000  Uiso   1.00
H378   H     0.10490   0.66575   0.44636   0.00000  Uiso   1.00
H379   H     0.15597   0.63005   0.42297   0.00000  Uiso   1.00
H380   H     0.12868   0.65224   0.37692   0.00000  Uiso   1.00
C381   C     0.50007   0.57935   0.24871   0.00000  Uiso   1.00
C382   C     0.47817   0.49773   0.49016   0.00000  Uiso   1.00
C383   C     0.48650   0.48453   0.43751   0.00000  Uiso   1.00
C384   C     0.51499   0.48981   0.01439   0.00000  Uiso   1.00
C385   C     0.55796   0.46665   0.48697   0.00000  Uiso   1.00
C386   C     0.56251   0.44914   0.43709   0.00000  Uiso   1.00
C387   C     0.52437   0.45514   0.41519   0.00000  Uiso   1.00
C388   C     0.51032   0.50462   0.06525   0.00000  Uiso   1.00
C389   C     0.58723   0.47176   0.06357   0.00000  Uiso   1.00
C390   C     0.45577   0.49994   0.40901   0.00000  Uiso   1.00
C391   C     0.53676   0.64519   0.26045   0.00000  Uiso   1.00
C392   C     0.47311   0.49937   0.35058   0.00000  Uiso   1.00
C393   C     0.53767   0.35435   0.26025   0.00000  Uiso   1.00
C394   C     0.50106   0.37632   0.24728   0.00000  Uiso   1.00
C395   C     0.46462   0.35579   0.23261   0.00000  Uiso   1.00
C396   C     0.46363   0.64645   0.23140   0.00000  Uiso   1.00
C397   C     0.49977   0.62413   0.24673   0.00000  Uiso   1.00
C398   C     0.63317   0.52836   0.27888   0.00000  Uiso   1.00
C399   C     0.34941   0.52829   0.27888   0.00000  Uiso   1.00
C400   C     0.36707   0.47177   0.22027   0.00000  Uiso   1.00
C401   C     0.65035   0.47162   0.22119   0.00000  Uiso   1.00
C402   C     0.50038   0.42077   0.24913   0.00000  Uiso   1.00
C403   C     0.52691   0.49898   0.14943   0.00000  Uiso   1.00
C404   C     0.59447   0.45974   0.01127   0.00000  Uiso   1.00
C405   C     0.54341   0.49312   0.09155   0.00000  Uiso   1.00
C406   C     0.41148   0.52092   0.43646   0.00000  Uiso   1.00
C407   C     0.39916   0.52716   0.49074   0.00000  Uiso   1.00
C408   C     0.43255   0.51729   0.01693   0.00000  Uiso   1.00
Cu409  Cu    0.45311   0.49999   0.25000   0.00000  Uiso   1.00
Cu410  Cu    0.54689   0.50001   0.25000   0.00000  Uiso   1.00
H411   H     0.56627   0.36997   0.27151   0.00000  Uiso   1.00
H412   H     0.43690   0.37314   0.22173   0.00000  Uiso   1.00
H413   H     0.60748   0.55107   0.30219   0.00000  Uiso   1.00
H414   H     0.36126   0.55087   0.30191   0.00000  Uiso   1.00
H415   H     0.63796   0.44840   0.19931   0.00000  Uiso   1.00
H416   H     0.62796   0.44298   0.49077   0.00000  Uiso   1.00
H417   H     0.47976   0.52396   0.08675   0.00000  Uiso   1.00
H418   H     0.42074   0.52449   0.05845   0.00000  Uiso   1.00
H419   H     0.36432   0.54176   0.01227   0.00000  Uiso   1.00
H420   H     0.56476   0.62884   0.27211   0.00000  Uiso   1.00
N421   N     0.38265   0.49999   0.24999   0.00000  Uiso   1.00
N422   N     0.61735   0.50002   0.25000   0.00000  Uiso   1.00
O423   O     0.46042   0.56011   0.25001   0.00000  Uiso   1.00
O424   O     0.53961   0.56012   0.25001   0.00000  Uiso   1.00
O425   O     0.44108   0.49998   0.32549   0.00000  Uiso   1.00
O426   O     0.52027   0.49999   0.32549   0.00000  Uiso   1.00
O427   O     0.46039   0.43988   0.25000   0.00000  Uiso   1.00
O428   O     0.53958   0.43989   0.25000   0.00000  Uiso   1.00
O429   O     0.47973   0.50001   0.17451   0.00000  Uiso   1.00
O430   O     0.55892   0.50002   0.17451   0.00000  Uiso   1.00
C431   C     0.62545   0.45946   0.08877   0.00000  Uiso   1.00
H432   H     0.64073   0.48724   0.10207   0.00000  Uiso   1.00
H433   H     0.60865   0.43878   0.12263   0.00000  Uiso   1.00
H434   H     0.65678   0.44257   0.06071   0.00000  Uiso   1.00
C435   C     0.42438   0.62643   0.21279   0.00000  Uiso   1.00
H436   H     0.39716   0.61064   0.24617   0.00000  Uiso   1.00
H437   H     0.40342   0.64927   0.19740   0.00000  Uiso   1.00
H438   H     0.44164   0.60436   0.18021   0.00000  Uiso   1.00
O439   O     0.39879   0.44063   0.19421   0.00000  Uiso   1.00
C440   C     0.40834   0.44252   0.13889   0.00000  Uiso   1.00
H441   H     0.44842   0.44775   0.12066   0.00000  Uiso   1.00
H442   H     0.38863   0.46782   0.12548   0.00000  Uiso   1.00
C443   C     0.39637   0.40127   0.11823   0.00000  Uiso   1.00
H444   H     0.41142   0.37579   0.13625   0.00000  Uiso   1.00
H445   H     0.35565   0.39768   0.12958   0.00000  Uiso   1.00
C446   C     0.41903   0.39814   0.05819   0.00000  Uiso   1.00
H447   H     0.40720   0.42446   0.03867   0.00000  Uiso   1.00
H448   H     0.40709   0.36913   0.04399   0.00000  Uiso   1.00
H449   H     0.46003   0.39800   0.04667   0.00000  Uiso   1.00
C450   C     0.60706   0.42313   0.40753   0.00000  Uiso   1.00
H451   H     0.60592   0.41231   0.36852   0.00000  Uiso   1.00
H452   H     0.64126   0.44156   0.39993   0.00000  Uiso   1.00
H453   H     0.60931   0.39562   0.43117   0.00000  Uiso   1.00
O454   O     0.37899   0.53435   0.41096   0.00000  Uiso   1.00
C455   C     0.38434   0.57727   0.40215   0.00000  Uiso   1.00
H456   H     0.40996   0.58234   0.36154   0.00000  Uiso   1.00
H457   H     0.39942   0.59378   0.43035   0.00000  Uiso   1.00
C458   C     0.33384   0.59627   0.40743   0.00000  Uiso   1.00
H459   H     0.64889   0.57865   0.38326   0.00000  Uiso   1.00
H460   H     0.64327   0.59461   0.44932   0.00000  Uiso   1.00
C461   C     0.33856   0.64111   0.38982   0.00000  Uiso   1.00
H462   H     0.35530   0.65968   0.41464   0.00000  Uiso   1.00
H463   H     0.63468   0.65388   0.39393   0.00000  Uiso   1.00
H464   H     0.36189   0.64342   0.34780   0.00000  Uiso   1.00
O465   O     0.52324   0.43068   0.37295   0.00000  Uiso   1.00
C466   C     0.48632   0.40019   0.39051   0.00000  Uiso   1.00
H467   H     0.47123   0.39390   0.35783   0.00000  Uiso   1.00
H468   H     0.45404   0.41000   0.42479   0.00000  Uiso   1.00
C469   C     0.50870   0.36043   0.40386   0.00000  Uiso   1.00
H470   H     0.54254   0.35205   0.37095   0.00000  Uiso   1.00
H471   H     0.51917   0.36528   0.44009   0.00000  Uiso   1.00
C472   C     0.47217   0.65832   0.41309   0.00000  Uiso   1.00
H473   H     0.43824   0.66575   0.44636   0.00000  Uiso   1.00
H474   H     0.48930   0.63005   0.42297   0.00000  Uiso   1.00
H475   H     0.46202   0.65224   0.37692   0.00000  Uiso   1.00
C476   C     0.83341   0.57935   0.24871   0.00000  Uiso   1.00
C477   C     0.81150   0.49773   0.49016   0.00000  Uiso   1.00
C478   C     0.81983   0.48453   0.43751   0.00000  Uiso   1.00
C479   C     0.84832   0.48981   0.01439   0.00000  Uiso   1.00
C480   C     0.89130   0.46665   0.48697   0.00000  Uiso   1.00
C481   C     0.89584   0.44914   0.43709   0.00000  Uiso   1.00
C482   C     0.85770   0.45514   0.41519   0.00000  Uiso   1.00
C483   C     0.84366   0.50462   0.06525   0.00000  Uiso   1.00
C484   C     0.92056   0.47176   0.06357   0.00000  Uiso   1.00
C485   C     0.78910   0.49994   0.40901   0.00000  Uiso   1.00
C486   C     0.87009   0.64519   0.26045   0.00000  Uiso   1.00
C487   C     0.80644   0.49937   0.35058   0.00000  Uiso   1.00
C488   C     0.87100   0.35435   0.26025   0.00000  Uiso   1.00
C489   C     0.83439   0.37632   0.24728   0.00000  Uiso   1.00
C490   C     0.79795   0.35579   0.23261   0.00000  Uiso   1.00
C491   C     0.79697   0.64645   0.23140   0.00000  Uiso   1.00
C492   C     0.83311   0.62413   0.24673   0.00000  Uiso   1.00
C493   C     0.96650   0.52836   0.27888   0.00000  Uiso   1.00
C494   C     0.68275   0.52829   0.27888   0.00000  Uiso   1.00
C495   C     0.70040   0.47177   0.22027   0.00000  Uiso   1.00
C496   C     0.98368   0.47162   0.22119   0.00000  Uiso   1.00
C497   C     0.83372   0.42077   0.24913   0.00000  Uiso   1.00
C498   C     0.86024   0.49898   0.14943   0.00000  Uiso   1.00
C499   C     0.92781   0.45974   0.01127   0.00000  Uiso   1.00
C500   C     0.87675   0.49312   0.09155   0.00000  Uiso   1.00
C501   C     0.74481   0.52092   0.43646   0.00000  Uiso   1.00
C502   C     0.73249   0.52716   0.49074   0.00000  Uiso   1.00
C503   C     0.76588   0.51729   0.01693   0.00000  Uiso   1.00
Cu504  Cu    0.78645   0.49999   0.25000   0.00000  Uiso   1.00
Cu505  Cu    0.88022   0.50001   0.25000   0.00000  Uiso   1.00
H506   H     0.89960   0.36997   0.27151   0.00000  Uiso   1.00
H507   H     0.77023   0.37314   0.22173   0.00000  Uiso   1.00
H508   H     0.94082   0.55107   0.30219   0.00000  Uiso   1.00
H509   H     0.69459   0.55087   0.30191   0.00000  Uiso   1.00
H510   H     0.97130   0.44840   0.19931   0.00000  Uiso   1.00
H511   H     0.96129   0.44298   0.49077   0.00000  Uiso   1.00
H512   H     0.81310   0.52396   0.08675   0.00000  Uiso   1.00
H513   H     0.75407   0.52449   0.05845   0.00000  Uiso   1.00
H514   H     0.69765   0.54176   0.01227   0.00000  Uiso   1.00
H515   H     0.89810   0.62884   0.27211   0.00000  Uiso   1.00
N516   N     0.71598   0.49999   0.24999   0.00000  Uiso   1.00
N517   N     0.95069   0.50002   0.25000   0.00000  Uiso   1.00
O518   O     0.79375   0.56011   0.25001   0.00000  Uiso   1.00
O519   O     0.87294   0.56012   0.25001   0.00000  Uiso   1.00
O520   O     0.77441   0.49998   0.32549   0.00000  Uiso   1.00
O521   O     0.85360   0.49999   0.32549   0.00000  Uiso   1.00
O522   O     0.79373   0.43988   0.25000   0.00000  Uiso   1.00
O523   O     0.87292   0.43989   0.25000   0.00000  Uiso   1.00
O524   O     0.81306   0.50001   0.17451   0.00000  Uiso   1.00
O525   O     0.89225   0.50002   0.17451   0.00000  Uiso   1.00
C526   C     0.95878   0.45946   0.08877   0.00000  Uiso   1.00
H527   H     0.97406   0.48724   0.10207   0.00000  Uiso   1.00
H528   H     0.94198   0.43878   0.12263   0.00000  Uiso   1.00
H529   H     0.99012   0.44257   0.06071   0.00000  Uiso   1.00
C530   C     0.75772   0.62643   0.21279   0.00000  Uiso   1.00
H531   H     0.73049   0.61064   0.24617   0.00000  Uiso   1.00
H532   H     0.73675   0.64927   0.19740   0.00000  Uiso   1.00
H533   H     0.77497   0.60436   0.18021   0.00000  Uiso   1.00
O534   O     0.73213   0.44063   0.19421   0.00000  Uiso   1.00
C535   C     0.74167   0.44252   0.13889   0.00000  Uiso   1.00
H536   H     0.78176   0.44775   0.12066   0.00000  Uiso   1.00
H537   H     0.72197   0.46782   0.12548   0.00000  Uiso   1.00
C538   C     0.72970   0.40127   0.11823   0.00000  Uiso   1.00
H539   H     0.74476   0.37579   0.13625   0.00000  Uiso   1.00
H540   H     0.68898   0.39768   0.12958   0.00000  Uiso   1.00
C541   C     0.75236   0.39814   0.05819   0.00000  Uiso   1.00
H542   H     0.74053   0.42446   0.03867   0.00000  Uiso   1.00
H543   H     0.74042   0.36913   0.04399   0.00000  Uiso   1.00
H544   H     0.79337   0.39800   0.04667   0.00000  Uiso   1.00
C545   C     0.94039   0.42313   0.40753   0.00000  Uiso   1.00
H546   H     0.93925   0.41231   0.36852   0.00000  Uiso   1.00
H547   H     0.97459   0.44156   0.39993   0.00000  Uiso   1.00
H548   H     0.94265   0.39562   0.43117   0.00000  Uiso   1.00
O549   O     0.71233   0.53435   0.41096   0.00000  Uiso   1.00
C550   C     0.71767   0.57727   0.40215   0.00000  Uiso   1.00
H551   H     0.74329   0.58234   0.36154   0.00000  Uiso   1.00
H552   H     0.73275   0.59378   0.43035   0.00000  Uiso   1.00
C553   C     0.66717   0.59627   0.40743   0.00000  Uiso   1.00
H554   H     0.98222   0.57865   0.38326   0.00000  Uiso   1.00
H555   H     0.97661   0.59461   0.44932   0.00000  Uiso   1.00
C556   C     0.67190   0.64111   0.38982   0.00000  Uiso   1.00
H557   H     0.68864   0.65968   0.41464   0.00000  Uiso   1.00
H558   H     0.96802   0.65388   0.39393   0.00000  Uiso   1.00
H559   H     0.69522   0.64342   0.34780   0.00000  Uiso   1.00
O560   O     0.85657   0.43068   0.37295   0.00000  Uiso   1.00
C561   C     0.81965   0.40019   0.39051   0.00000  Uiso   1.00
H562   H     0.80456   0.39390   0.35783   0.00000  Uiso   1.00
H563   H     0.78737   0.41000   0.42479   0.00000  Uiso   1.00
C564   C     0.84204   0.36043   0.40386   0.00000  Uiso   1.00
H565   H     0.87587   0.35205   0.37095   0.00000  Uiso   1.00
H566   H     0.85250   0.36528   0.44009   0.00000  Uiso   1.00
C567   C     0.80550   0.65832   0.41309   0.00000  Uiso   1.00
H568   H     0.77157   0.66575   0.44636   0.00000  Uiso   1.00
H569   H     0.82263   0.63005   0.42297   0.00000  Uiso   1.00
H570   H     0.79535   0.65224   0.37692   0.00000  Uiso   1.00
C571   C     0.16674   0.91269   0.24871   0.00000  Uiso   1.00
C572   C     0.14483   0.83106   0.49016   0.00000  Uiso   1.00
C573   C     0.15317   0.81787   0.43751   0.00000  Uiso   1.00
C574   C     0.18165   0.82315   0.01439   0.00000  Uiso   1.00
C575   C     0.22463   0.79998   0.48697   0.00000  Uiso   1.00
C576   C     0.22918   0.78247   0.43709   0.00000  Uiso   1.00
C577   C     0.19104   0.78847   0.41519   0.00000  Uiso   1.00
C578   C     0.17699   0.83795   0.06525   0.00000  Uiso   1.00
C579   C     0.25389   0.80510   0.06357   0.00000  Uiso   1.00
C580   C     0.12244   0.83327   0.40901   0.00000  Uiso   1.00
C581   C     0.20343   0.97852   0.26045   0.00000  Uiso   1.00
C582   C     0.13977   0.83270   0.35058   0.00000  Uiso   1.00
C583   C     0.20434   0.68768   0.26025   0.00000  Uiso   1.00
C584   C     0.16773   0.70966   0.24728   0.00000  Uiso   1.00
C585   C     0.13128   0.68913   0.23261   0.00000  Uiso   1.00
C586   C     0.13030   0.97978   0.23140   0.00000  Uiso   1.00
C587   C     0.16644   0.95746   0.24673   0.00000  Uiso   1.00
C588   C     0.29983   0.86170   0.27888   0.00000  Uiso   1.00
C589   C     0.01608   0.86162   0.27888   0.00000  Uiso   1.00
C590   C     0.03373   0.80510   0.22027   0.00000  Uiso   1.00
C591   C     0.31702   0.80495   0.22119   0.00000  Uiso   1.00
C592   C     0.16705   0.75411   0.24913   0.00000  Uiso   1.00
C593   C     0.19357   0.83231   0.14943   0.00000  Uiso   1.00
C594   C     0.26114   0.79308   0.01127   0.00000  Uiso   1.00
C595   C     0.21008   0.82646   0.09155   0.00000  Uiso   1.00
C596   C     0.07815   0.85426   0.43646   0.00000  Uiso   1.00
C597   C     0.06582   0.86050   0.49074   0.00000  Uiso   1.00
C598   C     0.09922   0.85062   0.01693   0.00000  Uiso   1.00
Cu599  Cu    0.11978   0.83333   0.25000   0.00000  Uiso   1.00
Cu600  Cu    0.21355   0.83334   0.25000   0.00000  Uiso   1.00
H601   H     0.23293   0.70330   0.27151   0.00000  Uiso   1.00
H602   H     0.10356   0.70647   0.22173   0.00000  Uiso   1.00
H603   H     0.27415   0.88440   0.30219   0.00000  Uiso   1.00
H604   H     0.02792   0.88420   0.30191   0.00000  Uiso   1.00
H605   H     0.30463   0.78173   0.19931   0.00000  Uiso   1.00
H606   H     0.29463   0.77632   0.49077   0.00000  Uiso   1.00
H607   H     0.14643   0.85730   0.08675   0.00000  Uiso   1.00
H608   H     0.08740   0.85783   0.05845   0.00000  Uiso   1.00
H609   H     0.03098   0.87510   0.01227   0.00000  Uiso   1.00
H610   H     0.23143   0.96217   0.27211   0.00000  Uiso   1.00
N611   N     0.04931   0.83332   0.24999   0.00000  Uiso   1.00
N612   N     0.28402   0.83335   0.25000   0.00000  Uiso   1.00
O613   O     0.12708   0.89345   0.25001   0.00000  Uiso   1.00
O614   O     0.20627   0.89346   0.25001   0.00000  Uiso   1.00
O615   O     0.10775   0.83332   0.32549   0.00000  Uiso   1.00
O616   O     0.18694   0.83333   0.32549   0.00000  Uiso   1.00
O617   O     0.12706   0.77321   0.25000   0.00000  Uiso   1.00
O618   O     0.20625   0.77322   0.25000   0.00000  Uiso   1.00
O619   O     0.14640   0.83334   0.17451   0.00000  Uiso   1.00
O620   O     0.22559   0.83335   0.17451   0.00000  Uiso   1.00
C621   C     0.29212   0.79279   0.08877   0.00000  Uiso   1.00
H622   H     0.30739   0.82057   0.10207   0.00000  Uiso   1.00
H623   H     0.27532   0.77212   0.12263   0.00000  Uiso   1.00
H624   H     0.32345   0.77590   0.06071   0.00000  Uiso   1.00
C625   C     0.09105   0.95977   0.21279   0.00000  Uiso   1.00
H626   H     0.06382   0.94398   0.24617   0.00000  Uiso   1.00
H627   H     0.07009   0.98260   0.19740   0.00000  Uiso   1.00
H628   H     0.10831   0.93770   0.18021   0.00000  Uiso   1.00
O629   O     0.06546   0.77396   0.19421   0.00000  Uiso   1.00
C630   C     0.07501   0.77586   0.13889   0.00000  Uiso   1.00
H631   H     0.11509   0.78109   0.12066   0.00000  Uiso   1.00
H632   H     0.05530   0.80115   0.12548   0.00000  Uiso   1.00
C633   C     0.06304   0.73461   0.11823   0.00000  Uiso   1.00
H634   H     0.07809   0.70912   0.13625   0.00000  Uiso   1.00
H635   H     0.02231   0.73102   0.12958   0.00000  Uiso   1.00
C636   C     0.08570   0.73148   0.05819   0.00000  Uiso   1.00
H637   H     0.07387   0.75780   0.03867   0.00000  Uiso   1.00
H638   H     0.07375   0.70247   0.04399   0.00000  Uiso   1.00
H639   H     0.12670   0.73134   0.04667   0.00000  Uiso   1.00
C640   C     0.27372   0.75647   0.40753   0.00000  Uiso   1.00
H641   H     0.27259   0.74565   0.36852   0.00000  Uiso   1.00
H642   H     0.30792   0.77490   0.39993   0.00000  Uiso   1.00
H643   H     0.27598   0.72896   0.43117   0.00000  Uiso   1.00
O644   O     0.04566   0.86768   0.41096   0.00000  Uiso   1.00
C645   C     0.05100   0.91060   0.40215   0.00000  Uiso   1.00
H646   H     0.07662   0.91567   0.36154   0.00000  Uiso   1.00
H647   H     0.06608   0.92711   0.43035   0.00000  Uiso   1.00
C648   C     0.00050   0.92960   0.40743   0.00000  Uiso   1.00
H649   H     0.31556   0.91199   0.38326   0.00000  Uiso   1.00
H650   H     0.30994   0.92794   0.44932   0.00000  Uiso   1.00
C651   C     0.00523   0.97445   0.38982   0.00000  Uiso   1.00
H652   H     0.02197   0.99302   0.41464   0.00000  Uiso   1.00
H653   H     0.30135   0.98721   0.39393   0.00000  Uiso   1.00
H654   H     0.02856   0.97675   0.34780   0.00000  Uiso   1.00
O655   O     0.18991   0.76401   0.37295   0.00000  Uiso   1.00
C656   C     0.15299   0.73353   0.39051   0.00000  Uiso   1.00
H657   H     0.13789   0.72723   0.35783   0.00000  Uiso   1.00
H658   H     0.12071   0.74333   0.42479   0.00000  Uiso   1.00
C659   C     0.17537   0.69376   0.40386   0.00000  Uiso   1.00
H660   H     0.20920   0.68539   0.37095   0.00000  Uiso   1.00
H661   H     0.18583   0.69861   0.44009   0.00000  Uiso   1.00
C662   C     0.13883   0.99166   0.41309   0.00000  Uiso   1.00
H663   H     0.10490   0.99909   0.44636   0.00000  Uiso   1.00
H664   H     0.15597   0.96338   0.42297   0.00000  Uiso   1.00
H665   H     0.12868   0.98558   0.37692   0.00000  Uiso   1.00
C666   C     0.50007   0.91269   0.24871   0.00000  Uiso   1.00
C667   C     0.47817   0.83106   0.49016   0.00000  Uiso   1.00
C668   C     0.48650   0.81787   0.43751   0.00000  Uiso   1.00
C669   C     0.51499   0.82315   0.01439   0.00000  Uiso   1.00
C670   C     0.55796   0.79998   0.48697   0.00000  Uiso   1.00
C671   C     0.56251   0.78247   0.43709   0.00000  Uiso   1.00
C672   C     0.52437   0.78847   0.41519   0.00000  Uiso   1.00
C673   C     0.51032   0.83795   0.06525   0.00000  Uiso   1.00
C674   C     0.58723   0.80510   0.06357   0.00000  Uiso   1.00
C675   C     0.45577   0.83327   0.40901   0.00000  Uiso   1.00
C676   C     0.53676   0.97852   0.26045   0.00000  Uiso   1.00
C677   C     0.47311   0.83270   0.35058   0.00000  Uiso   1.00
C678   C     0.53767   0.68768   0.26025   0.00000  Uiso   1.00
C679   C     0.50106   0.70966   0.24728   0.00000  Uiso   1.00
C680   C     0.46462   0.68913   0.23261   0.00000  Uiso   1.00
C681   C     0.46363   0.97978   0.23140   0.00000  Uiso   1.00
C682   C     0.49977   0.95746   0.24673   0.00000  Uiso   1.00
C683   C     0.63317   0.86170   0.27888   0.00000  Uiso   1.00
C684   C     0.34941   0.86162   0.27888   0.00000  Uiso   1.00
C685   C     0.36707   0.80510   0.22027   0.00000  Uiso   1.00
C686   C     0.65035   0.80495   0.22119   0.00000  Uiso   1.00
C687   C     0.50038   0.75411   0.24913   0.00000  Uiso   1.00
C688   C     0.52691   0.83231   0.14943   0.00000  Uiso   1.00
C689   C     0.59447   0.79308   0.01127   0.00000  Uiso   1.00
C690   C     0.54341   0.82646   0.09155   0.00000  Uiso   1.00
C691   C     0.41148   0.85426   0.43646   0.00000  Uiso   1.00
C692   C     0.39916   0.86050   0.49074   0.00000  Uiso   1.00
C693   C     0.43255   0.85062   0.01693   0.00000  Uiso   1.00
Cu694  Cu    0.45311   0.83333   0.25000   0.00000  Uiso   1.00
Cu695  Cu    0.54689   0.83334   0.25000   0.00000  Uiso   1.00
H696   H     0.56627   0.70330   0.27151   0.00000  Uiso   1.00
H697   H     0.43690   0.70647   0.22173   0.00000  Uiso   1.00
H698   H     0.60748   0.88440   0.30219   0.00000  Uiso   1.00
H699   H     0.36126   0.88420   0.30191   0.00000  Uiso   1.00
H700   H     0.63796   0.78173   0.19931   0.00000  Uiso   1.00
H701   H     0.62796   0.77632   0.49077   0.00000  Uiso   1.00
H702   H     0.47976   0.85730   0.08675   0.00000  Uiso   1.00
H703   H     0.42074   0.85783   0.05845   0.00000  Uiso   1.00
H704   H     0.36432   0.87510   0.01227   0.00000  Uiso   1.00
H705   H     0.56476   0.96217   0.27211   0.00000  Uiso   1.00
N706   N     0.38265   0.83332   0.24999   0.00000  Uiso   1.00
N707   N     0.61735   0.83335   0.25000   0.00000  Uiso   1.00
O708   O     0.46042   0.89345   0.25001   0.00000  Uiso   1.00
O709   O     0.53961   0.89346   0.25001   0.00000  Uiso   1.00
O710   O     0.44108   0.83332   0.32549   0.00000  Uiso   1.00
O711   O     0.52027   0.83333   0.32549   0.00000  Uiso   1.00
O712   O     0.46039   0.77321   0.25000   0.00000  Uiso   1.00
O713   O     0.53958   0.77322   0.25000   0.00000  Uiso   1.00
O714   O     0.47973   0.83334   0.17451   0.00000  Uiso   1.00
O715   O     0.55892   0.83335   0.17451   0.00000  Uiso   1.00
C716   C     0.62545   0.79279   0.08877   0.00000  Uiso   1.00
H717   H     0.64073   0.82057   0.10207   0.00000  Uiso   1.00
H718   H     0.60865   0.77212   0.12263   0.00000  Uiso   1.00
H719   H     0.65678   0.77590   0.06071   0.00000  Uiso   1.00
C720   C     0.42438   0.95977   0.21279   0.00000  Uiso   1.00
H721   H     0.39716   0.94398   0.24617   0.00000  Uiso   1.00
H722   H     0.40342   0.98260   0.19740   0.00000  Uiso   1.00
H723   H     0.44164   0.93770   0.18021   0.00000  Uiso   1.00
O724   O     0.39879   0.77396   0.19421   0.00000  Uiso   1.00
C725   C     0.40834   0.77586   0.13889   0.00000  Uiso   1.00
H726   H     0.44842   0.78109   0.12066   0.00000  Uiso   1.00
H727   H     0.38863   0.80115   0.12548   0.00000  Uiso   1.00
C728   C     0.39637   0.73461   0.11823   0.00000  Uiso   1.00
H729   H     0.41142   0.70912   0.13625   0.00000  Uiso   1.00
H730   H     0.35565   0.73102   0.12958   0.00000  Uiso   1.00
C731   C     0.41903   0.73148   0.05819   0.00000  Uiso   1.00
H732   H     0.40720   0.75780   0.03867   0.00000  Uiso   1.00
H733   H     0.40709   0.70247   0.04399   0.00000  Uiso   1.00
H734   H     0.46003   0.73134   0.04667   0.00000  Uiso   1.00
C735   C     0.60706   0.75647   0.40753   0.00000  Uiso   1.00
H736   H     0.60592   0.74565   0.36852   0.00000  Uiso   1.00
H737   H     0.64126   0.77490   0.39993   0.00000  Uiso   1.00
H738   H     0.60931   0.72896   0.43117   0.00000  Uiso   1.00
O739   O     0.37899   0.86768   0.41096   0.00000  Uiso   1.00
C740   C     0.38434   0.91060   0.40215   0.00000  Uiso   1.00
H741   H     0.40996   0.91567   0.36154   0.00000  Uiso   1.00
H742   H     0.39942   0.92711   0.43035   0.00000  Uiso   1.00
C743   C     0.33384   0.92960   0.40743   0.00000  Uiso   1.00
H744   H     0.64889   0.91199   0.38326   0.00000  Uiso   1.00
H745   H     0.64327   0.92794   0.44932   0.00000  Uiso   1.00
C746   C     0.33856   0.97445   0.38982   0.00000  Uiso   1.00
H747   H     0.35530   0.99302   0.41464   0.00000  Uiso   1.00
H748   H     0.63468   0.98721   0.39393   0.00000  Uiso   1.00
H749   H     0.36189   0.97675   0.34780   0.00000  Uiso   1.00
O750   O     0.52324   0.76401   0.37295   0.00000  Uiso   1.00
C751   C     0.48632   0.73353   0.39051   0.00000  Uiso   1.00
H752   H     0.47123   0.72723   0.35783   0.00000  Uiso   1.00
H753   H     0.45404   0.74333   0.42479   0.00000  Uiso   1.00
C754   C     0.50870   0.69376   0.40386   0.00000  Uiso   1.00
H755   H     0.54254   0.68539   0.37095   0.00000  Uiso   1.00
H756   H     0.51917   0.69861   0.44009   0.00000  Uiso   1.00
C757   C     0.47217   0.99166   0.41309   0.00000  Uiso   1.00
H758   H     0.43824   0.99909   0.44636   0.00000  Uiso   1.00
H759   H     0.48930   0.96338   0.42297   0.00000  Uiso   1.00
H760   H     0.46202   0.98558   0.37692   0.00000  Uiso   1.00
C761   C     0.83341   0.91269   0.24871   0.00000  Uiso   1.00
C762   C     0.81150   0.83106   0.49016   0.00000  Uiso   1.00
C763   C     0.81983   0.81787   0.43751   0.00000  Uiso   1.00
C764   C     0.84832   0.82315   0.01439   0.00000  Uiso   1.00
C765   C     0.89130   0.79998   0.48697   0.00000  Uiso   1.00
C766   C     0.89584   0.78247   0.43709   0.00000  Uiso   1.00
C767   C     0.85770   0.78847   0.41519   0.00000  Uiso   1.00
C768   C     0.84366   0.83795   0.06525   0.00000  Uiso   1.00
C769   C     0.92056   0.80510   0.06357   0.00000  Uiso   1.00
C770   C     0.78910   0.83327   0.40901   0.00000  Uiso   1.00
C771   C     0.87009   0.97852   0.26045   0.00000  Uiso   1.00
C772   C     0.80644   0.83270   0.35058   0.00000  Uiso   1.00
C773   C     0.87100   0.68768   0.26025   0.00000  Uiso   1.00
C774   C     0.83439   0.70966   0.24728   0.00000  Uiso   1.00
C775   C     0.79795   0.68913   0.23261   0.00000  Uiso   1.00
C776   C     0.79697   0.97978   0.23140   0.00000  Uiso   1.00
C777   C     0.83311   0.95746   0.24673   0.00000  Uiso   1.00
C778   C     0.96650   0.86170   0.27888   0.00000  Uiso   1.00
C779   C     0.68275   0.86162   0.27888   0.00000  Uiso   1.00
C780   C     0.70040   0.80510   0.22027   0.00000  Uiso   1.00
C781   C     0.98368   0.80495   0.22119   0.00000  Uiso   1.00
C782   C     0.83372   0.75411   0.24913   0.00000  Uiso   1.00
C783   C     0.86024   0.83231   0.14943   0.00000  Uiso   1.00
C784   C     0.92781   0.79308   0.01127   0.00000  Uiso   1.00
C785   C     0.87675   0.82646   0.09155   0.00000  Uiso   1.00
C786   C     0.74481   0.85426   0.43646   0.00000  Uiso   1.00
C787   C     0.73249   0.86050   0.49074   0.00000  Uiso   1.00
C788   C     0.76588   0.85062   0.01693   0.00000  Uiso   1.00
Cu789  Cu    0.78645   0.83333   0.25000   0.00000  Uiso   1.00
Cu790  Cu    0.88022   0.83334   0.25000   0.00000  Uiso   1.00
H791   H     0.89960   0.70330   0.27151   0.00000  Uiso   1.00
H792   H     0.77023   0.70647   0.22173   0.00000  Uiso   1.00
H793   H     0.94082   0.88440   0.30219   0.00000  Uiso   1.00
H794   H     0.69459   0.88420   0.30191   0.00000  Uiso   1.00
H795   H     0.97130   0.78173   0.19931   0.00000  Uiso   1.00
H796   H     0.96129   0.77632   0.49077   0.00000  Uiso   1.00
H797   H     0.81310   0.85730   0.08675   0.00000  Uiso   1.00
H798   H     0.75407   0.85783   0.05845   0.00000  Uiso   1.00
H799   H     0.69765   0.87510   0.01227   0.00000  Uiso   1.00
H800   H     0.89810   0.96217   0.27211   0.00000  Uiso   1.00
N801   N     0.71598   0.83332   0.24999   0.00000  Uiso   1.00
N802   N     0.95069   0.83335   0.25000   0.00000  Uiso   1.00
O803   O     0.79375   0.89345   0.25001   0.00000  Uiso   1.00
O804   O     0.87294   0.89346   0.25001   0.00000  Uiso   1.00
O805   O     0.77441   0.83332   0.32549   0.00000  Uiso   1.00
O806   O     0.85360   0.83333   0.32549   0.00000  Uiso   1.00
O807   O     0.79373   0.77321   0.25000   0.00000  Uiso   1.00
O808   O     0.87292   0.77322   0.25000   0.00000  Uiso   1.00
O809   O     0.81306   0.83334   0.17451   0.00000  Uiso   1.00
O810   O     0.89225   0.83335   0.17451   0.00000  Uiso   1.00
C811   C     0.95878   0.79279   0.08877   0.00000  Uiso   1.00
H812   H     0.97406   0.82057   0.10207   0.00000  Uiso   1.00
H813   H     0.94198   0.77212   0.12263   0.00000  Uiso   1.00
H814   H     0.99012   0.77590   0.06071   0.00000  Uiso   1.00
C815   C     0.75772   0.95977   0.21279   0.00000  Uiso   1.00
H816   H     0.73049   0.94398   0.24617   0.00000  Uiso   1.00
H817   H     0.73675   0.98260   0.19740   0.00000  Uiso   1.00
H818   H     0.77497   0.93770   0.18021   0.00000  Uiso   1.00
O819   O     0.73213   0.77396   0.19421   0.00000  Uiso   1.00
C820   C     0.74167   0.77586   0.13889   0.00000  Uiso   1.00
H821   H     0.78176   0.78109   0.12066   0.00000  Uiso   1.00
H822   H     0.72197   0.80115   0.12548   0.00000  Uiso   1.00
C823   C     0.72970   0.73461   0.11823   0.00000  Uiso   1.00
H824   H     0.74476   0.70912   0.13625   0.00000  Uiso   1.00
H825   H     0.68898   0.73102   0.12958   0.00000  Uiso   1.00
C826   C     0.75236   0.73148   0.05819   0.00000  Uiso   1.00
H827   H     0.74053   0.75780   0.03867   0.00000  Uiso   1.00
H828   H     0.74042   0.70247   0.04399   0.00000  Uiso   1.00
H829   H     0.79337   0.73134   0.04667   0.00000  Uiso   1.00
C830   C     0.94039   0.75647   0.40753   0.00000  Uiso   1.00
H831   H     0.93925   0.74565   0.36852   0.00000  Uiso   1.00
H832   H     0.97459   0.77490   0.39993   0.00000  Uiso   1.00
H833   H     0.94265   0.72896   0.43117   0.00000  Uiso   1.00
O834   O     0.71233   0.86768   0.41096   0.00000  Uiso   1.00
C835   C     0.71767   0.91060   0.40215   0.00000  Uiso   1.00
H836   H     0.74329   0.91567   0.36154   0.00000  Uiso   1.00
H837   H     0.73275   0.92711   0.43035   0.00000  Uiso   1.00
C838   C     0.66717   0.92960   0.40743   0.00000  Uiso   1.00
H839   H     0.98222   0.91199   0.38326   0.00000  Uiso   1.00
H840   H     0.97661   0.92794   0.44932   0.00000  Uiso   1.00
C841   C     0.67190   0.97445   0.38982   0.00000  Uiso   1.00
H842   H     0.68864   0.99302   0.41464   0.00000  Uiso   1.00
H843   H     0.96802   0.98721   0.39393   0.00000  Uiso   1.00
H844   H     0.69522   0.97675   0.34780   0.00000  Uiso   1.00
O845   O     0.85657   0.76401   0.37295   0.00000  Uiso   1.00
C846   C     0.81965   0.73353   0.39051   0.00000  Uiso   1.00
H847   H     0.80456   0.72723   0.35783   0.00000  Uiso   1.00
H848   H     0.78737   0.74333   0.42479   0.00000  Uiso   1.00
C849   C     0.84204   0.69376   0.40386   0.00000  Uiso   1.00
H850   H     0.87587   0.68539   0.37095   0.00000  Uiso   1.00
H851   H     0.85250   0.69861   0.44009   0.00000  Uiso   1.00
C852   C     0.80550   0.99166   0.41309   0.00000  Uiso   1.00
H853   H     0.77157   0.99909   0.44636   0.00000  Uiso   1.00
H854   H     0.82263   0.96338   0.42297   0.00000  Uiso   1.00
H855   H     0.79535   0.98558   0.37692   0.00000  Uiso   1.00
C856   C     0.16674   0.24602   0.74871   0.00000  Uiso   1.00
C857   C     0.14483   0.16439   0.99016   0.00000  Uiso   1.00
C858   C     0.15317   0.15120   0.93751   0.00000  Uiso   1.00
C859   C     0.18165   0.15648   0.51439   0.00000  Uiso   1.00
C860   C     0.22463   0.13332   0.98697   0.00000  Uiso   1.00
C861   C     0.22918   0.11580   0.93709   0.00000  Uiso   1.00
C862   C     0.19104   0.12181   0.91519   0.00000  Uiso   1.00
C863   C     0.17699   0.17129   0.56525   0.00000  Uiso   1.00
C864   C     0.25389   0.13843   0.56357   0.00000  Uiso   1.00
C865   C     0.12244   0.16661   0.90901   0.00000  Uiso   1.00
C866   C     0.20343   0.31186   0.76045   0.00000  Uiso   1.00
C867   C     0.13977   0.16604   0.85058   0.00000  Uiso   1.00
C868   C     0.20434   0.02101   0.76025   0.00000  Uiso   1.00
C869   C     0.16773   0.04299   0.74728   0.00000  Uiso   1.00
C870   C     0.13128   0.02246   0.73261   0.00000  Uiso   1.00
C871   C     0.13030   0.31311   0.73140   0.00000  Uiso   1.00
C872   C     0.16644   0.29080   0.74673   0.00000  Uiso   1.00
C873   C     0.29983   0.19503   0.77888   0.00000  Uiso   1.00
C874   C     0.01608   0.19495   0.77888   0.00000  Uiso   1.00
C875   C     0.03373   0.13843   0.72027   0.00000  Uiso   1.00
C876   C     0.31702   0.13828   0.72119   0.00000  Uiso   1.00
C877   C     0.16705   0.08744   0.74913   0.00000  Uiso   1.00
C878   C     0.19357   0.16565   0.64943   0.00000  Uiso   1.00
C879   C     0.26114   0.12641   0.51127   0.00000  Uiso   1.00
C880   C     0.21008   0.15979   0.59155   0.00000  Uiso   1.00
C881   C     0.07815   0.18759   0.93646   0.00000  Uiso   1.00
C882   C     0.06582   0.19383   0.99074   0.00000  Uiso   1.00
C883   C     0.09922   0.18396   0.51693   0.00000  Uiso   1.00
Cu884  Cu    0.11978   0.16666   0.75000   0.00000  Uiso   1.00
Cu885  Cu    0.21355   0.16667   0.75000   0.00000  Uiso   1.00
H886   H     0.23293   0.03664   0.77151   0.00000  Uiso   1.00
H887   H     0.10356   0.03980   0.72173   0.00000  Uiso   1.00
H888   H     0.27415   0.21773   0.80219   0.00000  Uiso   1.00
H889   H     0.02792   0.21753   0.80191   0.00000  Uiso   1.00
H890   H     0.30463   0.11507   0.69931   0.00000  Uiso   1.00
H891   H     0.29463   0.10965   0.99077   0.00000  Uiso   1.00
H892   H     0.14643   0.19063   0.58675   0.00000  Uiso   1.00
H893   H     0.08740   0.19116   0.55845   0.00000  Uiso   1.00
H894   H     0.03098   0.20843   0.51227   0.00000  Uiso   1.00
H895   H     0.23143   0.29551   0.77211   0.00000  Uiso   1.00
N896   N     0.04931   0.16666   0.74999   0.00000  Uiso   1.00
N897   N     0.28402   0.16669   0.75000   0.00000  Uiso   1.00
O898   O     0.12708   0.22678   0.75001   0.00000  Uiso   1.00
O899   O     0.20627   0.22679   0.75001   0.00000  Uiso   1.00
O900   O     0.10775   0.16665   0.82549   0.00000  Uiso   1.00
O901   O     0.18694   0.16666   0.82549   0.00000  Uiso   1.00
O902   O     0.12706   0.10654   0.75000   0.00000  Uiso   1.00
O903   O     0.20625   0.10655   0.75000   0.00000  Uiso   1.00
O904   O     0.14640   0.16667   0.67451   0.00000  Uiso   1.00
O905   O     0.22559   0.16668   0.67451   0.00000  Uiso   1.00
C906   C     0.29212   0.12612   0.58877   0.00000  Uiso   1.00
H907   H     0.30739   0.15391   0.60207   0.00000  Uiso   1.00
H908   H     0.27532   0.10545   0.62263   0.00000  Uiso   1.00
H909   H     0.32345   0.10923   0.56071   0.00000  Uiso   1.00
C910   C     0.09105   0.29310   0.71279   0.00000  Uiso   1.00
H911   H     0.06382   0.27731   0.74617   0.00000  Uiso   1.00
H912   H     0.07009   0.31593   0.69740   0.00000  Uiso   1.00
H913   H     0.10831   0.27103   0.68021   0.00000  Uiso   1.00
O914   O     0.06546   0.10730   0.69421   0.00000  Uiso   1.00
C915   C     0.07501   0.10919   0.63889   0.00000  Uiso   1.00
H916   H     0.11509   0.11442   0.62066   0.00000  Uiso   1.00
H917   H     0.05530   0.13448   0.62548   0.00000  Uiso   1.00
C918   C     0.06304   0.06794   0.61823   0.00000  Uiso   1.00
H919   H     0.07809   0.04246   0.63625   0.00000  Uiso   1.00
H920   H     0.02231   0.06435   0.62958   0.00000  Uiso   1.00
C921   C     0.08570   0.06481   0.55819   0.00000  Uiso   1.00
H922   H     0.07387   0.09113   0.53867   0.00000  Uiso   1.00
H923   H     0.07375   0.03580   0.54399   0.00000  Uiso   1.00
H924   H     0.12670   0.06467   0.54667   0.00000  Uiso   1.00
C925   C     0.27372   0.08980   0.90753   0.00000  Uiso   1.00
H926   H     0.27259   0.07898   0.86852   0.00000  Uiso   1.00
H927   H     0.30792   0.10823   0.89993   0.00000  Uiso   1.00
H928   H     0.27598   0.06229   0.93117   0.00000  Uiso   1.00
O929   O     0.04566   0.20101   0.91096   0.00000  Uiso   1.00
C930   C     0.05100   0.24393   0.90215   0.00000  Uiso   1.00
H931   H     0.07662   0.24900   0.86154   0.00000  Uiso   1.00
H932   H     0.06608   0.26045   0.93035   0.00000  Uiso   1.00
C933   C     0.00050   0.26294   0.90743   0.00000  Uiso   1.00
H934   H     0.31556   0.24532   0.88326   0.00000  Uiso   1.00
H935   H     0.30994   0.26128   0.94932   0.00000  Uiso   1.00
C936   C     0.00523   0.30778   0.88982   0.00000  Uiso   1.00
H937   H     0.02197   0.32635   0.91464   0.00000  Uiso   1.00
H938   H     0.30135   0.32054   0.89393   0.00000  Uiso   1.00
H939   H     0.02856   0.31008   0.84780   0.00000  Uiso   1.00
O940   O     0.18991   0.09735   0.87295   0.00000  Uiso   1.00
C941   C     0.15299   0.06686   0.89051   0.00000  Uiso   1.00
H942   H     0.13789   0.06057   0.85783   0.00000  Uiso   1.00
H943   H     0.12071   0.07667   0.92479   0.00000  Uiso   1.00
C944   C     0.17537   0.02710   0.90386   0.00000  Uiso   1.00
H945   H     0.20920   0.01872   0.87095   0.00000  Uiso   1.00
H946   H     0.18583   0.03194   0.94009   0.00000  Uiso   1.00
C947   C     0.13883   0.32499   0.91309   0.00000  Uiso   1.00
H948   H     0.10490   0.33242   0.94636   0.00000  Uiso   1.00
H949   H     0.15597   0.29672   0.92297   0.00000  Uiso   1.00
H950   H     0.12868   0.31891   0.87692   0.00000  Uiso   1.00
C951   C     0.50007   0.24602   0.74871   0.00000  Uiso   1.00
C952   C     0.47817   0.16439   0.99016   0.00000  Uiso   1.00
C953   C     0.48650   0.15120   0.93751   0.00000  Uiso   1.00
C954   C     0.51499   0.15648   0.51439   0.00000  Uiso   1.00
C955   C     0.55796   0.13332   0.98697   0.00000  Uiso   1.00
C956   C     0.56251   0.11580   0.93709   0.00000  Uiso   1.00
C957   C     0.52437   0.12181   0.91519   0.00000  Uiso   1.00
C958   C     0.51032   0.17129   0.56525   0.00000  Uiso   1.00
C959   C     0.58723   0.13843   0.56357   0.00000  Uiso   1.00
C960   C     0.45577   0.16661   0.90901   0.00000  Uiso   1.00
C961   C     0.53676   0.31186   0.76045   0.00000  Uiso   1.00
C962   C     0.47311   0.16604   0.85058   0.00000  Uiso   1.00
C963   C     0.53767   0.02101   0.76025   0.00000  Uiso   1.00
C964   C     0.50106   0.04299   0.74728   0.00000  Uiso   1.00
C965   C     0.46462   0.02246   0.73261   0.00000  Uiso   1.00
C966   C     0.46363   0.31311   0.73140   0.00000  Uiso   1.00
C967   C     0.49977   0.29080   0.74673   0.00000  Uiso   1.00
C968   C     0.63317   0.19503   0.77888   0.00000  Uiso   1.00
C969   C     0.34941   0.19495   0.77888   0.00000  Uiso   1.00
C970   C     0.36707   0.13843   0.72027   0.00000  Uiso   1.00
C971   C     0.65035   0.13828   0.72119   0.00000  Uiso   1.00
C972   C     0.50038   0.08744   0.74913   0.00000  Uiso   1.00
C973   C     0.52691   0.16565   0.64943   0.00000  Uiso   1.00
C974   C     0.59447   0.12641   0.51127   0.00000  Uiso   1.00
C975   C     0.54341   0.15979   0.59155   0.00000  Uiso   1.00
C976   C     0.41148   0.18759   0.93646   0.00000  Uiso   1.00
C977   C     0.39916   0.19383   0.99074   0.00000  Uiso   1.00
C978   C     0.43255   0.18396   0.51693   0.00000  Uiso   1.00
Cu979  Cu    0.45311   0.16666   0.75000   0.00000  Uiso   1.00
Cu980  Cu    0.54689   0.16667   0.75000   0.00000  Uiso   1.00
H981   H     0.56627   0.03664   0.77151   0.00000  Uiso   1.00
H982   H     0.43690   0.03980   0.72173   0.00000  Uiso   1.00
H983   H     0.60748   0.21773   0.80219   0.00000  Uiso   1.00
H984   H     0.36126   0.21753   0.80191   0.00000  Uiso   1.00
H985   H     0.63796   0.11507   0.69931   0.00000  Uiso   1.00
H986   H     0.62796   0.10965   0.99077   0.00000  Uiso   1.00
H987   H     0.47976   0.19063   0.58675   0.00000  Uiso   1.00
H988   H     0.42074   0.19116   0.55845   0.00000  Uiso   1.00
H989   H     0.36432   0.20843   0.51227   0.00000  Uiso   1.00
H990   H     0.56476   0.29551   0.77211   0.00000  Uiso   1.00
N991   N     0.38265   0.16666   0.74999   0.00000  Uiso   1.00
N992   N     0.61735   0.16669   0.75000   0.00000  Uiso   1.00
O993   O     0.46042   0.22678   0.75001   0.00000  Uiso   1.00
O994   O     0.53961   0.22679   0.75001   0.00000  Uiso   1.00
O995   O     0.44108   0.16665   0.82549   0.00000  Uiso   1.00
O996   O     0.52027   0.16666   0.82549   0.00000  Uiso   1.00
O997   O     0.46039   0.10654   0.75000   0.00000  Uiso   1.00
O998   O     0.53958   0.10655   0.75000   0.00000  Uiso   1.00
O999   O     0.47973   0.16667   0.67451   0.00000  Uiso   1.00
O1000  O     0.55892   0.16668   0.67451   0.00000  Uiso   1.00
C1001  C     0.62545   0.12612   0.58877   0.00000  Uiso   1.00
H1002  H     0.64073   0.15391   0.60207   0.00000  Uiso   1.00
H1003  H     0.60865   0.10545   0.62263   0.00000  Uiso   1.00
H1004  H     0.65678   0.10923   0.56071   0.00000  Uiso   1.00
C1005  C     0.42438   0.29310   0.71279   0.00000  Uiso   1.00
H1006  H     0.39716   0.27731   0.74617   0.00000  Uiso   1.00
H1007  H     0.40342   0.31593   0.69740   0.00000  Uiso   1.00
H1008  H     0.44164   0.27103   0.68021   0.00000  Uiso   1.00
O1009  O     0.39879   0.10730   0.69421   0.00000  Uiso   1.00
C1010  C     0.40834   0.10919   0.63889   0.00000  Uiso   1.00
H1011  H     0.44842   0.11442   0.62066   0.00000  Uiso   1.00
H1012  H     0.38863   0.13448   0.62548   0.00000  Uiso   1.00
C1013  C     0.39637   0.06794   0.61823   0.00000  Uiso   1.00
H1014  H     0.41142   0.04246   0.63625   0.00000  Uiso   1.00
H1015  H     0.35565   0.06435   0.62958   0.00000  Uiso   1.00
C1016  C     0.41903   0.06481   0.55819   0.00000  Uiso   1.00
H1017  H     0.40720   0.09113   0.53867   0.00000  Uiso   1.00
H1018  H     0.40709   0.03580   0.54399   0.00000  Uiso   1.00
H1019  H     0.46003   0.06467   0.54667   0.00000  Uiso   1.00
C1020  C     0.60706   0.08980   0.90753   0.00000  Uiso   1.00
H1021  H     0.60592   0.07898   0.86852   0.00000  Uiso   1.00
H1022  H     0.64126   0.10823   0.89993   0.00000  Uiso   1.00
H1023  H     0.60931   0.06229   0.93117   0.00000  Uiso   1.00
O1024  O     0.37899   0.20101   0.91096   0.00000  Uiso   1.00
C1025  C     0.38434   0.24393   0.90215   0.00000  Uiso   1.00
H1026  H     0.40996   0.24900   0.86154   0.00000  Uiso   1.00
H1027  H     0.39942   0.26045   0.93035   0.00000  Uiso   1.00
C1028  C     0.33384   0.26294   0.90743   0.00000  Uiso   1.00
H1029  H     0.64889   0.24532   0.88326   0.00000  Uiso   1.00
H1030  H     0.64327   0.26128   0.94932   0.00000  Uiso   1.00
C1031  C     0.33856   0.30778   0.88982   0.00000  Uiso   1.00
H1032  H     0.35530   0.32635   0.91464   0.00000  Uiso   1.00
H1033  H     0.63468   0.32054   0.89393   0.00000  Uiso   1.00
H1034  H     0.36189   0.31008   0.84780   0.00000  Uiso   1.00
O1035  O     0.52324   0.09735   0.87295   0.00000  Uiso   1.00
C1036  C     0.48632   0.06686   0.89051   0.00000  Uiso   1.00
H1037  H     0.47123   0.06057   0.85783   0.00000  Uiso   1.00
H1038  H     0.45404   0.07667   0.92479   0.00000  Uiso   1.00
C1039  C     0.50870   0.02710   0.90386   0.00000  Uiso   1.00
H1040  H     0.54254   0.01872   0.87095   0.00000  Uiso   1.00
H1041  H     0.51917   0.03194   0.94009   0.00000  Uiso   1.00
C1042  C     0.47217   0.32499   0.91309   0.00000  Uiso   1.00
H1043  H     0.43824   0.33242   0.94636   0.00000  Uiso   1.00
H1044  H     0.48930   0.29672   0.92297   0.00000  Uiso   1.00
H1045  H     0.46202   0.31891   0.87692   0.00000  Uiso   1.00
C1046  C     0.83341   0.24602   0.74871   0.00000  Uiso   1.00
C1047  C     0.81150   0.16439   0.99016   0.00000  Uiso   1.00
C1048  C     0.81983   0.15120   0.93751   0.00000  Uiso   1.00
C1049  C     0.84832   0.15648   0.51439   0.00000  Uiso   1.00
C1050  C     0.89130   0.13332   0.98697   0.00000  Uiso   1.00
C1051  C     0.89584   0.11580   0.93709   0.00000  Uiso   1.00
C1052  C     0.85770   0.12181   0.91519   0.00000  Uiso   1.00
C1053  C     0.84366   0.17129   0.56525   0.00000  Uiso   1.00
C1054  C     0.92056   0.13843   0.56357   0.00000  Uiso   1.00
C1055  C     0.78910   0.16661   0.90901   0.00000  Uiso   1.00
C1056  C     0.87009   0.31186   0.76045   0.00000  Uiso   1.00
C1057  C     0.80644   0.16604   0.85058   0.00000  Uiso   1.00
C1058  C     0.87100   0.02101   0.76025   0.00000  Uiso   1.00
C1059  C     0.83439   0.04299   0.74728   0.00000  Uiso   1.00
C1060  C     0.79795   0.02246   0.73261   0.00000  Uiso   1.00
C1061  C     0.79697   0.31311   0.73140   0.00000  Uiso   1.00
C1062  C     0.83311   0.29080   0.74673   0.00000  Uiso   1.00
C1063  C     0.96650   0.19503   0.77888   0.00000  Uiso   1.00
C1064  C     0.68275   0.19495   0.77888   0.00000  Uiso   1.00
C1065  C     0.70040   0.13843   0.72027   0.00000  Uiso   1.00
C1066  C     0.98368   0.13828   0.72119   0.00000  Uiso   1.00
C1067  C     0.83372   0.08744   0.74913   0.00000  Uiso   1.00
C1068  C     0.86024   0.16565   0.64943   0.00000  Uiso   1.00
C1069  C     0.92781   0.12641   0.51127   0.00000  Uiso   1.00
C1070  C     0.87675   0.15979   0.59155   0.00000  Uiso   1.00
C1071  C     0.74481   0.18759   0.93646   0.00000  Uiso   1.00
C1072  C     0.73249   0.19383   0.99074   0.00000  Uiso   1.00
C1073  C     0.76588   0.18396   0.51693   0.00000  Uiso   1.00
Cu1074 Cu    0.78645   0.16666   0.75000   0.00000  Uiso   1.00
Cu1075 Cu    0.88022   0.16667   0.75000   0.00000  Uiso   1.00
H1076  H     0.89960   0.03664   0.77151   0.00000  Uiso   1.00
H1077  H     0.77023   0.03980   0.72173   0.00000  Uiso   1.00
H1078  H     0.94082   0.21773   0.80219   0.00000  Uiso   1.00
H1079  H     0.69459   0.21753   0.80191   0.00000  Uiso   1.00
H1080  H     0.97130   0.11507   0.69931   0.00000  Uiso   1.00
H1081  H     0.96129   0.10965   0.99077   0.00000  Uiso   1.00
H1082  H     0.81310   0.19063   0.58675   0.00000  Uiso   1.00
H1083  H     0.75407   0.19116   0.55845   0.00000  Uiso   1.00
H1084  H     0.69765   0.20843   0.51227   0.00000  Uiso   1.00
H1085  H     0.89810   0.29551   0.77211   0.00000  Uiso   1.00
N1086  N     0.71598   0.16666   0.74999   0.00000  Uiso   1.00
N1087  N     0.95069   0.16669   0.75000   0.00000  Uiso   1.00
O1088  O     0.79375   0.22678   0.75001   0.00000  Uiso   1.00
O1089  O     0.87294   0.22679   0.75001   0.00000  Uiso   1.00
O1090  O     0.77441   0.16665   0.82549   0.00000  Uiso   1.00
O1091  O     0.85360   0.16666   0.82549   0.00000  Uiso   1.00
O1092  O     0.79373   0.10654   0.75000   0.00000  Uiso   1.00
O1093  O     0.87292   0.10655   0.75000   0.00000  Uiso   1.00
O1094  O     0.81306   0.16667   0.67451   0.00000  Uiso   1.00
O1095  O     0.89225   0.16668   0.67451   0.00000  Uiso   1.00
C1096  C     0.95878   0.12612   0.58877   0.00000  Uiso   1.00
H1097  H     0.97406   0.15391   0.60207   0.00000  Uiso   1.00
H1098  H     0.94198   0.10545   0.62263   0.00000  Uiso   1.00
H1099  H     0.99012   0.10923   0.56071   0.00000  Uiso   1.00
C1100  C     0.75772   0.29310   0.71279   0.00000  Uiso   1.00
H1101  H     0.73049   0.27731   0.74617   0.00000  Uiso   1.00
H1102  H     0.73675   0.31593   0.69740   0.00000  Uiso   1.00
H1103  H     0.77497   0.27103   0.68021   0.00000  Uiso   1.00
O1104  O     0.73213   0.10730   0.69421   0.00000  Uiso   1.00
C1105  C     0.74167   0.10919   0.63889   0.00000  Uiso   1.00
H1106  H     0.78176   0.11442   0.62066   0.00000  Uiso   1.00
H1107  H     0.72197   0.13448   0.62548   0.00000  Uiso   1.00
C1108  C     0.72970   0.06794   0.61823   0.00000  Uiso   1.00
H1109  H     0.74476   0.04246   0.63625   0.00000  Uiso   1.00
H1110  H     0.68898   0.06435   0.62958   0.00000  Uiso   1.00
C1111  C     0.75236   0.06481   0.55819   0.00000  Uiso   1.00
H1112  H     0.74053   0.09113   0.53867   0.00000  Uiso   1.00
H1113  H     0.74042   0.03580   0.54399   0.00000  Uiso   1.00
H1114  H     0.79337   0.06467   0.54667   0.00000  Uiso   1.00
C1115  C     0.94039   0.08980   0.90753   0.00000  Uiso   1.00
H1116  H     0.93925   0.07898   0.86852   0.00000  Uiso   1.00
H1117  H     0.97459   0.10823   0.89993   0.00000  Uiso   1.00
H1118  H     0.94265   0.06229   0.93117   0.00000  Uiso   1.00
O1119  O     0.71233   0.20101   0.91096   0.00000  Uiso   1.00
C1120  C     0.71767   0.24393   0.90215   0.00000  Uiso   1.00
H1121  H     0.74329   0.24900   0.86154   0.00000  Uiso   1.00
H1122  H     0.73275   0.26045   0.93035   0.00000  Uiso   1.00
C1123  C     0.66717   0.26294   0.90743   0.00000  Uiso   1.00
H1124  H     0.98222   0.24532   0.88326   0.00000  Uiso   1.00
H1125  H     0.97661   0.26128   0.94932   0.00000  Uiso   1.00
C1126  C     0.67190   0.30778   0.88982   0.00000  Uiso   1.00
H1127  H     0.68864   0.32635   0.91464   0.00000  Uiso   1.00
H1128  H     0.96802   0.32054   0.89393   0.00000  Uiso   1.00
H1129  H     0.69522   0.31008   0.84780   0.00000  Uiso   1.00
O1130  O     0.85657   0.09735   0.87295   0.00000  Uiso   1.00
C1131  C     0.81965   0.06686   0.89051   0.00000  Uiso   1.00
H1132  H     0.80456   0.06057   0.85783   0.00000  Uiso   1.00
H1133  H     0.78737   0.07667   0.92479   0.00000  Uiso   1.00
C1134  C     0.84204   0.02710   0.90386   0.00000  Uiso   1.00
H1135  H     0.87587   0.01872   0.87095   0.00000  Uiso   1.00
H1136  H     0.85250   0.03194   0.94009   0.00000  Uiso   1.00
C1137  C     0.80550   0.32499   0.91309   0.00000  Uiso   1.00
H1138  H     0.77157   0.33242   0.94636   0.00000  Uiso   1.00
H1139  H     0.82263   0.29672   0.92297   0.00000  Uiso   1.00
H1140  H     0.79535   0.31891   0.87692   0.00000  Uiso   1.00
C1141  C     0.16674   0.57935   0.74871   0.00000  Uiso   1.00
C1142  C     0.14483   0.49773   0.99016   0.00000  Uiso   1.00
C1143  C     0.15317   0.48453   0.93751   0.00000  Uiso   1.00
C1144  C     0.18165   0.48981   0.51439   0.00000  Uiso   1.00
C1145  C     0.22463   0.46665   0.98697   0.00000  Uiso   1.00
C1146  C     0.22918   0.44914   0.93709   0.00000  Uiso   1.00
C1147  C     0.19104   0.45514   0.91519   0.00000  Uiso   1.00
C1148  C     0.17699   0.50462   0.56525   0.00000  Uiso   1.00
C1149  C     0.25389   0.47176   0.56357   0.00000  Uiso   1.00
C1150  C     0.12244   0.49994   0.90901   0.00000  Uiso   1.00
C1151  C     0.20343   0.64519   0.76045   0.00000  Uiso   1.00
C1152  C     0.13977   0.49937   0.85058   0.00000  Uiso   1.00
C1153  C     0.20434   0.35435   0.76025   0.00000  Uiso   1.00
C1154  C     0.16773   0.37632   0.74728   0.00000  Uiso   1.00
C1155  C     0.13128   0.35579   0.73261   0.00000  Uiso   1.00
C1156  C     0.13030   0.64645   0.73140   0.00000  Uiso   1.00
C1157  C     0.16644   0.62413   0.74673   0.00000  Uiso   1.00
C1158  C     0.29983   0.52836   0.77888   0.00000  Uiso   1.00
C1159  C     0.01608   0.52829   0.77888   0.00000  Uiso   1.00
C1160  C     0.03373   0.47177   0.72027   0.00000  Uiso   1.00
C1161  C     0.31702   0.47162   0.72119   0.00000  Uiso   1.00
C1162  C     0.16705   0.42077   0.74913   0.00000  Uiso   1.00
C1163  C     0.19357   0.49898   0.64943   0.00000  Uiso   1.00
C1164  C     0.26114   0.45974   0.51127   0.00000  Uiso   1.00
C1165  C     0.21008   0.49312   0.59155   0.00000  Uiso   1.00
C1166  C     0.07815   0.52092   0.93646   0.00000  Uiso   1.00
C1167  C     0.06582   0.52716   0.99074   0.00000  Uiso   1.00
C1168  C     0.09922   0.51729   0.51693   0.00000  Uiso   1.00
Cu1169 Cu    0.11978   0.49999   0.75000   0.00000  Uiso   1.00
Cu1170 Cu    0.21355   0.50001   0.75000   0.00000  Uiso   1.00
H1171  H     0.23293   0.36997   0.77151   0.00000  Uiso   1.00
H1172  H     0.10356   0.37314   0.72173   0.00000  Uiso   1.00
H1173  H     0.27415   0.55107   0.80219   0.00000  Uiso   1.00
H1174  H     0.02792   0.55087   0.80191   0.00000  Uiso   1.00
H1175  H     0.30463   0.44840   0.69931   0.00000  Uiso   1.00
H1176  H     0.29463   0.44298   0.99077   0.00000  Uiso   1.00
H1177  H     0.14643   0.52396   0.58675   0.00000  Uiso   1.00
H1178  H     0.08740   0.52449   0.55845   0.00000  Uiso   1.00
H1179  H     0.03098   0.54176   0.51227   0.00000  Uiso   1.00
H1180  H     0.23143   0.62884   0.77211   0.00000  Uiso   1.00
N1181  N     0.04931   0.49999   0.74999   0.00000  Uiso   1.00
N1182  N     0.28402   0.50002   0.75000   0.00000  Uiso   1.00
O1183  O     0.12708   0.56011   0.75001   0.00000  Uiso   1.00
O1184  O     0.20627   0.56012   0.75001   0.00000  Uiso   1.00
O1185  O     0.10775   0.49998   0.82549   0.00000  Uiso   1.00
O1186  O     0.18694   0.49999   0.82549   0.00000  Uiso   1.00
O1187  O     0.12706   0.43988   0.75000   0.00000  Uiso   1.00
O1188  O     0.20625   0.43989   0.75000   0.00000  Uiso   1.00
O1189  O     0.14640   0.50001   0.67451   0.00000  Uiso   1.00
O1190  O     0.22559   0.50002   0.67451   0.00000  Uiso   1.00
C1191  C     0.29212   0.45946   0.58877   0.00000  Uiso   1.00
H1192  H     0.30739   0.48724   0.60207   0.00000  Uiso   1.00
H1193  H     0.27532   0.43878   0.62263   0.00000  Uiso   1.00
H1194  H     0.32345   0.44257   0.56071   0.00000  Uiso   1.00
C1195  C     0.09105   0.62643   0.71279   0.00000  Uiso   1.00
H1196  H     0.06382   0.61064   0.74617   0.00000  Uiso   1.00
H1197  H     0.07009   0.64927   0.69740   0.00000  Uiso   1.00
H1198  H     0.10831   0.60436   0.68021   0.00000  Uiso   1.00
O1199  O     0.06546   0.44063   0.69421   0.00000  Uiso   1.00
C1200  C     0.07501   0.44252   0.63889   0.00000  Uiso   1.00
H1201  H     0.11509   0.44775   0.62066   0.00000  Uiso   1.00
H1202  H     0.05530   0.46782   0.62548   0.00000  Uiso   1.00
C1203  C     0.06304   0.40127   0.61823   0.00000  Uiso   1.00
H1204  H     0.07809   0.37579   0.63625   0.00000  Uiso   1.00
H1205  H     0.02231   0.39768   0.62958   0.00000  Uiso   1.00
C1206  C     0.08570   0.39814   0.55819   0.00000  Uiso   1.00
H1207  H     0.07387   0.42446   0.53867   0.00000  Uiso   1.00
H1208  H     0.07375   0.36913   0.54399   0.00000  Uiso   1.00
H1209  H     0.12670   0.39800   0.54667   0.00000  Uiso   1.00
C1210  C     0.27372   0.42313   0.90753   0.00000  Uiso   1.00
H1211  H     0.27259   0.41231   0.86852   0.00000  Uiso   1.00
H1212  H     0.30792   0.44156   0.89993   0.00000  Uiso   1.00
H1213  H     0.27598   0.39562   0.93117   0.00000  Uiso   1.00
O1214  O     0.04566   0.53435   0.91096   0.00000  Uiso   1.00
C1215  C     0.05100   0.57727   0.90215   0.00000  Uiso   1.00
H1216  H     0.07662   0.58234   0.86154   0.00000  Uiso   1.00
H1217  H     0.06608   0.59378   0.93035   0.00000  Uiso   1.00
C1218  C     0.00050   0.59627   0.90743   0.00000  Uiso   1.00
H1219  H     0.31556   0.57865   0.88326   0.00000  Uiso   1.00
H1220  H     0.30994   0.59461   0.94932   0.00000  Uiso   1.00
C1221  C     0.00523   0.64111   0.88982   0.00000  Uiso   1.00
H1222  H     0.02197   0.65968   0.91464   0.00000  Uiso   1.00
H1223  H     0.30135   0.65388   0.89393   0.00000  Uiso   1.00
H1224  H     0.02856   0.64342   0.84780   0.00000  Uiso   1.00
O1225  O     0.18991   0.43068   0.87295   0.00000  Uiso   1.00
C1226  C     0.15299   0.40019   0.89051   0.00000  Uiso   1.00
H1227  H     0.13789   0.39390   0.85783   0.00000  Uiso   1.00
H1228  H     0.12071   0.41000   0.92479   0.00000  Uiso   1.00
C1229  C     0.17537   0.36043   0.90386   0.00000  Uiso   1.00
H1230  H     0.20920   0.35205   0.87095   0.00000  Uiso   1.00
H1231  H     0.18583   0.36528   0.94009   0.00000  Uiso   1.00
C1232  C     0.13883   0.65832   0.91309   0.00000  Uiso   1.00
H1233  H     0.10490   0.66575   0.94636   0.00000  Uiso   1.00
H1234  H     0.15597   0.63005   0.92297   0.00000  Uiso   1.00
H1235  H     0.12868   0.65224   0.87692   0.00000  Uiso   1.00
C1236  C     0.50007   0.57935   0.74871   0.00000  Uiso   1.00
C1237  C     0.47817   0.49773   0.99016   0.00000  Uiso   1.00
C1238  C     0.48650   0.48453   0.93751   0.00000  Uiso   1.00
C1239  C     0.51499   0.48981   0.51439   0.00000  Uiso   1.00
C1240  C     0.55796   0.46665   0.98697   0.00000  Uiso   1.00
C1241  C     0.56251   0.44914   0.93709   0.00000  Uiso   1.00
C1242  C     0.52437   0.45514   0.91519   0.00000  Uiso   1.00
C1243  C     0.51032   0.50462   0.56525   0.00000  Uiso   1.00
C1244  C     0.58723   0.47176   0.56357   0.00000  Uiso   1.00
C1245  C     0.45577   0.49994   0.90901   0.00000  Uiso   1.00
C1246  C     0.53676   0.64519   0.76045   0.00000  Uiso   1.00
C1247  C     0.47311   0.49937   0.85058   0.00000  Uiso   1.00
C1248  C     0.53767   0.35435   0.76025   0.00000  Uiso   1.00
C1249  C     0.50106   0.37632   0.74728   0.00000  Uiso   1.00
C1250  C     0.46462   0.35579   0.73261   0.00000  Uiso   1.00
C1251  C     0.46363   0.64645   0.73140   0.00000  Uiso   1.00
C1252  C     0.49977   0.62413   0.74673   0.00000  Uiso   1.00
C1253  C     0.63317   0.52836   0.77888   0.00000  Uiso   1.00
C1254  C     0.34941   0.52829   0.77888   0.00000  Uiso   1.00
C1255  C     0.36707   0.47177   0.72027   0.00000  Uiso   1.00
C1256  C     0.65035   0.47162   0.72119   0.00000  Uiso   1.00
C1257  C     0.50038   0.42077   0.74913   0.00000  Uiso   1.00
C1258  C     0.52691   0.49898   0.64943   0.00000  Uiso   1.00
C1259  C     0.59447   0.45974   0.51127   0.00000  Uiso   1.00
C1260  C     0.54341   0.49312   0.59155   0.00000  Uiso   1.00
C1261  C     0.41148   0.52092   0.93646   0.00000  Uiso   1.00
C1262  C     0.39916   0.52716   0.99074   0.00000  Uiso   1.00
C1263  C     0.43255   0.51729   0.51693   0.00000  Uiso   1.00
Cu1264 Cu    0.45311   0.49999   0.75000   0.00000  Uiso   1.00
Cu1265 Cu    0.54689   0.50001   0.75000   0.00000  Uiso   1.00
H1266  H     0.56627   0.36997   0.77151   0.00000  Uiso   1.00
H1267  H     0.43690   0.37314   0.72173   0.00000  Uiso   1.00
H1268  H     0.60748   0.55107   0.80219   0.00000  Uiso   1.00
H1269  H     0.36126   0.55087   0.80191   0.00000  Uiso   1.00
H1270  H     0.63796   0.44840   0.69931   0.00000  Uiso   1.00
H1271  H     0.62796   0.44298   0.99077   0.00000  Uiso   1.00
H1272  H     0.47976   0.52396   0.58675   0.00000  Uiso   1.00
H1273  H     0.42074   0.52449   0.55845   0.00000  Uiso   1.00
H1274  H     0.36432   0.54176   0.51227   0.00000  Uiso   1.00
H1275  H     0.56476   0.62884   0.77211   0.00000  Uiso   1.00
N1276  N     0.38265   0.49999   0.74999   0.00000  Uiso   1.00
N1277  N     0.61735   0.50002   0.75000   0.00000  Uiso   1.00
O1278  O     0.46042   0.56011   0.75001   0.00000  Uiso   1.00
O1279  O     0.53961   0.56012   0.75001   0.00000  Uiso   1.00
O1280  O     0.44108   0.49998   0.82549   0.00000  Uiso   1.00
O1281  O     0.52027   0.49999   0.82549   0.00000  Uiso   1.00
O1282  O     0.46039   0.43988   0.75000   0.00000  Uiso   1.00
O1283  O     0.53958   0.43989   0.75000   0.00000  Uiso   1.00
O1284  O     0.47973   0.50001   0.67451   0.00000  Uiso   1.00
O1285  O     0.55892   0.50002   0.67451   0.00000  Uiso   1.00
C1286  C     0.62545   0.45946   0.58877   0.00000  Uiso   1.00
H1287  H     0.64073   0.48724   0.60207   0.00000  Uiso   1.00
H1288  H     0.60865   0.43878   0.62263   0.00000  Uiso   1.00
H1289  H     0.65678   0.44257   0.56071   0.00000  Uiso   1.00
C1290  C     0.42438   0.62643   0.71279   0.00000  Uiso   1.00
H1291  H     0.39716   0.61064   0.74617   0.00000  Uiso   1.00
H1292  H     0.40342   0.64927   0.69740   0.00000  Uiso   1.00
H1293  H     0.44164   0.60436   0.68021   0.00000  Uiso   1.00
O1294  O     0.39879   0.44063   0.69421   0.00000  Uiso   1.00
C1295  C     0.40834   0.44252   0.63889   0.00000  Uiso   1.00
H1296  H     0.44842   0.44775   0.62066   0.00000  Uiso   1.00
H1297  H     0.38863   0.46782   0.62548   0.00000  Uiso   1.00
C1298  C     0.39637   0.40127   0.61823   0.00000  Uiso   1.00
H1299  H     0.41142   0.37579   0.63625   0.00000  Uiso   1.00
H1300  H     0.35565   0.39768   0.62958   0.00000  Uiso   1.00
C1301  C     0.41903   0.39814   0.55819   0.00000  Uiso   1.00
H1302  H     0.40720   0.42446   0.53867   0.00000  Uiso   1.00
H1303  H     0.40709   0.36913   0.54399   0.00000  Uiso   1.00
H1304  H     0.46003   0.39800   0.54667   0.00000  Uiso   1.00
C1305  C     0.60706   0.42313   0.90753   0.00000  Uiso   1.00
H1306  H     0.60592   0.41231   0.86852   0.00000  Uiso   1.00
H1307  H     0.64126   0.44156   0.89993   0.00000  Uiso   1.00
H1308  H     0.60931   0.39562   0.93117   0.00000  Uiso   1.00
O1309  O     0.37899   0.53435   0.91096   0.00000  Uiso   1.00
C1310  C     0.38434   0.57727   0.90215   0.00000  Uiso   1.00
H1311  H     0.40996   0.58234   0.86154   0.00000  Uiso   1.00
H1312  H     0.39942   0.59378   0.93035   0.00000  Uiso   1.00
C1313  C     0.33384   0.59627   0.90743   0.00000  Uiso   1.00
H1314  H     0.64889   0.57865   0.88326   0.00000  Uiso   1.00
H1315  H     0.64327   0.59461   0.94932   0.00000  Uiso   1.00
C1316  C     0.33856   0.64111   0.88982   0.00000  Uiso   1.00
H1317  H     0.35530   0.65968   0.91464   0.00000  Uiso   1.00
H1318  H     0.63468   0.65388   0.89393   0.00000  Uiso   1.00
H1319  H     0.36189   0.64342   0.84780   0.00000  Uiso   1.00
O1320  O     0.52324   0.43068   0.87295   0.00000  Uiso   1.00
C1321  C     0.48632   0.40019   0.89051   0.00000  Uiso   1.00
H1322  H     0.47123   0.39390   0.85783   0.00000  Uiso   1.00
H1323  H     0.45404   0.41000   0.92479   0.00000  Uiso   1.00
C1324  C     0.50870   0.36043   0.90386   0.00000  Uiso   1.00
H1325  H     0.54254   0.35205   0.87095   0.00000  Uiso   1.00
H1326  H     0.51917   0.36528   0.94009   0.00000  Uiso   1.00
C1327  C     0.47217   0.65832   0.91309   0.00000  Uiso   1.00
H1328  H     0.43824   0.66575   0.94636   0.00000  Uiso   1.00
H1329  H     0.48930   0.63005   0.92297   0.00000  Uiso   1.00
H1330  H     0.46202   0.65224   0.87692   0.00000  Uiso   1.00
C1331  C     0.83341   0.57935   0.74871   0.00000  Uiso   1.00
C1332  C     0.81150   0.49773   0.99016   0.00000  Uiso   1.00
C1333  C     0.81983   0.48453   0.93751   0.00000  Uiso   1.00
C1334  C     0.84832   0.48981   0.51439   0.00000  Uiso   1.00
C1335  C     0.89130   0.46665   0.98697   0.00000  Uiso   1.00
C1336  C     0.89584   0.44914   0.93709   0.00000  Uiso   1.00
C1337  C     0.85770   0.45514   0.91519   0.00000  Uiso   1.00
C1338  C     0.84366   0.50462   0.56525   0.00000  Uiso   1.00
C1339  C     0.92056   0.47176   0.56357   0.00000  Uiso   1.00
C1340  C     0.78910   0.49994   0.90901   0.00000  Uiso   1.00
C1341  C     0.87009   0.64519   0.76045   0.00000  Uiso   1.00
C1342  C     0.80644   0.49937   0.85058   0.00000  Uiso   1.00
C1343  C     0.87100   0.35435   0.76025   0.00000  Uiso   1.00
C1344  C     0.83439   0.37632   0.74728   0.00000  Uiso   1.00
C1345  C     0.79795   0.35579   0.73261   0.00000  Uiso   1.00
C1346  C     0.79697   0.64645   0.73140   0.00000  Uiso   1.00
C1347  C     0.83311   0.62413   0.74673   0.00000  Uiso   1.00
C1348  C     0.96650   0.52836   0.77888   0.00000  Uiso   1.00
C1349  C     0.68275   0.52829   0.77888   0.00000  Uiso   1.00
C1350  C     0.70040   0.47177   0.72027   0.00000  Uiso   1.00
C1351  C     0.98368   0.47162   0.72119   0.00000  Uiso   1.00
C1352  C     0.83372   0.42077   0.74913   0.00000  Uiso   1.00
C1353  C     0.86024   0.49898   0.64943   0.00000  Uiso   1.00
C1354  C     0.92781   0.45974   0.51127   0.00000  Uiso   1.00
C1355  C     0.87675   0.49312   0.59155   0.00000  Uiso   1.00
C1356  C     0.74481   0.52092   0.93646   0.00000  Uiso   1.00
C1357  C     0.73249   0.52716   0.99074   0.00000  Uiso   1.00
C1358  C     0.76588   0.51729   0.51693   0.00000  Uiso   1.00
Cu1359 Cu    0.78645   0.49999   0.75000   0.00000  Uiso   1.00
Cu1360 Cu    0.88022   0.50001   0.75000   0.00000  Uiso   1.00
H1361  H     0.89960   0.36997   0.77151   0.00000  Uiso   1.00
H1362  H     0.77023   0.37314   0.72173   0.00000  Uiso   1.00
H1363  H     0.94082   0.55107   0.80219   0.00000  Uiso   1.00
H1364  H     0.69459   0.55087   0.80191   0.00000  Uiso   1.00
H1365  H     0.97130   0.44840   0.69931   0.00000  Uiso   1.00
H1366  H     0.96129   0.44298   0.99077   0.00000  Uiso   1.00
H1367  H     0.81310   0.52396   0.58675   0.00000  Uiso   1.00
H1368  H     0.75407   0.52449   0.55845   0.00000  Uiso   1.00
H1369  H     0.69765   0.54176   0.51227   0.00000  Uiso   1.00
H1370  H     0.89810   0.62884   0.77211   0.00000  Uiso   1.00
N1371  N     0.71598   0.49999   0.74999   0.00000  Uiso   1.00
N1372  N     0.95069   0.50002   0.75000   0.00000  Uiso   1.00
O1373  O     0.79375   0.56011   0.75001   0.00000  Uiso   1.00
O1374  O     0.87294   0.56012   0.75001   0.00000  Uiso   1.00
O1375  O     0.77441   0.49998   0.82549   0.00000  Uiso   1.00
O1376  O     0.85360   0.49999   0.82549   0.00000  Uiso   1.00
O1377  O     0.79373   0.43988   0.75000   0.00000  Uiso   1.00
O1378  O     0.87292   0.43989   0.75000   0.00000  Uiso   1.00
O1379  O     0.81306   0.50001   0.67451   0.00000  Uiso   1.00
O1380  O     0.89225   0.50002   0.67451   0.00000  Uiso   1.00
C1381  C     0.95878   0.45946   0.58877   0.00000  Uiso   1.00
H1382  H     0.97406   0.48724   0.60207   0.00000  Uiso   1.00
H1383  H     0.94198   0.43878   0.62263   0.00000  Uiso   1.00
H1384  H     0.99012   0.44257   0.56071   0.00000  Uiso   1.00
C1385  C     0.75772   0.62643   0.71279   0.00000  Uiso   1.00
H1386  H     0.73049   0.61064   0.74617   0.00000  Uiso   1.00
H1387  H     0.73675   0.64927   0.69740   0.00000  Uiso   1.00
H1388  H     0.77497   0.60436   0.68021   0.00000  Uiso   1.00
O1389  O     0.73213   0.44063   0.69421   0.00000  Uiso   1.00
C1390  C     0.74167   0.44252   0.63889   0.00000  Uiso   1.00
H1391  H     0.78176   0.44775   0.62066   0.00000  Uiso   1.00
H1392  H     0.72197   0.46782   0.62548   0.00000  Uiso   1.00
C1393  C     0.72970   0.40127   0.61823   0.00000  Uiso   1.00
H1394  H     0.74476   0.37579   0.63625   0.00000  Uiso   1.00
H1395  H     0.68898   0.39768   0.62958   0.00000  Uiso   1.00
C1396  C     0.75236   0.39814   0.55819   0.00000  Uiso   1.00
H1397  H     0.74053   0.42446   0.53867   0.00000  Uiso   1.00
H1398  H     0.74042   0.36913   0.54399   0.00000  Uiso   1.00
H1399  H     0.79337   0.39800   0.54667   0.00000  Uiso   1.00
C1400  C     0.94039   0.42313   0.90753   0.00000  Uiso   1.00
H1401  H     0.93925   0.41231   0.86852   0.00000  Uiso   1.00
H1402  H     0.97459   0.44156   0.89993   0.00000  Uiso   1.00
H1403  H     0.94265   0.39562   0.93117   0.00000  Uiso   1.00
O1404  O     0.71233   0.53435   0.91096   0.00000  Uiso   1.00
C1405  C     0.71767   0.57727   0.90215   0.00000  Uiso   1.00
H1406  H     0.74329   0.58234   0.86154   0.00000  Uiso   1.00
H1407  H     0.73275   0.59378   0.93035   0.00000  Uiso   1.00
C1408  C     0.66717   0.59627   0.90743   0.00000  Uiso   1.00
H1409  H     0.98222   0.57865   0.88326   0.00000  Uiso   1.00
H1410  H     0.97661   0.59461   0.94932   0.00000  Uiso   1.00
C1411  C     0.67190   0.64111   0.88982   0.00000  Uiso   1.00
H1412  H     0.68864   0.65968   0.91464   0.00000  Uiso   1.00
H1413  H     0.96802   0.65388   0.89393   0.00000  Uiso   1.00
H1414  H     0.69522   0.64342   0.84780   0.00000  Uiso   1.00
O1415  O     0.85657   0.43068   0.87295   0.00000  Uiso   1.00
C1416  C     0.81965   0.40019   0.89051   0.00000  Uiso   1.00
H1417  H     0.80456   0.39390   0.85783   0.00000  Uiso   1.00
H1418  H     0.78737   0.41000   0.92479   0.00000  Uiso   1.00
C1419  C     0.84204   0.36043   0.90386   0.00000  Uiso   1.00
H1420  H     0.87587   0.35205   0.87095   0.00000  Uiso   1.00
H1421  H     0.85250   0.36528   0.94009   0.00000  Uiso   1.00
C1422  C     0.80550   0.65832   0.91309   0.00000  Uiso   1.00
H1423  H     0.77157   0.66575   0.94636   0.00000  Uiso   1.00
H1424  H     0.82263   0.63005   0.92297   0.00000  Uiso   1.00
H1425  H     0.79535   0.65224   0.87692   0.00000  Uiso   1.00
C1426  C     0.16674   0.91269   0.74871   0.00000  Uiso   1.00
C1427  C     0.14483   0.83106   0.99016   0.00000  Uiso   1.00
C1428  C     0.15317   0.81787   0.93751   0.00000  Uiso   1.00
C1429  C     0.18165   0.82315   0.51439   0.00000  Uiso   1.00
C1430  C     0.22463   0.79998   0.98697   0.00000  Uiso   1.00
C1431  C     0.22918   0.78247   0.93709   0.00000  Uiso   1.00
C1432  C     0.19104   0.78847   0.91519   0.00000  Uiso   1.00
C1433  C     0.17699   0.83795   0.56525   0.00000  Uiso   1.00
C1434  C     0.25389   0.80510   0.56357   0.00000  Uiso   1.00
C1435  C     0.12244   0.83327   0.90901   0.00000  Uiso   1.00
C1436  C     0.20343   0.97852   0.76045   0.00000  Uiso   1.00
C1437  C     0.13977   0.83270   0.85058   0.00000  Uiso   1.00
C1438  C     0.20434   0.68768   0.76025   0.00000  Uiso   1.00
C1439  C     0.16773   0.70966   0.74728   0.00000  Uiso   1.00
C1440  C     0.13128   0.68913   0.73261   0.00000  Uiso   1.00
C1441  C     0.13030   0.97978   0.73140   0.00000  Uiso   1.00
C1442  C     0.16644   0.95746   0.74673   0.00000  Uiso   1.00
C1443  C     0.29983   0.86170   0.77888   0.00000  Uiso   1.00
C1444  C     0.01608   0.86162   0.77888   0.00000  Uiso   1.00
C1445  C     0.03373   0.80510   0.72027   0.00000  Uiso   1.00
C1446  C     0.31702   0.80495   0.72119   0.00000  Uiso   1.00
C1447  C     0.16705   0.75411   0.74913   0.00000  Uiso   1.00
C1448  C     0.19357   0.83231   0.64943   0.00000  Uiso   1.00
C1449  C     0.26114   0.79308   0.51127   0.00000  Uiso   1.00
C1450  C     0.21008   0.82646   0.59155   0.00000  Uiso   1.00
C1451  C     0.07815   0.85426   0.93646   0.00000  Uiso   1.00
C1452  C     0.06582   0.86050   0.99074   0.00000  Uiso   1.00
C1453  C     0.09922   0.85062   0.51693   0.00000  Uiso   1.00
Cu1454 Cu    0.11978   0.83333   0.75000   0.00000  Uiso   1.00
Cu1455 Cu    0.21355   0.83334   0.75000   0.00000  Uiso   1.00
H1456  H     0.23293   0.70330   0.77151   0.00000  Uiso   1.00
H1457  H     0.10356   0.70647   0.72173   0.00000  Uiso   1.00
H1458  H     0.27415   0.88440   0.80219   0.00000  Uiso   1.00
H1459  H     0.02792   0.88420   0.80191   0.00000  Uiso   1.00
H1460  H     0.30463   0.78173   0.69931   0.00000  Uiso   1.00
H1461  H     0.29463   0.77632   0.99077   0.00000  Uiso   1.00
H1462  H     0.14643   0.85730   0.58675   0.00000  Uiso   1.00
H1463  H     0.08740   0.85783   0.55845   0.00000  Uiso   1.00
H1464  H     0.03098   0.87510   0.51227   0.00000  Uiso   1.00
H1465  H     0.23143   0.96217   0.77211   0.00000  Uiso   1.00
N1466  N     0.04931   0.83332   0.74999   0.00000  Uiso   1.00
N1467  N     0.28402   0.83335   0.75000   0.00000  Uiso   1.00
O1468  O     0.12708   0.89345   0.75001   0.00000  Uiso   1.00
O1469  O     0.20627   0.89346   0.75001   0.00000  Uiso   1.00
O1470  O     0.10775   0.83332   0.82549   0.00000  Uiso   1.00
O1471  O     0.18694   0.83333   0.82549   0.00000  Uiso   1.00
O1472  O     0.12706   0.77321   0.75000   0.00000  Uiso   1.00
O1473  O     0.20625   0.77322   0.75000   0.00000  Uiso   1.00
O1474  O     0.14640   0.83334   0.67451   0.00000  Uiso   1.00
O1475  O     0.22559   0.83335   0.67451   0.00000  Uiso   1.00
C1476  C     0.29212   0.79279   0.58877   0.00000  Uiso   1.00
H1477  H     0.30739   0.82057   0.60207   0.00000  Uiso   1.00
H1478  H     0.27532   0.77212   0.62263   0.00000  Uiso   1.00
H1479  H     0.32345   0.77590   0.56071   0.00000  Uiso   1.00
C1480  C     0.09105   0.95977   0.71279   0.00000  Uiso   1.00
H1481  H     0.06382   0.94398   0.74617   0.00000  Uiso   1.00
H1482  H     0.07009   0.98260   0.69740   0.00000  Uiso   1.00
H1483  H     0.10831   0.93770   0.68021   0.00000  Uiso   1.00
O1484  O     0.06546   0.77396   0.69421   0.00000  Uiso   1.00
C1485  C     0.07501   0.77586   0.63889   0.00000  Uiso   1.00
H1486  H     0.11509   0.78109   0.62066   0.00000  Uiso   1.00
H1487  H     0.05530   0.80115   0.62548   0.00000  Uiso   1.00
C1488  C     0.06304   0.73461   0.61823   0.00000  Uiso   1.00
H1489  H     0.07809   0.70912   0.63625   0.00000  Uiso   1.00
H1490  H     0.02231   0.73102   0.62958   0.00000  Uiso   1.00
C1491  C     0.08570   0.73148   0.55819   0.00000  Uiso   1.00
H1492  H     0.07387   0.75780   0.53867   0.00000  Uiso   1.00
H1493  H     0.07375   0.70247   0.54399   0.00000  Uiso   1.00
H1494  H     0.12670   0.73134   0.54667   0.00000  Uiso   1.00
C1495  C     0.27372   0.75647   0.90753   0.00000  Uiso   1.00
H1496  H     0.27259   0.74565   0.86852   0.00000  Uiso   1.00
H1497  H     0.30792   0.77490   0.89993   0.00000  Uiso   1.00
H1498  H     0.27598   0.72896   0.93117   0.00000  Uiso   1.00
O1499  O     0.04566   0.86768   0.91096   0.00000  Uiso   1.00
C1500  C     0.05100   0.91060   0.90215   0.00000  Uiso   1.00
H1501  H     0.07662   0.91567   0.86154   0.00000  Uiso   1.00
H1502  H     0.06608   0.92711   0.93035   0.00000  Uiso   1.00
C1503  C     0.00050   0.92960   0.90743   0.00000  Uiso   1.00
H1504  H     0.31556   0.91199   0.88326   0.00000  Uiso   1.00
H1505  H     0.30994   0.92794   0.94932   0.00000  Uiso   1.00
C1506  C     0.00523   0.97445   0.88982   0.00000  Uiso   1.00
H1507  H     0.02197   0.99302   0.91464   0.00000  Uiso   1.00
H1508  H     0.30135   0.98721   0.89393   0.00000  Uiso   1.00
H1509  H     0.02856   0.97675   0.84780   0.00000  Uiso   1.00
O1510  O     0.18991   0.76401   0.87295   0.00000  Uiso   1.00
C1511  C     0.15299   0.73353   0.89051   0.00000  Uiso   1.00
H1512  H     0.13789   0.72723   0.85783   0.00000  Uiso   1.00
H1513  H     0.12071   0.74333   0.92479   0.00000  Uiso   1.00
C1514  C     0.17537   0.69376   0.90386   0.00000  Uiso   1.00
H1515  H     0.20920   0.68539   0.87095   0.00000  Uiso   1.00
H1516  H     0.18583   0.69861   0.94009   0.00000  Uiso   1.00
C1517  C     0.13883   0.99166   0.91309   0.00000  Uiso   1.00
H1518  H     0.10490   0.99909   0.94636   0.00000  Uiso   1.00
H1519  H     0.15597   0.96338   0.92297   0.00000  Uiso   1.00
H1520  H     0.12868   0.98558   0.87692   0.00000  Uiso   1.00
C1521  C     0.50007   0.91269   0.74871   0.00000  Uiso   1.00
C1522  C     0.47817   0.83106   0.99016   0.00000  Uiso   1.00
C1523  C     0.48650   0.81787   0.93751   0.00000  Uiso   1.00
C1524  C     0.51499   0.82315   0.51439   0.00000  Uiso   1.00
C1525  C     0.55796   0.79998   0.98697   0.00000  Uiso   1.00
C1526  C     0.56251   0.78247   0.93709   0.00000  Uiso   1.00
C1527  C     0.52437   0.78847   0.91519   0.00000  Uiso   1.00
C1528  C     0.51032   0.83795   0.56525   0.00000  Uiso   1.00
C1529  C     0.58723   0.80510   0.56357   0.00000  Uiso   1.00
C1530  C     0.45577   0.83327   0.90901   0.00000  Uiso   1.00
C1531  C     0.53676   0.97852   0.76045   0.00000  Uiso   1.00
C1532  C     0.47311   0.83270   0.85058   0.00000  Uiso   1.00
C1533  C     0.53767   0.68768   0.76025   0.00000  Uiso   1.00
C1534  C     0.50106   0.70966   0.74728   0.00000  Uiso   1.00
C1535  C     0.46462   0.68913   0.73261   0.00000  Uiso   1.00
C1536  C     0.46363   0.97978   0.73140   0.00000  Uiso   1.00
C1537  C     0.49977   0.95746   0.74673   0.00000  Uiso   1.00
C1538  C     0.63317   0.86170   0.77888   0.00000  Uiso   1.00
C1539  C     0.34941   0.86162   0.77888   0.00000  Uiso   1.00
C1540  C     0.36707   0.80510   0.72027   0.00000  Uiso   1.00
C1541  C     0.65035   0.80495   0.72119   0.00000  Uiso   1.00
C1542  C     0.50038   0.75411   0.74913   0.00000  Uiso   1.00
C1543  C     0.52691   0.83231   0.64943   0.00000  Uiso   1.00
C1544  C     0.59447   0.79308   0.51127   0.00000  Uiso   1.00
C1545  C     0.54341   0.82646   0.59155   0.00000  Uiso   1.00
C1546  C     0.41148   0.85426   0.93646   0.00000  Uiso   1.00
C1547  C     0.39916   0.86050   0.99074   0.00000  Uiso   1.00
C1548  C     0.43255   0.85062   0.51693   0.00000  Uiso   1.00
Cu1549 Cu    0.45311   0.83333   0.75000   0.00000  Uiso   1.00
Cu1550 Cu    0.54689   0.83334   0.75000   0.00000  Uiso   1.00
H1551  H     0.56627   0.70330   0.77151   0.00000  Uiso   1.00
H1552  H     0.43690   0.70647   0.72173   0.00000  Uiso   1.00
H1553  H     0.60748   0.88440   0.80219   0.00000  Uiso   1.00
H1554  H     0.36126   0.88420   0.80191   0.00000  Uiso   1.00
H1555  H     0.63796   0.78173   0.69931   0.00000  Uiso   1.00
H1556  H     0.62796   0.77632   0.99077   0.00000  Uiso   1.00
H1557  H     0.47976   0.85730   0.58675   0.00000  Uiso   1.00
H1558  H     0.42074   0.85783   0.55845   0.00000  Uiso   1.00
H1559  H     0.36432   0.87510   0.51227   0.00000  Uiso   1.00
H1560  H     0.56476   0.96217   0.77211   0.00000  Uiso   1.00
N1561  N     0.38265   0.83332   0.74999   0.00000  Uiso   1.00
N1562  N     0.61735   0.83335   0.75000   0.00000  Uiso   1.00
O1563  O     0.46042   0.89345   0.75001   0.00000  Uiso   1.00
O1564  O     0.53961   0.89346   0.75001   0.00000  Uiso   1.00
O1565  O     0.44108   0.83332   0.82549   0.00000  Uiso   1.00
O1566  O     0.52027   0.83333   0.82549   0.00000  Uiso   1.00
O1567  O     0.46039   0.77321   0.75000   0.00000  Uiso   1.00
O1568  O     0.53958   0.77322   0.75000   0.00000  Uiso   1.00
O1569  O     0.47973   0.83334   0.67451   0.00000  Uiso   1.00
O1570  O     0.55892   0.83335   0.67451   0.00000  Uiso   1.00
C1571  C     0.62545   0.79279   0.58877   0.00000  Uiso   1.00
H1572  H     0.64073   0.82057   0.60207   0.00000  Uiso   1.00
H1573  H     0.60865   0.77212   0.62263   0.00000  Uiso   1.00
H1574  H     0.65678   0.77590   0.56071   0.00000  Uiso   1.00
C1575  C     0.42438   0.95977   0.71279   0.00000  Uiso   1.00
H1576  H     0.39716   0.94398   0.74617   0.00000  Uiso   1.00
H1577  H     0.40342   0.98260   0.69740   0.00000  Uiso   1.00
H1578  H     0.44164   0.93770   0.68021   0.00000  Uiso   1.00
O1579  O     0.39879   0.77396   0.69421   0.00000  Uiso   1.00
C1580  C     0.40834   0.77586   0.63889   0.00000  Uiso   1.00
H1581  H     0.44842   0.78109   0.62066   0.00000  Uiso   1.00
H1582  H     0.38863   0.80115   0.62548   0.00000  Uiso   1.00
C1583  C     0.39637   0.73461   0.61823   0.00000  Uiso   1.00
H1584  H     0.41142   0.70912   0.63625   0.00000  Uiso   1.00
H1585  H     0.35565   0.73102   0.62958   0.00000  Uiso   1.00
C1586  C     0.41903   0.73148   0.55819   0.00000  Uiso   1.00
H1587  H     0.40720   0.75780   0.53867   0.00000  Uiso   1.00
H1588  H     0.40709   0.70247   0.54399   0.00000  Uiso   1.00
H1589  H     0.46003   0.73134   0.54667   0.00000  Uiso   1.00
C1590  C     0.60706   0.75647   0.90753   0.00000  Uiso   1.00
H1591  H     0.60592   0.74565   0.86852   0.00000  Uiso   1.00
H1592  H     0.64126   0.77490   0.89993   0.00000  Uiso   1.00
H1593  H     0.60931   0.72896   0.93117   0.00000  Uiso   1.00
O1594  O     0.37899   0.86768   0.91096   0.00000  Uiso   1.00
C1595  C     0.38434   0.91060   0.90215   0.00000  Uiso   1.00
H1596  H     0.40996   0.91567   0.86154   0.00000  Uiso   1.00
H1597  H     0.39942   0.92711   0.93035   0.00000  Uiso   1.00
C1598  C     0.33384   0.92960   0.90743   0.00000  Uiso   1.00
H1599  H     0.64889   0.91199   0.88326   0.00000  Uiso   1.00
H1600  H     0.64327   0.92794   0.94932   0.00000  Uiso   1.00
C1601  C     0.33856   0.97445   0.88982   0.00000  Uiso   1.00
H1602  H     0.35530   0.99302   0.91464   0.00000  Uiso   1.00
H1603  H     0.63468   0.98721   0.89393   0.00000  Uiso   1.00
H1604  H     0.36189   0.97675   0.84780   0.00000  Uiso   1.00
O1605  O     0.52324   0.76401   0.87295   0.00000  Uiso   1.00
C1606  C     0.48632   0.73353   0.89051   0.00000  Uiso   1.00
H1607  H     0.47123   0.72723   0.85783   0.00000  Uiso   1.00
H1608  H     0.45404   0.74333   0.92479   0.00000  Uiso   1.00
C1609  C     0.50870   0.69376   0.90386   0.00000  Uiso   1.00
H1610  H     0.54254   0.68539   0.87095   0.00000  Uiso   1.00
H1611  H     0.51917   0.69861   0.94009   0.00000  Uiso   1.00
C1612  C     0.47217   0.99166   0.91309   0.00000  Uiso   1.00
H1613  H     0.43824   0.99909   0.94636   0.00000  Uiso   1.00
H1614  H     0.48930   0.96338   0.92297   0.00000  Uiso   1.00
H1615  H     0.46202   0.98558   0.87692   0.00000  Uiso   1.00
C1616  C     0.83341   0.91269   0.74871   0.00000  Uiso   1.00
C1617  C     0.81150   0.83106   0.99016   0.00000  Uiso   1.00
C1618  C     0.81983   0.81787   0.93751   0.00000  Uiso   1.00
C1619  C     0.84832   0.82315   0.51439   0.00000  Uiso   1.00
C1620  C     0.89130   0.79998   0.98697   0.00000  Uiso   1.00
C1621  C     0.89584   0.78247   0.93709   0.00000  Uiso   1.00
C1622  C     0.85770   0.78847   0.91519   0.00000  Uiso   1.00
C1623  C     0.84366   0.83795   0.56525   0.00000  Uiso   1.00
C1624  C     0.92056   0.80510   0.56357   0.00000  Uiso   1.00
C1625  C     0.78910   0.83327   0.90901   0.00000  Uiso   1.00
C1626  C     0.87009   0.97852   0.76045   0.00000  Uiso   1.00
C1627  C     0.80644   0.83270   0.85058   0.00000  Uiso   1.00
C1628  C     0.87100   0.68768   0.76025   0.00000  Uiso   1.00
C1629  C     0.83439   0.70966   0.74728   0.00000  Uiso   1.00
C1630  C     0.79795   0.68913   0.73261   0.00000  Uiso   1.00
C1631  C     0.79697   0.97978   0.73140   0.00000  Uiso   1.00
C1632  C     0.83311   0.95746   0.74673   0.00000  Uiso   1.00
C1633  C     0.96650   0.86170   0.77888   0.00000  Uiso   1.00
C1634  C     0.68275   0.86162   0.77888   0.00000  Uiso   1.00
C1635  C     0.70040   0.80510   0.72027   0.00000  Uiso   1.00
C1636  C     0.98368   0.80495   0.72119   0.00000  Uiso   1.00
C1637  C     0.83372   0.75411   0.74913   0.00000  Uiso   1.00
C1638  C     0.86024   0.83231   0.64943   0.00000  Uiso   1.00
C1639  C     0.92781   0.79308   0.51127   0.00000  Uiso   1.00
C1640  C     0.87675   0.82646   0.59155   0.00000  Uiso   1.00
C1641  C     0.74481   0.85426   0.93646   0.00000  Uiso   1.00
C1642  C     0.73249   0.86050   0.99074   0.00000  Uiso   1.00
C1643  C     0.76588   0.85062   0.51693   0.00000  Uiso   1.00
Cu1644 Cu    0.78645   0.83333   0.75000   0.00000  Uiso   1.00
Cu1645 Cu    0.88022   0.83334   0.75000   0.00000  Uiso   1.00
H1646  H     0.89960   0.70330   0.77151   0.00000  Uiso   1.00
H1647  H     0.77023   0.70647   0.72173   0.00000  Uiso   1.00
H1648  H     0.94082   0.88440   0.80219   0.00000  Uiso   1.00
H1649  H     0.69459   0.88420   0.80191   0.00000  Uiso   1.00
H1650  H     0.97130   0.78173   0.69931   0.00000  Uiso   1.00
H1651  H     0.96129   0.77632   0.99077   0.00000  Uiso   1.00
H1652  H     0.81310   0.85730   0.58675   0.00000  Uiso   1.00
H1653  H     0.75407   0.85783   0.55845   0.00000  Uiso   1.00
H1654  H     0.69765   0.87510   0.51227   0.00000  Uiso   1.00
H1655  H     0.89810   0.96217   0.77211   0.00000  Uiso   1.00
N1656  N     0.71598   0.83332   0.74999   0.00000  Uiso   1.00
N1657  N     0.95069   0.83335   0.75000   0.00000  Uiso   1.00
O1658  O     0.79375   0.89345   0.75001   0.00000  Uiso   1.00
O1659  O     0.87294   0.89346   0.75001   0.00000  Uiso   1.00
O1660  O     0.77441   0.83332   0.82549   0.00000  Uiso   1.00
O1661  O     0.85360   0.83333   0.82549   0.00000  Uiso   1.00
O1662  O     0.79373   0.77321   0.75000   0.00000  Uiso   1.00
O1663  O     0.87292   0.77322   0.75000   0.00000  Uiso   1.00
O1664  O     0.81306   0.83334   0.67451   0.00000  Uiso   1.00
O1665  O     0.89225   0.83335   0.67451   0.00000  Uiso   1.00
C1666  C     0.95878   0.79279   0.58877   0.00000  Uiso   1.00
H1667  H     0.97406   0.82057   0.60207   0.00000  Uiso   1.00
H1668  H     0.94198   0.77212   0.62263   0.00000  Uiso   1.00
H1669  H     0.99012   0.77590   0.56071   0.00000  Uiso   1.00
C1670  C     0.75772   0.95977   0.71279   0.00000  Uiso   1.00
H1671  H     0.73049   0.94398   0.74617   0.00000  Uiso   1.00
H1672  H     0.73675   0.98260   0.69740   0.00000  Uiso   1.00
H1673  H     0.77497   0.93770   0.68021   0.00000  Uiso   1.00
O1674  O     0.73213   0.77396   0.69421   0.00000  Uiso   1.00
C1675  C     0.74167   0.77586   0.63889   0.00000  Uiso   1.00
H1676  H     0.78176   0.78109   0.62066   0.00000  Uiso   1.00
H1677  H     0.72197   0.80115   0.62548   0.00000  Uiso   1.00
C1678  C     0.72970   0.73461   0.61823   0.00000  Uiso   1.00
H1679  H     0.74476   0.70912   0.63625   0.00000  Uiso   1.00
H1680  H     0.68898   0.73102   0.62958   0.00000  Uiso   1.00
C1681  C     0.75236   0.73148   0.55819   0.00000  Uiso   1.00
H1682  H     0.74053   0.75780   0.53867   0.00000  Uiso   1.00
H1683  H     0.74042   0.70247   0.54399   0.00000  Uiso   1.00
H1684  H     0.79337   0.73134   0.54667   0.00000  Uiso   1.00
C1685  C     0.94039   0.75647   0.90753   0.00000  Uiso   1.00
H1686  H     0.93925   0.74565   0.86852   0.00000  Uiso   1.00
H1687  H     0.97459   0.77490   0.89993   0.00000  Uiso   1.00
H1688  H     0.94265   0.72896   0.93117   0.00000  Uiso   1.00
O1689  O     0.71233   0.86768   0.91096   0.00000  Uiso   1.00
C1690  C     0.71767   0.91060   0.90215   0.00000  Uiso   1.00
H1691  H     0.74329   0.91567   0.86154   0.00000  Uiso   1.00
H1692  H     0.73275   0.92711   0.93035   0.00000  Uiso   1.00
C1693  C     0.66717   0.92960   0.90743   0.00000  Uiso   1.00
H1694  H     0.98222   0.91199   0.88326   0.00000  Uiso   1.00
H1695  H     0.97661   0.92794   0.94932   0.00000  Uiso   1.00
C1696  C     0.67190   0.97445   0.88982   0.00000  Uiso   1.00
H1697  H     0.68864   0.99302   0.91464   0.00000  Uiso   1.00
H1698  H     0.96802   0.98721   0.89393   0.00000  Uiso   1.00
H1699  H     0.69522   0.97675   0.84780   0.00000  Uiso   1.00
O1700  O     0.85657   0.76401   0.87295   0.00000  Uiso   1.00
C1701  C     0.81965   0.73353   0.89051   0.00000  Uiso   1.00
H1702  H     0.80456   0.72723   0.85783   0.00000  Uiso   1.00
H1703  H     0.78737   0.74333   0.92479   0.00000  Uiso   1.00
C1704  C     0.84204   0.69376   0.90386   0.00000  Uiso   1.00
H1705  H     0.87587   0.68539   0.87095   0.00000  Uiso   1.00
H1706  H     0.85250   0.69861   0.94009   0.00000  Uiso   1.00
C1707  C     0.80550   0.99166   0.91309   0.00000  Uiso   1.00
H1708  H     0.77157   0.99909   0.94636   0.00000  Uiso   1.00
H1709  H     0.82263   0.96338   0.92297   0.00000  Uiso   1.00
H1710  H     0.79535   0.98558   0.87692   0.00000  Uiso   1.00
loop_
_geom_bond_atom_site_label_1
_geom_bond_atom_site_label_2
_geom_bond_distance
_geom_bond_site_symmetry_2
_ccdc_geom_bond_type
C1     O43     1.287   .     A
C1     O44     1.297   .     A
C1     C17     1.457   .     S
C2     C3      1.414   .     A
C2     C859    1.422   .     S
C2     C883    1.416   .     S
C3     C7      1.418   .     A
C3     C10     1.423   .     A
C4     C8      1.405   .     A
C4     C857    1.422   1_554 S
C4     C860    1.422   1_554 S
C5     C6      1.414   .     A
C5     C859    1.422   .     S
C5     C879    1.410   .     S
C6     C70     1.516   .     S
C6     C7      1.404   .     A
C7     O85     1.387   .     S
C8     C25     1.395   .     A
C8     H37     1.076   .     S
C9     C51     1.507   .     S
C9     C25     1.413   .     A
C9     C24     1.400   .     A
C10    C26     1.413   .     A
C10    C12     1.480   .     S
C11    C17     1.403   .     A
C11    H40     1.084   .     S
C11    C298    1.382   .     S
C12    O46     1.299   .     A
C12    O45     1.295   .     A
C13    C14     1.396   .     A
C13    H31     1.083   .     S
C13    C581    1.382   1_545 S
C14    C22     1.446   .     S
C14    C15     1.395   .     A
C15    H32     1.082   .     S
C15    C586    1.388   1_545 S
C16    C17     1.422   .     A
C16    C55     1.512   .     S
C16    C300    1.388   .     S
C18    N42     1.367   .     A
C18    H33     1.082   .     S
C18    C114    1.415   .     S
C19    H34     1.078   .     S
C19    N41     1.364   .     A
C19    C208    1.415   1_455 S
C20    N41     1.376   .     A
C20    O59     1.383   .     S
C20    C211    1.421   1_455 S
C21    H35     1.080   .     S
C21    N42     1.362   .     A
C21    C115    1.421   .     S
C22    O48     1.289   .     A
C22    O47     1.290   .     A
C23    O49     1.299   .     A
C23    O50     1.294   .     A
C23    C25     1.477   .     S
C24    C860    1.410   1_554 S
C24    H891    1.081   1_554 S
C26    C27     1.393   .     A
C26    O74     1.384   .     S
C27    C883    1.388   .     S
C27    H894    1.083   .     S
C28    H38     1.076   .     S
C28    C882    1.388   1_554 S
C28    C857    1.416   1_554 S
Cu29   O49     1.916   .     S
Cu29   O47     1.964   .     S
Cu29   O43     1.967   .     S
Cu29   O45     1.935   .     S
Cu29   Cu30    2.677   .     S
Cu29   N41     2.011   .     S
Cu30   O48     1.967   .     S
Cu30   O50     1.935   .     S
Cu30   O44     1.964   .     S
Cu30   O46     1.916   .     S
Cu30   N42     2.011   .     S
H36    C879    1.081   .     S
H39    C882    1.083   1_554 S
C51    H52     1.110   .     S
C51    H54     1.108   .     S
C51    H53     1.110   .     S
C55    H56     1.109   .     S
C55    H57     1.110   .     S
C55    H58     1.111   .     S
O59    C60     1.417   .     S
C60    C63     1.529   .     S
C60    H62     1.117   .     S
C60    H61     1.106   .     S
C63    H65     1.111   .     S
C63    C66     1.530   .     S
C63    H64     1.111   .     S
C66    H68     1.110   .     S
C66    H69     1.111   .     S
C66    H67     1.109   .     S
C70    H71     1.109   .     S
C70    H73     1.110   .     S
C70    H72     1.111   .     S
O74    C75     1.417   .     S
C75    H76     1.112   .     S
C75    H77     1.117   .     S
C75    C78     1.530   .     S
C78    C81     1.527   .     S
C78    H269    1.110   1_455 S
C78    H270    1.112   1_455 S
H79    C173    1.110   .     S
H80    C173    1.112   .     S
C81    H82     1.111   .     S
C81    H84     1.111   .     S
C81    H273    1.111   1_455 S
H83    C176    1.111   .     S
O85    C86     1.418   .     S
C86    C89     1.532   .     S
C86    H87     1.109   .     S
C86    H88     1.117   .     S
C89    H91     1.111   .     S
C89    H90     1.111   .     S
C89    C662    1.525   1_545 S
C92    H95     1.111   .     S
C92    H94     1.110   .     S
C92    H93     1.111   .     S
C92    C374    1.525   .     S
C96    O138    1.287   .     A
C96    O139    1.297   .     A
C96    C112    1.457   .     S
C97    C98     1.414   .     A
C97    C954    1.422   .     S
C97    C978    1.416   .     S
C98    C102    1.418   .     A
C98    C105    1.423   .     A
C99    C103    1.405   .     A
C99    C952    1.422   1_554 S
C99    C955    1.422   1_554 S
C100   C101    1.414   .     A
C100   C954    1.422   .     S
C100   C974    1.410   .     S
C101   C165    1.516   .     S
C101   C102    1.404   .     A
C102   O180    1.387   .     S
C103   C120    1.395   .     A
C103   H132    1.076   .     S
C104   C146    1.507   .     S
C104   C120    1.413   .     A
C104   C119    1.400   .     A
C105   C121    1.413   .     A
C105   C107    1.480   .     S
C106   C112    1.403   .     A
C106   H135    1.084   .     S
C106   C393    1.382   .     S
C107   O141    1.299   .     A
C107   O140    1.295   .     A
C108   C109    1.396   .     A
C108   H126    1.083   .     S
C108   C676    1.382   1_545 S
C109   C117    1.446   .     S
C109   C110    1.395   .     A
C110   H127    1.082   .     S
C110   C681    1.388   1_545 S
C111   C112    1.422   .     A
C111   C150    1.512   .     S
C111   C395    1.388   .     S
C113   N137    1.367   .     A
C113   H128    1.082   .     S
C113   C209    1.415   .     S
C114   H129    1.078   .     S
C114   N136    1.364   .     A
C115   N136    1.376   .     A
C115   O154    1.383   .     S
C116   H130    1.080   .     S
C116   N137    1.362   .     A
C116   C210    1.421   .     S
C117   O143    1.289   .     A
C117   O142    1.290   .     A
C118   O144    1.299   .     A
C118   O145    1.294   .     A
C118   C120    1.477   .     S
C119   C955    1.410   1_554 S
C119   H986    1.081   1_554 S
C121   C122    1.393   .     A
C121   O169    1.384   .     S
C122   C978    1.388   .     S
C122   H989    1.083   .     S
C123   H133    1.076   .     S
C123   C977    1.388   1_554 S
C123   C952    1.416   1_554 S
Cu124  O144    1.916   .     S
Cu124  O142    1.964   .     S
Cu124  O138    1.967   .     S
Cu124  O140    1.935   .     S
Cu124  Cu125   2.677   .     S
Cu124  N136    2.011   .     S
Cu125  O143    1.967   .     S
Cu125  O145    1.935   .     S
Cu125  O139    1.964   .     S
Cu125  O141    1.916   .     S
Cu125  N137    2.011   .     S
H131   C974    1.081   .     S
H134   C977    1.083   1_554 S
C146   H147    1.110   .     S
C146   H149    1.108   .     S
C146   H148    1.110   .     S
C150   H151    1.109   .     S
C150   H152    1.110   .     S
C150   H153    1.111   .     S
O154   C155    1.417   .     S
C155   C158    1.529   .     S
C155   H157    1.117   .     S
C155   H156    1.106   .     S
C158   H160    1.111   .     S
C158   C161    1.530   .     S
C158   H159    1.111   .     S
C161   H163    1.110   .     S
C161   H164    1.111   .     S
C161   H162    1.109   .     S
C165   H166    1.109   .     S
C165   H168    1.110   .     S
C165   H167    1.111   .     S
O169   C170    1.417   .     S
C170   H171    1.112   .     S
C170   H172    1.117   .     S
C170   C173    1.530   .     S
C173   C176    1.527   .     S
H174   C268    1.110   .     S
H175   C268    1.112   .     S
C176   H177    1.111   .     S
C176   H179    1.111   .     S
H178   C271    1.111   .     S
O180   C181    1.418   .     S
C181   C184    1.532   .     S
C181   H182    1.109   .     S
C181   H183    1.117   .     S
C184   H186    1.111   .     S
C184   H185    1.111   .     S
C184   C757    1.525   1_545 S
C187   H190    1.111   .     S
C187   H189    1.110   .     S
C187   H188    1.111   .     S
C187   C469    1.525   .     S
C191   O233    1.287   .     A
C191   O234    1.297   .     A
C191   C207    1.457   .     S
C192   C193    1.414   .     A
C192   C1049   1.422   .     S
C192   C1073   1.416   .     S
C193   C197    1.418   .     A
C193   C200    1.423   .     A
C194   C198    1.405   .     A
C194   C1047   1.422   1_554 S
C194   C1050   1.422   1_554 S
C195   C196    1.414   .     A
C195   C1049   1.422   .     S
C195   C1069   1.410   .     S
C196   C260    1.516   .     S
C196   C197    1.404   .     A
C197   O275    1.387   .     S
C198   C215    1.395   .     A
C198   H227    1.076   .     S
C199   C241    1.507   .     S
C199   C215    1.413   .     A
C199   C214    1.400   .     A
C200   C216    1.413   .     A
C200   C202    1.480   .     S
C201   C207    1.403   .     A
C201   H230    1.084   .     S
C201   C488    1.382   .     S
C202   O236    1.299   .     A
C202   O235    1.295   .     A
C203   C204    1.396   .     A
C203   H221    1.083   .     S
C203   C771    1.382   1_545 S
C204   C212    1.446   .     S
C204   C205    1.395   .     A
C205   H222    1.082   .     S
C205   C776    1.388   1_545 S
C206   C207    1.422   .     A
C206   C245    1.512   .     S
C206   C490    1.388   .     S
C208   N232    1.367   .     A
C208   H223    1.082   .     S
C208   C19     1.415   1_655 S
C209   H224    1.078   .     S
C209   N231    1.364   .     A
C210   N231    1.376   .     A
C210   O249    1.383   .     S
C211   H225    1.080   .     S
C211   N232    1.362   .     A
C211   C20     1.421   1_655 S
C212   O238    1.289   .     A
C212   O237    1.290   .     A
C213   O239    1.299   .     A
C213   O240    1.294   .     A
C213   C215    1.477   .     S
C214   C1050   1.410   1_554 S
C214   H1081   1.081   1_554 S
C216   C217    1.393   .     A
C216   O264    1.384   .     S
C217   C1073   1.388   .     S
C217   H1084   1.083   .     S
C218   H228    1.076   .     S
C218   C1072   1.388   1_554 S
C218   C1047   1.416   1_554 S
Cu219  O239    1.916   .     S
Cu219  O237    1.964   .     S
Cu219  O233    1.967   .     S
Cu219  O235    1.935   .     S
Cu219  Cu220   2.677   .     S
Cu219  N231    2.011   .     S
Cu220  O238    1.967   .     S
Cu220  O240    1.935   .     S
Cu220  O234    1.964   .     S
Cu220  O236    1.916   .     S
Cu220  N232    2.011   .     S
H226   C1069   1.081   .     S
H229   C1072   1.083   1_554 S
C241   H242    1.110   .     S
C241   H244    1.108   .     S
C241   H243    1.110   .     S
C245   H246    1.109   .     S
C245   H247    1.110   .     S
C245   H248    1.111   .     S
O249   C250    1.417   .     S
C250   C253    1.529   .     S
C250   H252    1.117   .     S
C250   H251    1.106   .     S
C253   H255    1.111   .     S
C253   C256    1.530   .     S
C253   H254    1.111   .     S
C256   H258    1.110   .     S
C256   H259    1.111   .     S
C256   H257    1.109   .     S
C260   H261    1.109   .     S
C260   H263    1.110   .     S
C260   H262    1.111   .     S
O264   C265    1.417   .     S
C265   H266    1.112   .     S
C265   H267    1.117   .     S
C265   C268    1.530   .     S
C268   C271    1.527   .     S
H269   C78     1.110   1_655 S
H270   C78     1.112   1_655 S
C271   H272    1.111   .     S
C271   H274    1.111   .     S
H273   C81     1.111   1_655 S
O275   C276    1.418   .     S
C276   C279    1.532   .     S
C276   H277    1.109   .     S
C276   H278    1.117   .     S
C279   H281    1.111   .     S
C279   H280    1.111   .     S
C279   C852    1.525   1_545 S
C282   H285    1.111   .     S
C282   H284    1.110   .     S
C282   H283    1.111   .     S
C282   C564    1.525   .     S
C286   O328    1.287   .     A
C286   O329    1.297   .     A
C286   C302    1.457   .     S
C287   C288    1.414   .     A
C287   C1144   1.422   .     S
C287   C1168   1.416   .     S
C288   C292    1.418   .     A
C288   C295    1.423   .     A
C289   C293    1.405   .     A
C289   C1142   1.422   1_554 S
C289   C1145   1.422   1_554 S
C290   C291    1.414   .     A
C290   C1144   1.422   .     S
C290   C1164   1.410   .     S
C291   C355    1.516   .     S
C291   C292    1.404   .     A
C292   O370    1.387   .     S
C293   C310    1.395   .     A
C293   H322    1.076   .     S
C294   C336    1.507   .     S
C294   C310    1.413   .     A
C294   C309    1.400   .     A
C295   C311    1.413   .     A
C295   C297    1.480   .     S
C296   C302    1.403   .     A
C296   H325    1.084   .     S
C296   C583    1.382   .     S
C297   O331    1.299   .     A
C297   O330    1.295   .     A
C298   C299    1.396   .     A
C298   H316    1.083   .     S
C299   C307    1.446   .     S
C299   C300    1.395   .     A
C300   H317    1.082   .     S
C301   C302    1.422   .     A
C301   C340    1.512   .     S
C301   C585    1.388   .     S
C303   N327    1.367   .     A
C303   H318    1.082   .     S
C303   C399    1.415   .     S
C304   H319    1.078   .     S
C304   N326    1.364   .     A
C304   C493    1.415   1_455 S
C305   N326    1.376   .     A
C305   O344    1.383   .     S
C305   C496    1.421   1_455 S
C306   H320    1.080   .     S
C306   N327    1.362   .     A
C306   C400    1.421   .     S
C307   O333    1.289   .     A
C307   O332    1.290   .     A
C308   O334    1.299   .     A
C308   O335    1.294   .     A
C308   C310    1.477   .     S
C309   C1145   1.410   1_554 S
C309   H1176   1.081   1_554 S
C311   C312    1.393   .     A
C311   O359    1.384   .     S
C312   C1168   1.388   .     S
C312   H1179   1.083   .     S
C313   H323    1.076   .     S
C313   C1167   1.388   1_554 S
C313   C1142   1.416   1_554 S
Cu314  O334    1.916   .     S
Cu314  O332    1.964   .     S
Cu314  O328    1.967   .     S
Cu314  O330    1.935   .     S
Cu314  Cu315   2.677   .     S
Cu314  N326    2.011   .     S
Cu315  O333    1.967   .     S
Cu315  O335    1.935   .     S
Cu315  O329    1.964   .     S
Cu315  O331    1.916   .     S
Cu315  N327    2.011   .     S
H321   C1164   1.081   .     S
H324   C1167   1.083   1_554 S
C336   H337    1.110   .     S
C336   H339    1.108   .     S
C336   H338    1.110   .     S
C340   H341    1.109   .     S
C340   H342    1.110   .     S
C340   H343    1.111   .     S
O344   C345    1.417   .     S
C345   C348    1.529   .     S
C345   H347    1.117   .     S
C345   H346    1.106   .     S
C348   H350    1.111   .     S
C348   C351    1.530   .     S
C348   H349    1.111   .     S
C351   H353    1.110   .     S
C351   H354    1.111   .     S
C351   H352    1.109   .     S
C355   H356    1.109   .     S
C355   H358    1.110   .     S
C355   H357    1.111   .     S
O359   C360    1.417   .     S
C360   H361    1.112   .     S
C360   H362    1.117   .     S
C360   C363    1.530   .     S
C363   C366    1.527   .     S
C363   H554    1.110   1_455 S
C363   H555    1.112   1_455 S
H364   C458    1.110   .     S
H365   C458    1.112   .     S
C366   H367    1.111   .     S
C366   H369    1.111   .     S
C366   H558    1.111   1_455 S
H368   C461    1.111   .     S
O370   C371    1.418   .     S
C371   C374    1.532   .     S
C371   H372    1.109   .     S
C371   H373    1.117   .     S
C374   H376    1.111   .     S
C374   H375    1.111   .     S
C377   H380    1.111   .     S
C377   H379    1.110   .     S
C377   H378    1.111   .     S
C377   C659    1.525   .     S
C381   O423    1.287   .     A
C381   O424    1.297   .     A
C381   C397    1.457   .     S
C382   C383    1.414   .     A
C382   C1239   1.422   .     S
C382   C1263   1.416   .     S
C383   C387    1.418   .     A
C383   C390    1.423   .     A
C384   C388    1.405   .     A
C384   C1237   1.422   1_554 S
C384   C1240   1.422   1_554 S
C385   C386    1.414   .     A
C385   C1239   1.422   .     S
C385   C1259   1.410   .     S
C386   C450    1.516   .     S
C386   C387    1.404   .     A
C387   O465    1.387   .     S
C388   C405    1.395   .     A
C388   H417    1.076   .     S
C389   C431    1.507   .     S
C389   C405    1.413   .     A
C389   C404    1.400   .     A
C390   C406    1.413   .     A
C390   C392    1.480   .     S
C391   C397    1.403   .     A
C391   H420    1.084   .     S
C391   C678    1.382   .     S
C392   O426    1.299   .     A
C392   O425    1.295   .     A
C393   C394    1.396   .     A
C393   H411    1.083   .     S
C394   C402    1.446   .     S
C394   C395    1.395   .     A
C395   H412    1.082   .     S
C396   C397    1.422   .     A
C396   C435    1.512   .     S
C396   C680    1.388   .     S
C398   N422    1.367   .     A
C398   H413    1.082   .     S
C398   C494    1.415   .     S
C399   H414    1.078   .     S
C399   N421    1.364   .     A
C400   N421    1.376   .     A
C400   O439    1.383   .     S
C401   H415    1.080   .     S
C401   N422    1.362   .     A
C401   C495    1.421   .     S
C402   O428    1.289   .     A
C402   O427    1.290   .     A
C403   O429    1.299   .     A
C403   O430    1.294   .     A
C403   C405    1.477   .     S
C404   C1240   1.410   1_554 S
C404   H1271   1.081   1_554 S
C406   C407    1.393   .     A
C406   O454    1.384   .     S
C407   C1263   1.388   .     S
C407   H1274   1.083   .     S
C408   H418    1.076   .     S
C408   C1262   1.388   1_554 S
C408   C1237   1.416   1_554 S
Cu409  O429    1.916   .     S
Cu409  O427    1.964   .     S
Cu409  O423    1.967   .     S
Cu409  O425    1.935   .     S
Cu409  Cu410   2.677   .     S
Cu409  N421    2.011   .     S
Cu410  O428    1.967   .     S
Cu410  O430    1.935   .     S
Cu410  O424    1.964   .     S
Cu410  O426    1.916   .     S
Cu410  N422    2.011   .     S
H416   C1259   1.081   .     S
H419   C1262   1.083   1_554 S
C431   H432    1.110   .     S
C431   H434    1.108   .     S
C431   H433    1.110   .     S
C435   H436    1.109   .     S
C435   H437    1.110   .     S
C435   H438    1.111   .     S
O439   C440    1.417   .     S
C440   C443    1.529   .     S
C440   H442    1.117   .     S
C440   H441    1.106   .     S
C443   H445    1.111   .     S
C443   C446    1.530   .     S
C443   H444    1.111   .     S
C446   H448    1.110   .     S
C446   H449    1.111   .     S
C446   H447    1.109   .     S
C450   H451    1.109   .     S
C450   H453    1.110   .     S
C450   H452    1.111   .     S
O454   C455    1.417   .     S
C455   H456    1.112   .     S
C455   H457    1.117   .     S
C455   C458    1.530   .     S
C458   C461    1.527   .     S
H459   C553    1.110   .     S
H460   C553    1.112   .     S
C461   H462    1.111   .     S
C461   H464    1.111   .     S
H463   C556    1.111   .     S
O465   C466    1.418   .     S
C466   C469    1.532   .     S
C466   H467    1.109   .     S
C466   H468    1.117   .     S
C469   H471    1.111   .     S
C469   H470    1.111   .     S
C472   H475    1.111   .     S
C472   H474    1.110   .     S
C472   H473    1.111   .     S
C472   C754    1.525   .     S
C476   O518    1.287   .     A
C476   O519    1.297   .     A
C476   C492    1.457   .     S
C477   C478    1.414   .     A
C477   C1334   1.422   .     S
C477   C1358   1.416   .     S
C478   C482    1.418   .     A
C478   C485    1.423   .     A
C479   C483    1.405   .     A
C479   C1332   1.422   1_554 S
C479   C1335   1.422   1_554 S
C480   C481    1.414   .     A
C480   C1334   1.422   .     S
C480   C1354   1.410   .     S
C481   C545    1.516   .     S
C481   C482    1.404   .     A
C482   O560    1.387   .     S
C483   C500    1.395   .     A
C483   H512    1.076   .     S
C484   C526    1.507   .     S
C484   C500    1.413   .     A
C484   C499    1.400   .     A
C485   C501    1.413   .     A
C485   C487    1.480   .     S
C486   C492    1.403   .     A
C486   H515    1.084   .     S
C486   C773    1.382   .     S
C487   O521    1.299   .     A
C487   O520    1.295   .     A
C488   C489    1.396   .     A
C488   H506    1.083   .     S
C489   C497    1.446   .     S
C489   C490    1.395   .     A
C490   H507    1.082   .     S
C491   C492    1.422   .     A
C491   C530    1.512   .     S
C491   C775    1.388   .     S
C493   N517    1.367   .     A
C493   H508    1.082   .     S
C493   C304    1.415   1_655 S
C494   H509    1.078   .     S
C494   N516    1.364   .     A
C495   N516    1.376   .     A
C495   O534    1.383   .     S
C496   H510    1.080   .     S
C496   N517    1.362   .     A
C496   C305    1.421   1_655 S
C497   O523    1.289   .     A
C497   O522    1.290   .     A
C498   O524    1.299   .     A
C498   O525    1.294   .     A
C498   C500    1.477   .     S
C499   C1335   1.410   1_554 S
C499   H1366   1.081   1_554 S
C501   C502    1.393   .     A
C501   O549    1.384   .     S
C502   C1358   1.388   .     S
C502   H1369   1.083   .     S
C503   H513    1.076   .     S
C503   C1357   1.388   1_554 S
C503   C1332   1.416   1_554 S
Cu504  O524    1.916   .     S
Cu504  O522    1.964   .     S
Cu504  O518    1.967   .     S
Cu504  O520    1.935   .     S
Cu504  Cu505   2.677   .     S
Cu504  N516    2.011   .     S
Cu505  O523    1.967   .     S
Cu505  O525    1.935   .     S
Cu505  O519    1.964   .     S
Cu505  O521    1.916   .     S
Cu505  N517    2.011   .     S
H511   C1354   1.081   .     S
H514   C1357   1.083   1_554 S
C526   H527    1.110   .     S
C526   H529    1.108   .     S
C526   H528    1.110   .     S
C530   H531    1.109   .     S
C530   H532    1.110   .     S
C530   H533    1.111   .     S
O534   C535    1.417   .     S
C535   C538    1.529   .     S
C535   H537    1.117   .     S
C535   H536    1.106   .     S
C538   H540    1.111   .     S
C538   C541    1.530   .     S
C538   H539    1.111   .     S
C541   H543    1.110   .     S
C541   H544    1.111   .     S
C541   H542    1.109   .     S
C545   H546    1.109   .     S
C545   H548    1.110   .     S
C545   H547    1.111   .     S
O549   C550    1.417   .     S
C550   H551    1.112   .     S
C550   H552    1.117   .     S
C550   C553    1.530   .     S
C553   C556    1.527   .     S
H554   C363    1.110   1_655 S
H555   C363    1.112   1_655 S
C556   H557    1.111   .     S
C556   H559    1.111   .     S
H558   C366    1.111   1_655 S
O560   C561    1.418   .     S
C561   C564    1.532   .     S
C561   H562    1.109   .     S
C561   H563    1.117   .     S
C564   H566    1.111   .     S
C564   H565    1.111   .     S
C567   H570    1.111   .     S
C567   H569    1.110   .     S
C567   H568    1.111   .     S
C567   C849    1.525   .     S
C571   O613    1.287   .     A
C571   O614    1.297   .     A
C571   C587    1.457   .     S
C572   C573    1.414   .     A
C572   C1429   1.422   .     S
C572   C1453   1.416   .     S
C573   C577    1.418   .     A
C573   C580    1.423   .     A
C574   C578    1.405   .     A
C574   C1427   1.422   1_554 S
C574   C1430   1.422   1_554 S
C575   C576    1.414   .     A
C575   C1429   1.422   .     S
C575   C1449   1.410   .     S
C576   C640    1.516   .     S
C576   C577    1.404   .     A
C577   O655    1.387   .     S
C578   C595    1.395   .     A
C578   H607    1.076   .     S
C579   C621    1.507   .     S
C579   C595    1.413   .     A
C579   C594    1.400   .     A
C580   C596    1.413   .     A
C580   C582    1.480   .     S
C581   C587    1.403   .     A
C581   H610    1.084   .     S
C581   C13     1.382   1_565 S
C582   O616    1.299   .     A
C582   O615    1.295   .     A
C583   C584    1.396   .     A
C583   H601    1.083   .     S
C584   C592    1.446   .     S
C584   C585    1.395   .     A
C585   H602    1.082   .     S
C586   C587    1.422   .     A
C586   C625    1.512   .     S
C586   C15     1.388   1_565 S
C588   N612    1.367   .     A
C588   H603    1.082   .     S
C588   C684    1.415   .     S
C589   H604    1.078   .     S
C589   N611    1.364   .     A
C589   C778    1.415   1_455 S
C590   N611    1.376   .     A
C590   O629    1.383   .     S
C590   C781    1.421   1_455 S
C591   H605    1.080   .     S
C591   N612    1.362   .     A
C591   C685    1.421   .     S
C592   O618    1.289   .     A
C592   O617    1.290   .     A
C593   O619    1.299   .     A
C593   O620    1.294   .     A
C593   C595    1.477   .     S
C594   C1430   1.410   1_554 S
C594   H1461   1.081   1_554 S
C596   C597    1.393   .     A
C596   O644    1.384   .     S
C597   C1453   1.388   .     S
C597   H1464   1.083   .     S
C598   H608    1.076   .     S
C598   C1452   1.388   1_554 S
C598   C1427   1.416   1_554 S
Cu599  O619    1.916   .     S
Cu599  O617    1.964   .     S
Cu599  O613    1.967   .     S
Cu599  O615    1.935   .     S
Cu599  Cu600   2.677   .     S
Cu599  N611    2.011   .     S
Cu600  O618    1.967   .     S
Cu600  O620    1.935   .     S
Cu600  O614    1.964   .     S
Cu600  O616    1.916   .     S
Cu600  N612    2.011   .     S
H606   C1449   1.081   .     S
H609   C1452   1.083   1_554 S
C621   H622    1.110   .     S
C621   H624    1.108   .     S
C621   H623    1.110   .     S
C625   H626    1.109   .     S
C625   H627    1.110   .     S
C625   H628    1.111   .     S
O629   C630    1.417   .     S
C630   C633    1.529   .     S
C630   H632    1.117   .     S
C630   H631    1.106   .     S
C633   H635    1.111   .     S
C633   C636    1.530   .     S
C633   H634    1.111   .     S
C636   H638    1.110   .     S
C636   H639    1.111   .     S
C636   H637    1.109   .     S
C640   H641    1.109   .     S
C640   H643    1.110   .     S
C640   H642    1.111   .     S
O644   C645    1.417   .     S
C645   H646    1.112   .     S
C645   H647    1.117   .     S
C645   C648    1.530   .     S
C648   C651    1.527   .     S
C648   H839    1.110   1_455 S
C648   H840    1.112   1_455 S
H649   C743    1.110   .     S
H650   C743    1.112   .     S
C651   H652    1.111   .     S
C651   H654    1.111   .     S
C651   H843    1.111   1_455 S
H653   C746    1.111   .     S
O655   C656    1.418   .     S
C656   C659    1.532   .     S
C656   H657    1.109   .     S
C656   H658    1.117   .     S
C659   H661    1.111   .     S
C659   H660    1.111   .     S
C662   H665    1.111   .     S
C662   H664    1.110   .     S
C662   H663    1.111   .     S
C662   C89     1.525   1_565 S
C666   O708    1.287   .     A
C666   O709    1.297   .     A
C666   C682    1.457   .     S
C667   C668    1.414   .     A
C667   C1524   1.422   .     S
C667   C1548   1.416   .     S
C668   C672    1.418   .     A
C668   C675    1.423   .     A
C669   C673    1.405   .     A
C669   C1522   1.422   1_554 S
C669   C1525   1.422   1_554 S
C670   C671    1.414   .     A
C670   C1524   1.422   .     S
C670   C1544   1.410   .     S
C671   C735    1.516   .     S
C671   C672    1.404   .     A
C672   O750    1.387   .     S
C673   C690    1.395   .     A
C673   H702    1.076   .     S
C674   C716    1.507   .     S
C674   C690    1.413   .     A
C674   C689    1.400   .     A
C675   C691    1.413   .     A
C675   C677    1.480   .     S
C676   C682    1.403   .     A
C676   H705    1.084   .     S
C676   C108    1.382   1_565 S
C677   O711    1.299   .     A
C677   O710    1.295   .     A
C678   C679    1.396   .     A
C678   H696    1.083   .     S
C679   C687    1.446   .     S
C679   C680    1.395   .     A
C680   H697    1.082   .     S
C681   C682    1.422   .     A
C681   C720    1.512   .     S
C681   C110    1.388   1_565 S
C683   N707    1.367   .     A
C683   H698    1.082   .     S
C683   C779    1.415   .     S
C684   H699    1.078   .     S
C684   N706    1.364   .     A
C685   N706    1.376   .     A
C685   O724    1.383   .     S
C686   H700    1.080   .     S
C686   N707    1.362   .     A
C686   C780    1.421   .     S
C687   O713    1.289   .     A
C687   O712    1.290   .     A
C688   O714    1.299   .     A
C688   O715    1.294   .     A
C688   C690    1.477   .     S
C689   C1525   1.410   1_554 S
C689   H1556   1.081   1_554 S
C691   C692    1.393   .     A
C691   O739    1.384   .     S
C692   C1548   1.388   .     S
C692   H1559   1.083   .     S
C693   H703    1.076   .     S
C693   C1547   1.388   1_554 S
C693   C1522   1.416   1_554 S
Cu694  O714    1.916   .     S
Cu694  O712    1.964   .     S
Cu694  O708    1.967   .     S
Cu694  O710    1.935   .     S
Cu694  Cu695   2.677   .     S
Cu694  N706    2.011   .     S
Cu695  O713    1.967   .     S
Cu695  O715    1.935   .     S
Cu695  O709    1.964   .     S
Cu695  O711    1.916   .     S
Cu695  N707    2.011   .     S
H701   C1544   1.081   .     S
H704   C1547   1.083   1_554 S
C716   H717    1.110   .     S
C716   H719    1.108   .     S
C716   H718    1.110   .     S
C720   H721    1.109   .     S
C720   H722    1.110   .     S
C720   H723    1.111   .     S
O724   C725    1.417   .     S
C725   C728    1.529   .     S
C725   H727    1.117   .     S
C725   H726    1.106   .     S
C728   H730    1.111   .     S
C728   C731    1.530   .     S
C728   H729    1.111   .     S
C731   H733    1.110   .     S
C731   H734    1.111   .     S
C731   H732    1.109   .     S
C735   H736    1.109   .     S
C735   H738    1.110   .     S
C735   H737    1.111   .     S
O739   C740    1.417   .     S
C740   H741    1.112   .     S
C740   H742    1.117   .     S
C740   C743    1.530   .     S
C743   C746    1.527   .     S
H744   C838    1.110   .     S
H745   C838    1.112   .     S
C746   H747    1.111   .     S
C746   H749    1.111   .     S
H748   C841    1.111   .     S
O750   C751    1.418   .     S
C751   C754    1.532   .     S
C751   H752    1.109   .     S
C751   H753    1.117   .     S
C754   H756    1.111   .     S
C754   H755    1.111   .     S
C757   H760    1.111   .     S
C757   H759    1.110   .     S
C757   H758    1.111   .     S
C757   C184    1.525   1_565 S
C761   O803    1.287   .     A
C761   O804    1.297   .     A
C761   C777    1.457   .     S
C762   C763    1.414   .     A
C762   C1619   1.422   .     S
C762   C1643   1.416   .     S
C763   C767    1.418   .     A
C763   C770    1.423   .     A
C764   C768    1.405   .     A
C764   C1617   1.422   1_554 S
C764   C1620   1.422   1_554 S
C765   C766    1.414   .     A
C765   C1619   1.422   .     S
C765   C1639   1.410   .     S
C766   C830    1.516   .     S
C766   C767    1.404   .     A
C767   O845    1.387   .     S
C768   C785    1.395   .     A
C768   H797    1.076   .     S
C769   C811    1.507   .     S
C769   C785    1.413   .     A
C769   C784    1.400   .     A
C770   C786    1.413   .     A
C770   C772    1.480   .     S
C771   C777    1.403   .     A
C771   H800    1.084   .     S
C771   C203    1.382   1_565 S
C772   O806    1.299   .     A
C772   O805    1.295   .     A
C773   C774    1.396   .     A
C773   H791    1.083   .     S
C774   C782    1.446   .     S
C774   C775    1.395   .     A
C775   H792    1.082   .     S
C776   C777    1.422   .     A
C776   C815    1.512   .     S
C776   C205    1.388   1_565 S
C778   N802    1.367   .     A
C778   H793    1.082   .     S
C778   C589    1.415   1_655 S
C779   H794    1.078   .     S
C779   N801    1.364   .     A
C780   N801    1.376   .     A
C780   O819    1.383   .     S
C781   H795    1.080   .     S
C781   N802    1.362   .     A
C781   C590    1.421   1_655 S
C782   O808    1.289   .     A
C782   O807    1.290   .     A
C783   O809    1.299   .     A
C783   O810    1.294   .     A
C783   C785    1.477   .     S
C784   C1620   1.410   1_554 S
C784   H1651   1.081   1_554 S
C786   C787    1.393   .     A
C786   O834    1.384   .     S
C787   C1643   1.388   .     S
C787   H1654   1.083   .     S
C788   H798    1.076   .     S
C788   C1642   1.388   1_554 S
C788   C1617   1.416   1_554 S
Cu789  O809    1.916   .     S
Cu789  O807    1.964   .     S
Cu789  O803    1.967   .     S
Cu789  O805    1.935   .     S
Cu789  Cu790   2.677   .     S
Cu789  N801    2.011   .     S
Cu790  O808    1.967   .     S
Cu790  O810    1.935   .     S
Cu790  O804    1.964   .     S
Cu790  O806    1.916   .     S
Cu790  N802    2.011   .     S
H796   C1639   1.081   .     S
H799   C1642   1.083   1_554 S
C811   H812    1.110   .     S
C811   H814    1.108   .     S
C811   H813    1.110   .     S
C815   H816    1.109   .     S
C815   H817    1.110   .     S
C815   H818    1.111   .     S
O819   C820    1.417   .     S
C820   C823    1.529   .     S
C820   H822    1.117   .     S
C820   H821    1.106   .     S
C823   H825    1.111   .     S
C823   C826    1.530   .     S
C823   H824    1.111   .     S
C826   H828    1.110   .     S
C826   H829    1.111   .     S
C826   H827    1.109   .     S
C830   H831    1.109   .     S
C830   H833    1.110   .     S
C830   H832    1.111   .     S
O834   C835    1.417   .     S
C835   H836    1.112   .     S
C835   H837    1.117   .     S
C835   C838    1.530   .     S
C838   C841    1.527   .     S
H839   C648    1.110   1_655 S
H840   C648    1.112   1_655 S
C841   H842    1.111   .     S
C841   H844    1.111   .     S
H843   C651    1.111   1_655 S
O845   C846    1.418   .     S
C846   C849    1.532   .     S
C846   H847    1.109   .     S
C846   H848    1.117   .     S
C849   H851    1.111   .     S
C849   H850    1.111   .     S
C852   H855    1.111   .     S
C852   H854    1.110   .     S
C852   H853    1.111   .     S
C852   C279    1.525   1_565 S
C856   O898    1.287   .     A
C856   O899    1.297   .     A
C856   C872    1.457   .     S
C857   C858    1.414   .     A
C857   C4      1.422   1_556 S
C857   C28     1.416   1_556 S
C858   C862    1.418   .     A
C858   C865    1.423   .     A
C859   C863    1.405   .     A
C860   C861    1.414   .     A
C860   C4      1.422   1_556 S
C860   C24     1.410   1_556 S
C861   C925    1.516   .     S
C861   C862    1.404   .     A
C862   O940    1.387   .     S
C863   C880    1.395   .     A
C863   H892    1.076   .     S
C864   C906    1.507   .     S
C864   C880    1.413   .     A
C864   C879    1.400   .     A
C865   C881    1.413   .     A
C865   C867    1.480   .     S
C866   C872    1.403   .     A
C866   H895    1.084   .     S
C866   C1153   1.382   .     S
C867   O901    1.299   .     A
C867   O900    1.295   .     A
C868   C869    1.396   .     A
C868   H886    1.083   .     S
C868   C1436   1.382   1_545 S
C869   C877    1.446   .     S
C869   C870    1.395   .     A
C870   H887    1.082   .     S
C870   C1441   1.388   1_545 S
C871   C872    1.422   .     A
C871   C910    1.512   .     S
C871   C1155   1.388   .     S
C873   N897    1.367   .     A
C873   H888    1.082   .     S
C873   C969    1.415   .     S
C874   H889    1.078   .     S
C874   N896    1.364   .     A
C874   C1063   1.415   1_455 S
C875   N896    1.376   .     A
C875   O914    1.383   .     S
C875   C1066   1.421   1_455 S
C876   H890    1.080   .     S
C876   N897    1.362   .     A
C876   C970    1.421   .     S
C877   O903    1.289   .     A
C877   O902    1.290   .     A
C878   O904    1.299   .     A
C878   O905    1.294   .     A
C878   C880    1.477   .     S
C881   C882    1.393   .     A
C881   O929    1.384   .     S
C882   C28     1.388   1_556 S
C882   H39     1.083   1_556 S
C883   H893    1.076   .     S
Cu884  O904    1.916   .     S
Cu884  O902    1.964   .     S
Cu884  O898    1.967   .     S
Cu884  O900    1.935   .     S
Cu884  Cu885   2.677   .     S
Cu884  N896    2.011   .     S
Cu885  O903    1.967   .     S
Cu885  O905    1.935   .     S
Cu885  O899    1.964   .     S
Cu885  O901    1.916   .     S
Cu885  N897    2.011   .     S
H891   C24     1.081   1_556 S
C906   H907    1.110   .     S
C906   H909    1.108   .     S
C906   H908    1.110   .     S
C910   H911    1.109   .     S
C910   H912    1.110   .     S
C910   H913    1.111   .     S
O914   C915    1.417   .     S
C915   C918    1.529   .     S
C915   H917    1.117   .     S
C915   H916    1.106   .     S
C918   H920    1.111   .     S
C918   C921    1.530   .     S
C918   H919    1.111   .     S
C921   H923    1.110   .     S
C921   H924    1.111   .     S
C921   H922    1.109   .     S
C925   H926    1.109   .     S
C925   H928    1.110   .     S
C925   H927    1.111   .     S
O929   C930    1.417   .     S
C930   H931    1.112   .     S
C930   H932    1.117   .     S
C930   C933    1.530   .     S
C933   C936    1.527   .     S
C933   H1124   1.110   1_455 S
C933   H1125   1.112   1_455 S
H934   C1028   1.110   .     S
H935   C1028   1.112   .     S
C936   H937    1.111   .     S
C936   H939    1.111   .     S
C936   H1128   1.111   1_455 S
H938   C1031   1.111   .     S
O940   C941    1.418   .     S
C941   C944    1.532   .     S
C941   H942    1.109   .     S
C941   H943    1.117   .     S
C944   H946    1.111   .     S
C944   H945    1.111   .     S
C944   C1517   1.525   1_545 S
C947   H950    1.111   .     S
C947   H949    1.110   .     S
C947   H948    1.111   .     S
C947   C1229   1.525   .     S
C951   O993    1.287   .     A
C951   O994    1.297   .     A
C951   C967    1.457   .     S
C952   C953    1.414   .     A
C952   C99     1.422   1_556 S
C952   C123    1.416   1_556 S
C953   C957    1.418   .     A
C953   C960    1.423   .     A
C954   C958    1.405   .     A
C955   C956    1.414   .     A
C955   C99     1.422   1_556 S
C955   C119    1.410   1_556 S
C956   C1020   1.516   .     S
C956   C957    1.404   .     A
C957   O1035   1.387   .     S
C958   C975    1.395   .     A
C958   H987    1.076   .     S
C959   C1001   1.507   .     S
C959   C975    1.413   .     A
C959   C974    1.400   .     A
C960   C976    1.413   .     A
C960   C962    1.480   .     S
C961   C967    1.403   .     A
C961   H990    1.084   .     S
C961   C1248   1.382   .     S
C962   O996    1.299   .     A
C962   O995    1.295   .     A
C963   C964    1.396   .     A
C963   H981    1.083   .     S
C963   C1531   1.382   1_545 S
C964   C972    1.446   .     S
C964   C965    1.395   .     A
C965   H982    1.082   .     S
C965   C1536   1.388   1_545 S
C966   C967    1.422   .     A
C966   C1005   1.512   .     S
C966   C1250   1.388   .     S
C968   N992    1.367   .     A
C968   H983    1.082   .     S
C968   C1064   1.415   .     S
C969   H984    1.078   .     S
C969   N991    1.364   .     A
C970   N991    1.376   .     A
C970   O1009   1.383   .     S
C971   H985    1.080   .     S
C971   N992    1.362   .     A
C971   C1065   1.421   .     S
C972   O998    1.289   .     A
C972   O997    1.290   .     A
C973   O999    1.299   .     A
C973   O1000   1.294   .     A
C973   C975    1.477   .     S
C976   C977    1.393   .     A
C976   O1024   1.384   .     S
C977   C123    1.388   1_556 S
C977   H134    1.083   1_556 S
C978   H988    1.076   .     S
Cu979  O999    1.916   .     S
Cu979  O997    1.964   .     S
Cu979  O993    1.967   .     S
Cu979  O995    1.935   .     S
Cu979  Cu980   2.677   .     S
Cu979  N991    2.011   .     S
Cu980  O998    1.967   .     S
Cu980  O1000   1.935   .     S
Cu980  O994    1.964   .     S
Cu980  O996    1.916   .     S
Cu980  N992    2.011   .     S
H986   C119    1.081   1_556 S
C1001  H1002   1.110   .     S
C1001  H1004   1.108   .     S
C1001  H1003   1.110   .     S
C1005  H1006   1.109   .     S
C1005  H1007   1.110   .     S
C1005  H1008   1.111   .     S
O1009  C1010   1.417   .     S
C1010  C1013   1.529   .     S
C1010  H1012   1.117   .     S
C1010  H1011   1.106   .     S
C1013  H1015   1.111   .     S
C1013  C1016   1.530   .     S
C1013  H1014   1.111   .     S
C1016  H1018   1.110   .     S
C1016  H1019   1.111   .     S
C1016  H1017   1.109   .     S
C1020  H1021   1.109   .     S
C1020  H1023   1.110   .     S
C1020  H1022   1.111   .     S
O1024  C1025   1.417   .     S
C1025  H1026   1.112   .     S
C1025  H1027   1.117   .     S
C1025  C1028   1.530   .     S
C1028  C1031   1.527   .     S
H1029  C1123   1.110   .     S
H1030  C1123   1.112   .     S
C1031  H1032   1.111   .     S
C1031  H1034   1.111   .     S
H1033  C1126   1.111   .     S
O1035  C1036   1.418   .     S
C1036  C1039   1.532   .     S
C1036  H1037   1.109   .     S
C1036  H1038   1.117   .     S
C1039  H1041   1.111   .     S
C1039  H1040   1.111   .     S
C1039  C1612   1.525   1_545 S
C1042  H1045   1.111   .     S
C1042  H1044   1.110   .     S
C1042  H1043   1.111   .     S
C1042  C1324   1.525   .     S
C1046  O1088   1.287   .     A
C1046  O1089   1.297   .     A
C1046  C1062   1.457   .     S
C1047  C1048   1.414   .     A
C1047  C194    1.422   1_556 S
C1047  C218    1.416   1_556 S
C1048  C1052   1.418   .     A
C1048  C1055   1.423   .     A
C1049  C1053   1.405   .     A
C1050  C1051   1.414   .     A
C1050  C194    1.422   1_556 S
C1050  C214    1.410   1_556 S
C1051  C1115   1.516   .     S
C1051  C1052   1.404   .     A
C1052  O1130   1.387   .     S
C1053  C1070   1.395   .     A
C1053  H1082   1.076   .     S
C1054  C1096   1.507   .     S
C1054  C1070   1.413   .     A
C1054  C1069   1.400   .     A
C1055  C1071   1.413   .     A
C1055  C1057   1.480   .     S
C1056  C1062   1.403   .     A
C1056  H1085   1.084   .     S
C1056  C1343   1.382   .     S
C1057  O1091   1.299   .     A
C1057  O1090   1.295   .     A
C1058  C1059   1.396   .     A
C1058  H1076   1.083   .     S
C1058  C1626   1.382   1_545 S
C1059  C1067   1.446   .     S
C1059  C1060   1.395   .     A
C1060  H1077   1.082   .     S
C1060  C1631   1.388   1_545 S
C1061  C1062   1.422   .     A
C1061  C1100   1.512   .     S
C1061  C1345   1.388   .     S
C1063  N1087   1.367   .     A
C1063  H1078   1.082   .     S
C1063  C874    1.415   1_655 S
C1064  H1079   1.078   .     S
C1064  N1086   1.364   .     A
C1065  N1086   1.376   .     A
C1065  O1104   1.383   .     S
C1066  H1080   1.080   .     S
C1066  N1087   1.362   .     A
C1066  C875    1.421   1_655 S
C1067  O1093   1.289   .     A
C1067  O1092   1.290   .     A
C1068  O1094   1.299   .     A
C1068  O1095   1.294   .     A
C1068  C1070   1.477   .     S
C1071  C1072   1.393   .     A
C1071  O1119   1.384   .     S
C1072  C218    1.388   1_556 S
C1072  H229    1.083   1_556 S
C1073  H1083   1.076   .     S
Cu1074 O1094   1.916   .     S
Cu1074 O1092   1.964   .     S
Cu1074 O1088   1.967   .     S
Cu1074 O1090   1.935   .     S
Cu1074 Cu1075  2.677   .     S
Cu1074 N1086   2.011   .     S
Cu1075 O1093   1.967   .     S
Cu1075 O1095   1.935   .     S
Cu1075 O1089   1.964   .     S
Cu1075 O1091   1.916   .     S
Cu1075 N1087   2.011   .     S
H1081  C214    1.081   1_556 S
C1096  H1097   1.110   .     S
C1096  H1099   1.108   .     S
C1096  H1098   1.110   .     S
C1100  H1101   1.109   .     S
C1100  H1102   1.110   .     S
C1100  H1103   1.111   .     S
O1104  C1105   1.417   .     S
C1105  C1108   1.529   .     S
C1105  H1107   1.117   .     S
C1105  H1106   1.106   .     S
C1108  H1110   1.111   .     S
C1108  C1111   1.530   .     S
C1108  H1109   1.111   .     S
C1111  H1113   1.110   .     S
C1111  H1114   1.111   .     S
C1111  H1112   1.109   .     S
C1115  H1116   1.109   .     S
C1115  H1118   1.110   .     S
C1115  H1117   1.111   .     S
O1119  C1120   1.417   .     S
C1120  H1121   1.112   .     S
C1120  H1122   1.117   .     S
C1120  C1123   1.530   .     S
C1123  C1126   1.527   .     S
H1124  C933    1.110   1_655 S
H1125  C933    1.112   1_655 S
C1126  H1127   1.111   .     S
C1126  H1129   1.111   .     S
H1128  C936    1.111   1_655 S
O1130  C1131   1.418   .     S
C1131  C1134   1.532   .     S
C1131  H1132   1.109   .     S
C1131  H1133   1.117   .     S
C1134  H1136   1.111   .     S
C1134  H1135   1.111   .     S
C1134  C1707   1.525   1_545 S
C1137  H1140   1.111   .     S
C1137  H1139   1.110   .     S
C1137  H1138   1.111   .     S
C1137  C1419   1.525   .     S
C1141  O1183   1.287   .     A
C1141  O1184   1.297   .     A
C1141  C1157   1.457   .     S
C1142  C1143   1.414   .     A
C1142  C289    1.422   1_556 S
C1142  C313    1.416   1_556 S
C1143  C1147   1.418   .     A
C1143  C1150   1.423   .     A
C1144  C1148   1.405   .     A
C1145  C1146   1.414   .     A
C1145  C289    1.422   1_556 S
C1145  C309    1.410   1_556 S
C1146  C1210   1.516   .     S
C1146  C1147   1.404   .     A
C1147  O1225   1.387   .     S
C1148  C1165   1.395   .     A
C1148  H1177   1.076   .     S
C1149  C1191   1.507   .     S
C1149  C1165   1.413   .     A
C1149  C1164   1.400   .     A
C1150  C1166   1.413   .     A
C1150  C1152   1.480   .     S
C1151  C1157   1.403   .     A
C1151  H1180   1.084   .     S
C1151  C1438   1.382   .     S
C1152  O1186   1.299   .     A
C1152  O1185   1.295   .     A
C1153  C1154   1.396   .     A
C1153  H1171   1.083   .     S
C1154  C1162   1.446   .     S
C1154  C1155   1.395   .     A
C1155  H1172   1.082   .     S
C1156  C1157   1.422   .     A
C1156  C1195   1.512   .     S
C1156  C1440   1.388   .     S
C1158  N1182   1.367   .     A
C1158  H1173   1.082   .     S
C1158  C1254   1.415   .     S
C1159  H1174   1.078   .     S
C1159  N1181   1.364   .     A
C1159  C1348   1.415   1_455 S
C1160  N1181   1.376   .     A
C1160  O1199   1.383   .     S
C1160  C1351   1.421   1_455 S
C1161  H1175   1.080   .     S
C1161  N1182   1.362   .     A
C1161  C1255   1.421   .     S
C1162  O1188   1.289   .     A
C1162  O1187   1.290   .     A
C1163  O1189   1.299   .     A
C1163  O1190   1.294   .     A
C1163  C1165   1.477   .     S
C1166  C1167   1.393   .     A
C1166  O1214   1.384   .     S
C1167  C313    1.388   1_556 S
C1167  H324    1.083   1_556 S
C1168  H1178   1.076   .     S
Cu1169 O1189   1.916   .     S
Cu1169 O1187   1.964   .     S
Cu1169 O1183   1.967   .     S
Cu1169 O1185   1.935   .     S
Cu1169 Cu1170  2.677   .     S
Cu1169 N1181   2.011   .     S
Cu1170 O1188   1.967   .     S
Cu1170 O1190   1.935   .     S
Cu1170 O1184   1.964   .     S
Cu1170 O1186   1.916   .     S
Cu1170 N1182   2.011   .     S
H1176  C309    1.081   1_556 S
C1191  H1192   1.110   .     S
C1191  H1194   1.108   .     S
C1191  H1193   1.110   .     S
C1195  H1196   1.109   .     S
C1195  H1197   1.110   .     S
C1195  H1198   1.111   .     S
O1199  C1200   1.417   .     S
C1200  C1203   1.529   .     S
C1200  H1202   1.117   .     S
C1200  H1201   1.106   .     S
C1203  H1205   1.111   .     S
C1203  C1206   1.530   .     S
C1203  H1204   1.111   .     S
C1206  H1208   1.110   .     S
C1206  H1209   1.111   .     S
C1206  H1207   1.109   .     S
C1210  H1211   1.109   .     S
C1210  H1213   1.110   .     S
C1210  H1212   1.111   .     S
O1214  C1215   1.417   .     S
C1215  H1216   1.112   .     S
C1215  H1217   1.117   .     S
C1215  C1218   1.530   .     S
C1218  C1221   1.527   .     S
C1218  H1409   1.110   1_455 S
C1218  H1410   1.112   1_455 S
H1219  C1313   1.110   .     S
H1220  C1313   1.112   .     S
C1221  H1222   1.111   .     S
C1221  H1224   1.111   .     S
C1221  H1413   1.111   1_455 S
H1223  C1316   1.111   .     S
O1225  C1226   1.418   .     S
C1226  C1229   1.532   .     S
C1226  H1227   1.109   .     S
C1226  H1228   1.117   .     S
C1229  H1231   1.111   .     S
C1229  H1230   1.111   .     S
C1232  H1235   1.111   .     S
C1232  H1234   1.110   .     S
C1232  H1233   1.111   .     S
C1232  C1514   1.525   .     S
C1236  O1278   1.287   .     A
C1236  O1279   1.297   .     A
C1236  C1252   1.457   .     S
C1237  C1238   1.414   .     A
C1237  C384    1.422   1_556 S
C1237  C408    1.416   1_556 S
C1238  C1242   1.418   .     A
C1238  C1245   1.423   .     A
C1239  C1243   1.405   .     A
C1240  C1241   1.414   .     A
C1240  C384    1.422   1_556 S
C1240  C404    1.410   1_556 S
C1241  C1305   1.516   .     S
C1241  C1242   1.404   .     A
C1242  O1320   1.387   .     S
C1243  C1260   1.395   .     A
C1243  H1272   1.076   .     S
C1244  C1286   1.507   .     S
C1244  C1260   1.413   .     A
C1244  C1259   1.400   .     A
C1245  C1261   1.413   .     A
C1245  C1247   1.480   .     S
C1246  C1252   1.403   .     A
C1246  H1275   1.084   .     S
C1246  C1533   1.382   .     S
C1247  O1281   1.299   .     A
C1247  O1280   1.295   .     A
C1248  C1249   1.396   .     A
C1248  H1266   1.083   .     S
C1249  C1257   1.446   .     S
C1249  C1250   1.395   .     A
C1250  H1267   1.082   .     S
C1251  C1252   1.422   .     A
C1251  C1290   1.512   .     S
C1251  C1535   1.388   .     S
C1253  N1277   1.367   .     A
C1253  H1268   1.082   .     S
C1253  C1349   1.415   .     S
C1254  H1269   1.078   .     S
C1254  N1276   1.364   .     A
C1255  N1276   1.376   .     A
C1255  O1294   1.383   .     S
C1256  H1270   1.080   .     S
C1256  N1277   1.362   .     A
C1256  C1350   1.421   .     S
C1257  O1283   1.289   .     A
C1257  O1282   1.290   .     A
C1258  O1284   1.299   .     A
C1258  O1285   1.294   .     A
C1258  C1260   1.477   .     S
C1261  C1262   1.393   .     A
C1261  O1309   1.384   .     S
C1262  C408    1.388   1_556 S
C1262  H419    1.083   1_556 S
C1263  H1273   1.076   .     S
Cu1264 O1284   1.916   .     S
Cu1264 O1282   1.964   .     S
Cu1264 O1278   1.967   .     S
Cu1264 O1280   1.935   .     S
Cu1264 Cu1265  2.677   .     S
Cu1264 N1276   2.011   .     S
Cu1265 O1283   1.967   .     S
Cu1265 O1285   1.935   .     S
Cu1265 O1279   1.964   .     S
Cu1265 O1281   1.916   .     S
Cu1265 N1277   2.011   .     S
H1271  C404    1.081   1_556 S
C1286  H1287   1.110   .     S
C1286  H1289   1.108   .     S
C1286  H1288   1.110   .     S
C1290  H1291   1.109   .     S
C1290  H1292   1.110   .     S
C1290  H1293   1.111   .     S
O1294  C1295   1.417   .     S
C1295  C1298   1.529   .     S
C1295  H1297   1.117   .     S
C1295  H1296   1.106   .     S
C1298  H1300   1.111   .     S
C1298  C1301   1.530   .     S
C1298  H1299   1.111   .     S
C1301  H1303   1.110   .     S
C1301  H1304   1.111   .     S
C1301  H1302   1.109   .     S
C1305  H1306   1.109   .     S
C1305  H1308   1.110   .     S
C1305  H1307   1.111   .     S
O1309  C1310   1.417   .     S
C1310  H1311   1.112   .     S
C1310  H1312   1.117   .     S
C1310  C1313   1.530   .     S
C1313  C1316   1.527   .     S
H1314  C1408   1.110   .     S
H1315  C1408   1.112   .     S
C1316  H1317   1.111   .     S
C1316  H1319   1.111   .     S
H1318  C1411   1.111   .     S
O1320  C1321   1.418   .     S
C1321  C1324   1.532   .     S
C1321  H1322   1.109   .     S
C1321  H1323   1.117   .     S
C1324  H1326   1.111   .     S
C1324  H1325   1.111   .     S
C1327  H1330   1.111   .     S
C1327  H1329   1.110   .     S
C1327  H1328   1.111   .     S
C1327  C1609   1.525   .     S
C1331  O1373   1.287   .     A
C1331  O1374   1.297   .     A
C1331  C1347   1.457   .     S
C1332  C1333   1.414   .     A
C1332  C479    1.422   1_556 S
C1332  C503    1.416   1_556 S
C1333  C1337   1.418   .     A
C1333  C1340   1.423   .     A
C1334  C1338   1.405   .     A
C1335  C1336   1.414   .     A
C1335  C479    1.422   1_556 S
C1335  C499    1.410   1_556 S
C1336  C1400   1.516   .     S
C1336  C1337   1.404   .     A
C1337  O1415   1.387   .     S
C1338  C1355   1.395   .     A
C1338  H1367   1.076   .     S
C1339  C1381   1.507   .     S
C1339  C1355   1.413   .     A
C1339  C1354   1.400   .     A
C1340  C1356   1.413   .     A
C1340  C1342   1.480   .     S
C1341  C1347   1.403   .     A
C1341  H1370   1.084   .     S
C1341  C1628   1.382   .     S
C1342  O1376   1.299   .     A
C1342  O1375   1.295   .     A
C1343  C1344   1.396   .     A
C1343  H1361   1.083   .     S
C1344  C1352   1.446   .     S
C1344  C1345   1.395   .     A
C1345  H1362   1.082   .     S
C1346  C1347   1.422   .     A
C1346  C1385   1.512   .     S
C1346  C1630   1.388   .     S
C1348  N1372   1.367   .     A
C1348  H1363   1.082   .     S
C1348  C1159   1.415   1_655 S
C1349  H1364   1.078   .     S
C1349  N1371   1.364   .     A
C1350  N1371   1.376   .     A
C1350  O1389   1.383   .     S
C1351  H1365   1.080   .     S
C1351  N1372   1.362   .     A
C1351  C1160   1.421   1_655 S
C1352  O1378   1.289   .     A
C1352  O1377   1.290   .     A
C1353  O1379   1.299   .     A
C1353  O1380   1.294   .     A
C1353  C1355   1.477   .     S
C1356  C1357   1.393   .     A
C1356  O1404   1.384   .     S
C1357  C503    1.388   1_556 S
C1357  H514    1.083   1_556 S
C1358  H1368   1.076   .     S
Cu1359 O1379   1.916   .     S
Cu1359 O1377   1.964   .     S
Cu1359 O1373   1.967   .     S
Cu1359 O1375   1.935   .     S
Cu1359 Cu1360  2.677   .     S
Cu1359 N1371   2.011   .     S
Cu1360 O1378   1.967   .     S
Cu1360 O1380   1.935   .     S
Cu1360 O1374   1.964   .     S
Cu1360 O1376   1.916   .     S
Cu1360 N1372   2.011   .     S
H1366  C499    1.081   1_556 S
C1381  H1382   1.110   .     S
C1381  H1384   1.108   .     S
C1381  H1383   1.110   .     S
C1385  H1386   1.109   .     S
C1385  H1387   1.110   .     S
C1385  H1388   1.111   .     S
O1389  C1390   1.417   .     S
C1390  C1393   1.529   .     S
C1390  H1392   1.117   .     S
C1390  H1391   1.106   .     S
C1393  H1395   1.111   .     S
C1393  C1396   1.530   .     S
C1393  H1394   1.111   .     S
C1396  H1398   1.110   .     S
C1396  H1399   1.111   .     S
C1396  H1397   1.109   .     S
C1400  H1401   1.109   .     S
C1400  H1403   1.110   .     S
C1400  H1402   1.111   .     S
O1404  C1405   1.417   .     S
C1405  H1406   1.112   .     S
C1405  H1407   1.117   .     S
C1405  C1408   1.530   .     S
C1408  C1411   1.527   .     S
H1409  C1218   1.110   1_655 S
H1410  C1218   1.112   1_655 S
C1411  H1412   1.111   .     S
C1411  H1414   1.111   .     S
H1413  C1221   1.111   1_655 S
O1415  C1416   1.418   .     S
C1416  C1419   1.532   .     S
C1416  H1417   1.109   .     S
C1416  H1418   1.117   .     S
C1419  H1421   1.111   .     S
C1419  H1420   1.111   .     S
C1422  H1425   1.111   .     S
C1422  H1424   1.110   .     S
C1422  H1423   1.111   .     S
C1422  C1704   1.525   .     S
C1426  O1468   1.287   .     A
C1426  O1469   1.297   .     A
C1426  C1442   1.457   .     S
C1427  C1428   1.414   .     A
C1427  C574    1.422   1_556 S
C1427  C598    1.416   1_556 S
C1428  C1432   1.418   .     A
C1428  C1435   1.423   .     A
C1429  C1433   1.405   .     A
C1430  C1431   1.414   .     A
C1430  C574    1.422   1_556 S
C1430  C594    1.410   1_556 S
C1431  C1495   1.516   .     S
C1431  C1432   1.404   .     A
C1432  O1510   1.387   .     S
C1433  C1450   1.395   .     A
C1433  H1462   1.076   .     S
C1434  C1476   1.507   .     S
C1434  C1450   1.413   .     A
C1434  C1449   1.400   .     A
C1435  C1451   1.413   .     A
C1435  C1437   1.480   .     S
C1436  C1442   1.403   .     A
C1436  H1465   1.084   .     S
C1436  C868    1.382   1_565 S
C1437  O1471   1.299   .     A
C1437  O1470   1.295   .     A
C1438  C1439   1.396   .     A
C1438  H1456   1.083   .     S
C1439  C1447   1.446   .     S
C1439  C1440   1.395   .     A
C1440  H1457   1.082   .     S
C1441  C1442   1.422   .     A
C1441  C1480   1.512   .     S
C1441  C870    1.388   1_565 S
C1443  N1467   1.367   .     A
C1443  H1458   1.082   .     S
C1443  C1539   1.415   .     S
C1444  H1459   1.078   .     S
C1444  N1466   1.364   .     A
C1444  C1633   1.415   1_455 S
C1445  N1466   1.376   .     A
C1445  O1484   1.383   .     S
C1445  C1636   1.421   1_455 S
C1446  H1460   1.080   .     S
C1446  N1467   1.362   .     A
C1446  C1540   1.421   .     S
C1447  O1473   1.289   .     A
C1447  O1472   1.290   .     A
C1448  O1474   1.299   .     A
C1448  O1475   1.294   .     A
C1448  C1450   1.477   .     S
C1451  C1452   1.393   .     A
C1451  O1499   1.384   .     S
C1452  C598    1.388   1_556 S
C1452  H609    1.083   1_556 S
C1453  H1463   1.076   .     S
Cu1454 O1474   1.916   .     S
Cu1454 O1472   1.964   .     S
Cu1454 O1468   1.967   .     S
Cu1454 O1470   1.935   .     S
Cu1454 Cu1455  2.677   .     S
Cu1454 N1466   2.011   .     S
Cu1455 O1473   1.967   .     S
Cu1455 O1475   1.935   .     S
Cu1455 O1469   1.964   .     S
Cu1455 O1471   1.916   .     S
Cu1455 N1467   2.011   .     S
H1461  C594    1.081   1_556 S
C1476  H1477   1.110   .     S
C1476  H1479   1.108   .     S
C1476  H1478   1.110   .     S
C1480  H1481   1.109   .     S
C1480  H1482   1.110   .     S
C1480  H1483   1.111   .     S
O1484  C1485   1.417   .     S
C1485  C1488   1.529   .     S
C1485  H1487   1.117   .     S
C1485  H1486   1.106   .     S
C1488  H1490   1.111   .     S
C1488  C1491   1.530   .     S
C1488  H1489   1.111   .     S
C1491  H1493   1.110   .     S
C1491  H1494   1.111   .     S
C1491  H1492   1.109   .     S
C1495  H1496   1.109   .     S
C1495  H1498   1.110   .     S
C1495  H1497   1.111   .     S
O1499  C1500   1.417   .     S
C1500  H1501   1.112   .     S
C1500  H1502   1.117   .     S
C1500  C1503   1.530   .     S
C1503  C1506   1.527   .     S
C1503  H1694   1.110   1_455 S
C1503  H1695   1.112   1_455 S
H1504  C1598   1.110   .     S
H1505  C1598   1.112   .     S
C1506  H1507   1.111   .     S
C1506  H1509   1.111   .     S
C1506  H1698   1.111   1_455 S
H1508  C1601   1.111   .     S
O1510  C1511   1.418   .     S
C1511  C1514   1.532   .     S
C1511  H1512   1.109   .     S
C1511  H1513   1.117   .     S
C1514  H1516   1.111   .     S
C1514  H1515   1.111   .     S
C1517  H1520   1.111   .     S
C1517  H1519   1.110   .     S
C1517  H1518   1.111   .     S
C1517  C944    1.525   1_565 S
C1521  O1563   1.287   .     A
C1521  O1564   1.297   .     A
C1521  C1537   1.457   .     S
C1522  C1523   1.414   .     A
C1522  C669    1.422   1_556 S
C1522  C693    1.416   1_556 S
C1523  C1527   1.418   .     A
C1523  C1530   1.423   .     A
C1524  C1528   1.405   .     A
C1525  C1526   1.414   .     A
C1525  C669    1.422   1_556 S
C1525  C689    1.410   1_556 S
C1526  C1590   1.516   .     S
C1526  C1527   1.404   .     A
C1527  O1605   1.387   .     S
C1528  C1545   1.395   .     A
C1528  H1557   1.076   .     S
C1529  C1571   1.507   .     S
C1529  C1545   1.413   .     A
C1529  C1544   1.400   .     A
C1530  C1546   1.413   .     A
C1530  C1532   1.480   .     S
C1531  C1537   1.403   .     A
C1531  H1560   1.084   .     S
C1531  C963    1.382   1_565 S
C1532  O1566   1.299   .     A
C1532  O1565   1.295   .     A
C1533  C1534   1.396   .     A
C1533  H1551   1.083   .     S
C1534  C1542   1.446   .     S
C1534  C1535   1.395   .     A
C1535  H1552   1.082   .     S
C1536  C1537   1.422   .     A
C1536  C1575   1.512   .     S
C1536  C965    1.388   1_565 S
C1538  N1562   1.367   .     A
C1538  H1553   1.082   .     S
C1538  C1634   1.415   .     S
C1539  H1554   1.078   .     S
C1539  N1561   1.364   .     A
C1540  N1561   1.376   .     A
C1540  O1579   1.383   .     S
C1541  H1555   1.080   .     S
C1541  N1562   1.362   .     A
C1541  C1635   1.421   .     S
C1542  O1568   1.289   .     A
C1542  O1567   1.290   .     A
C1543  O1569   1.299   .     A
C1543  O1570   1.294   .     A
C1543  C1545   1.477   .     S
C1546  C1547   1.393   .     A
C1546  O1594   1.384   .     S
C1547  C693    1.388   1_556 S
C1547  H704    1.083   1_556 S
C1548  H1558   1.076   .     S
Cu1549 O1569   1.916   .     S
Cu1549 O1567   1.964   .     S
Cu1549 O1563   1.967   .     S
Cu1549 O1565   1.935   .     S
Cu1549 Cu1550  2.677   .     S
Cu1549 N1561   2.011   .     S
Cu1550 O1568   1.967   .     S
Cu1550 O1570   1.935   .     S
Cu1550 O1564   1.964   .     S
Cu1550 O1566   1.916   .     S
Cu1550 N1562   2.011   .     S
H1556  C689    1.081   1_556 S
C1571  H1572   1.110   .     S
C1571  H1574   1.108   .     S
C1571  H1573   1.110   .     S
C1575  H1576   1.109   .     S
C1575  H1577   1.110   .     S
C1575  H1578   1.111   .     S
O1579  C1580   1.417   .     S
C1580  C1583   1.529   .     S
C1580  H1582   1.117   .     S
C1580  H1581   1.106   .     S
C1583  H1585   1.111   .     S
C1583  C1586   1.530   .     S
C1583  H1584   1.111   .     S
C1586  H1588   1.110   .     S
C1586  H1589   1.111   .     S
C1586  H1587   1.109   .     S
C1590  H1591   1.109   .     S
C1590  H1593   1.110   .     S
C1590  H1592   1.111   .     S
O1594  C1595   1.417   .     S
C1595  H1596   1.112   .     S
C1595  H1597   1.117   .     S
C1595  C1598   1.530   .     S
C1598  C1601   1.527   .     S
H1599  C1693   1.110   .     S
H1600  C1693   1.112   .     S
C1601  H1602   1.111   .     S
C1601  H1604   1.111   .     S
H1603  C1696   1.111   .     S
O1605  C1606   1.418   .     S
C1606  C1609   1.532   .     S
C1606  H1607   1.109   .     S
C1606  H1608   1.117   .     S
C1609  H1611   1.111   .     S
C1609  H1610   1.111   .     S
C1612  H1615   1.111   .     S
C1612  H1614   1.110   .     S
C1612  H1613   1.111   .     S
C1612  C1039   1.525   1_565 S
C1616  O1658   1.287   .     A
C1616  O1659   1.297   .     A
C1616  C1632   1.457   .     S
C1617  C1618   1.414   .     A
C1617  C764    1.422   1_556 S
C1617  C788    1.416   1_556 S
C1618  C1622   1.418   .     A
C1618  C1625   1.423   .     A
C1619  C1623   1.405   .     A
C1620  C1621   1.414   .     A
C1620  C764    1.422   1_556 S
C1620  C784    1.410   1_556 S
C1621  C1685   1.516   .     S
C1621  C1622   1.404   .     A
C1622  O1700   1.387   .     S
C1623  C1640   1.395   .     A
C1623  H1652   1.076   .     S
C1624  C1666   1.507   .     S
C1624  C1640   1.413   .     A
C1624  C1639   1.400   .     A
C1625  C1641   1.413   .     A
C1625  C1627   1.480   .     S
C1626  C1632   1.403   .     A
C1626  H1655   1.084   .     S
C1626  C1058   1.382   1_565 S
C1627  O1661   1.299   .     A
C1627  O1660   1.295   .     A
C1628  C1629   1.396   .     A
C1628  H1646   1.083   .     S
C1629  C1637   1.446   .     S
C1629  C1630   1.395   .     A
C1630  H1647   1.082   .     S
C1631  C1632   1.422   .     A
C1631  C1670   1.512   .     S
C1631  C1060   1.388   1_565 S
C1633  N1657   1.367   .     A
C1633  H1648   1.082   .     S
C1633  C1444   1.415   1_655 S
C1634  H1649   1.078   .     S
C1634  N1656   1.364   .     A
C1635  N1656   1.376   .     A
C1635  O1674   1.383   .     S
C1636  H1650   1.080   .     S
C1636  N1657   1.362   .     A
C1636  C1445   1.421   1_655 S
C1637  O1663   1.289   .     A
C1637  O1662   1.290   .     A
C1638  O1664   1.299   .     A
C1638  O1665   1.294   .     A
C1638  C1640   1.477   .     S
C1641  C1642   1.393   .     A
C1641  O1689   1.384   .     S
C1642  C788    1.388   1_556 S
C1642  H799    1.083   1_556 S
C1643  H1653   1.076   .     S
Cu1644 O1664   1.916   .     S
Cu1644 O1662   1.964   .     S
Cu1644 O1658   1.967   .     S
Cu1644 O1660   1.935   .     S
Cu1644 Cu1645  2.677   .     S
Cu1644 N1656   2.011   .     S
Cu1645 O1663   1.967   .     S
Cu1645 O1665   1.935   .     S
Cu1645 O1659   1.964   .     S
Cu1645 O1661   1.916   .     S
Cu1645 N1657   2.011   .     S
H1651  C784    1.081   1_556 S
C1666  H1667   1.110   .     S
C1666  H1669   1.108   .     S
C1666  H1668   1.110   .     S
C1670  H1671   1.109   .     S
C1670  H1672   1.110   .     S
C1670  H1673   1.111   .     S
O1674  C1675   1.417   .     S
C1675  C1678   1.529   .     S
C1675  H1677   1.117   .     S
C1675  H1676   1.106   .     S
C1678  H1680   1.111   .     S
C1678  C1681   1.530   .     S
C1678  H1679   1.111   .     S
C1681  H1683   1.110   .     S
C1681  H1684   1.111   .     S
C1681  H1682   1.109   .     S
C1685  H1686   1.109   .     S
C1685  H1688   1.110   .     S
C1685  H1687   1.111   .     S
O1689  C1690   1.417   .     S
C1690  H1691   1.112   .     S
C1690  H1692   1.117   .     S
C1690  C1693   1.530   .     S
C1693  C1696   1.527   .     S
H1694  C1503   1.110   1_655 S
H1695  C1503   1.112   1_655 S
C1696  H1697   1.111   .     S
C1696  H1699   1.111   .     S
H1698  C1506   1.111   1_655 S
O1700  C1701   1.418   .     S
C1701  C1704   1.532   .     S
C1701  H1702   1.109   .     S
C1701  H1703   1.117   .     S
C1704  H1706   1.111   .     S
C1704  H1705   1.111   .     S
C1707  H1710   1.111   .     S
C1707  H1709   1.110   .     S
C1707  H1708   1.111   .     S
C1707  C1134   1.525   1_565 S
