data_str_m2_o1_o17_pcu_sym.109
_audit_creation_date              2020-01-03
_audit_creation_method            'Materials Studio'
_symmetry_space_group_name_H-M    'P1'
_symmetry_Int_Tables_number       1
_symmetry_cell_setting            triclinic
loop_
_symmetry_equiv_pos_as_xyz
  x,y,z
_cell_length_a                    32.6734
_cell_length_b                    29.2992
_cell_length_c                    29.7997
_cell_angle_alpha                 88.2676
_cell_angle_beta                  90.4493
_cell_angle_gamma                 89.7190
loop_
_atom_site_label
_atom_site_type_symbol
_atom_site_fract_x
_atom_site_fract_y
_atom_site_fract_z
_atom_site_U_iso_or_equiv
_atom_site_adp_type
_atom_site_occupancy
C1     C     0.08759   0.16677   0.24993   0.00000  Uiso   1.00
C2     C     0.24577   0.16662   0.24963   0.00000  Uiso   1.00
C3     C     0.09286   0.16205   0.02309   0.00000  Uiso   1.00
C4     C     0.24090   0.18190   0.47733   0.00000  Uiso   1.00
C5     C     0.02160   0.12774   0.26392   0.00000  Uiso   1.00
C6     C     0.31182   0.20578   0.23457   0.00000  Uiso   1.00
C7     C     0.31244   0.12752   0.26327   0.00000  Uiso   1.00
C8     C     0.02107   0.20603   0.23513   0.00000  Uiso   1.00
C9     C     0.29056   0.16662   0.24906   0.00000  Uiso   1.00
C10    C     0.04287   0.16693   0.24975   0.00000  Uiso   1.00
C11    C     0.14870   0.02573   0.21584   0.00000  Uiso   1.00
C12    C     0.18429   0.30742   0.28436   0.00000  Uiso   1.00
C13    C     0.18263   0.02313   0.28525   0.00000  Uiso   1.00
C14    C     0.15168   0.31024   0.21419   0.00000  Uiso   1.00
C15    C     0.16605   0.16732   0.16488   0.00000  Uiso   1.00
C16    C     0.16791   0.16602   0.33526   0.00000  Uiso   1.00
C17    C     0.20469   0.17226   0.40690   0.00000  Uiso   1.00
C18    C     0.12938   0.16597   0.09341   0.00000  Uiso   1.00
C19    C     0.16843   0.16459   0.38364   0.00000  Uiso   1.00
C20    C     0.16611   0.16903   0.11682   0.00000  Uiso   1.00
C21    C     0.13195   0.15757   0.40623   0.00000  Uiso   1.00
C22    C     0.20304   0.17475   0.09467   0.00000  Uiso   1.00
C23    C     0.13016   0.16221   0.45286   0.00000  Uiso   1.00
C24    C     0.20419   0.17534   0.04770   0.00000  Uiso   1.00
C25    C     0.16725   0.16863   0.47675   0.00000  Uiso   1.00
C26    C     0.16705   0.16988   0.02369   0.00000  Uiso   1.00
C27    C     0.20458   0.17383   0.45362   0.00000  Uiso   1.00
C28    C     0.12959   0.16593   0.04676   0.00000  Uiso   1.00
C29    C     0.09259   0.16043   0.47628   0.00000  Uiso   1.00
C30    C     0.24118   0.18207   0.02420   0.00000  Uiso   1.00
Cu31   Cu    0.16667   0.21355   0.25000   0.00000  Uiso   1.00
Cu32   Cu    0.16667   0.11978   0.25000   0.00000  Uiso   1.00
H33    H     0.23262   0.17770   0.38836   0.00000  Uiso   1.00
H34    H     0.10083   0.16312   0.11164   0.00000  Uiso   1.00
N35    N     0.16667   0.28402   0.25000   0.00000  Uiso   1.00
N36    N     0.16667   0.04931   0.25000   0.00000  Uiso   1.00
O37    O     0.10655   0.20625   0.24999   0.00000  Uiso   1.00
O38    O     0.22679   0.12709   0.25000   0.00000  Uiso   1.00
O39    O     0.22679   0.20625   0.25000   0.00000  Uiso   1.00
O40    O     0.10655   0.12709   0.24999   0.00000  Uiso   1.00
O41    O     0.16666   0.20627   0.18513   0.00000  Uiso   1.00
O42    O     0.16668   0.12707   0.31487   0.00000  Uiso   1.00
O43    O     0.16668   0.20627   0.31487   0.00000  Uiso   1.00
O44    O     0.16666   0.12707   0.18513   0.00000  Uiso   1.00
H45    H     0.10529   0.14901   0.38660   0.00000  Uiso   1.00
H46    H     0.23044   0.17896   0.11470   0.00000  Uiso   1.00
C47    C     0.05270   0.15634   0.45297   0.00000  Uiso   1.00
C48    C     0.04214   0.18590   0.41659   0.00000  Uiso   1.00
C49    C     0.00784   0.17690   0.39029   0.00000  Uiso   1.00
C50    C     0.31543   0.14090   0.40225   0.00000  Uiso   1.00
C51    C     0.32358   0.11419   0.44104   0.00000  Uiso   1.00
C52    C     0.02575   0.12134   0.46592   0.00000  Uiso   1.00
H53    H     0.06181   0.21414   0.40698   0.00000  Uiso   1.00
H54    H     0.00157   0.19733   0.36025   0.00000  Uiso   1.00
H55    H     0.28911   0.13423   0.38151   0.00000  Uiso   1.00
H56    H     0.30303   0.08732   0.45166   0.00000  Uiso   1.00
H57    H     0.03273   0.09882   0.49449   0.00000  Uiso   1.00
C58    C     0.27973   0.19190   0.04819   0.00000  Uiso   1.00
C59    C     0.29359   0.23707   0.04994   0.00000  Uiso   1.00
C60    C     0.32545   0.24807   0.07922   0.00000  Uiso   1.00
C61    C     0.01018   0.21407   0.10684   0.00000  Uiso   1.00
C62    C     0.33061   0.16891   0.10427   0.00000  Uiso   1.00
C63    C     0.29919   0.15758   0.07461   0.00000  Uiso   1.00
H64    H     0.27856   0.26396   0.03015   0.00000  Uiso   1.00
H65    H     0.00200   0.28314   0.08139   0.00000  Uiso   1.00
H66    H     0.03386   0.22262   0.13066   0.00000  Uiso   1.00
H67    H     0.01090   0.14301   0.12622   0.00000  Uiso   1.00
H68    H     0.28847   0.12268   0.07404   0.00000  Uiso   1.00
H69    H     0.06423   0.16021   0.04117   0.00000  Uiso   1.00
H70    H     0.26904   0.18843   0.45945   0.00000  Uiso   1.00
H71    H     0.03775   0.09742   0.27607   0.00000  Uiso   1.00
H72    H     0.29562   0.23597   0.22223   0.00000  Uiso   1.00
H73    H     0.29682   0.09694   0.27434   0.00000  Uiso   1.00
H74    H     0.03687   0.23654   0.22360   0.00000  Uiso   1.00
C75    C     0.12105   0.04876   0.18245   0.00000  Uiso   1.00
C76    C     0.13348   0.05546   0.13758   0.00000  Uiso   1.00
C77    C     0.10451   0.06416   0.10361   0.00000  Uiso   1.00
C78    C     0.06311   0.06782   0.11416   0.00000  Uiso   1.00
C79    C     0.05053   0.06227   0.15869   0.00000  Uiso   1.00
C80    C     0.07926   0.05208   0.19256   0.00000  Uiso   1.00
H81    H     0.16536   0.05168   0.12871   0.00000  Uiso   1.00
H82    H     0.11418   0.06775   0.06904   0.00000  Uiso   1.00
H83    H     0.04076   0.07455   0.08775   0.00000  Uiso   1.00
H84    H     0.01835   0.06436   0.16679   0.00000  Uiso   1.00
H85    H     0.06878   0.04440   0.22630   0.00000  Uiso   1.00
C86    C     0.21227   0.28395   0.31710   0.00000  Uiso   1.00
C87    C     0.20109   0.27901   0.36249   0.00000  Uiso   1.00
C88    C     0.23107   0.27211   0.39575   0.00000  Uiso   1.00
C89    C     0.27215   0.26787   0.38395   0.00000  Uiso   1.00
C90    C     0.28340   0.27140   0.33886   0.00000  Uiso   1.00
C91    C     0.25370   0.27987   0.30568   0.00000  Uiso   1.00
H92    H     0.16951   0.28352   0.37228   0.00000  Uiso   1.00
H93    H     0.22244   0.27049   0.43074   0.00000  Uiso   1.00
H94    H     0.29529   0.26265   0.40980   0.00000  Uiso   1.00
H95    H     0.31534   0.26973   0.32970   0.00000  Uiso   1.00
H96    H     0.26326   0.28669   0.27146   0.00000  Uiso   1.00
C97    C     0.19555   0.04385   0.32743   0.00000  Uiso   1.00
C98    C     0.23731   0.04881   0.33662   0.00000  Uiso   1.00
C99    C     0.25081   0.05375   0.38064   0.00000  Uiso   1.00
C100   C     0.22269   0.05706   0.41554   0.00000  Uiso   1.00
C101   C     0.18085   0.05364   0.40652   0.00000  Uiso   1.00
C102   C     0.16728   0.04607   0.36279   0.00000  Uiso   1.00
H103   H     0.25950   0.04361   0.31057   0.00000  Uiso   1.00
H104   H     0.28326   0.05286   0.38754   0.00000  Uiso   1.00
H105   H     0.23323   0.06108   0.44968   0.00000  Uiso   1.00
H106   H     0.15906   0.05534   0.43360   0.00000  Uiso   1.00
H107   H     0.13502   0.04043   0.35660   0.00000  Uiso   1.00
C108   C     0.14834   0.29137   0.16897   0.00000  Uiso   1.00
C109   C     0.18354   0.29182   0.14198   0.00000  Uiso   1.00
C110   C     0.18039   0.28449   0.09599   0.00000  Uiso   1.00
C111   C     0.14214   0.27700   0.07649   0.00000  Uiso   1.00
C112   C     0.10714   0.27574   0.10312   0.00000  Uiso   1.00
C113   C     0.11007   0.28246   0.14937   0.00000  Uiso   1.00
H114   H     0.21315   0.29968   0.15633   0.00000  Uiso   1.00
H115   H     0.20749   0.28539   0.07535   0.00000  Uiso   1.00
H116   H     0.13962   0.27202   0.04074   0.00000  Uiso   1.00
H117   H     0.07772   0.27072   0.08745   0.00000  Uiso   1.00
H118   H     0.08252   0.28345   0.16927   0.00000  Uiso   1.00
C119   C     0.42093   0.16677   0.24993   0.00000  Uiso   1.00
C120   C     0.57910   0.16662   0.24963   0.00000  Uiso   1.00
C121   C     0.42620   0.16205   0.02309   0.00000  Uiso   1.00
C122   C     0.57423   0.18190   0.47733   0.00000  Uiso   1.00
C123   C     0.35493   0.12774   0.26392   0.00000  Uiso   1.00
C124   C     0.64516   0.20578   0.23457   0.00000  Uiso   1.00
C125   C     0.64578   0.12752   0.26327   0.00000  Uiso   1.00
C126   C     0.35440   0.20603   0.23513   0.00000  Uiso   1.00
C127   C     0.62389   0.16662   0.24906   0.00000  Uiso   1.00
C128   C     0.37620   0.16693   0.24975   0.00000  Uiso   1.00
C129   C     0.48203   0.02573   0.21584   0.00000  Uiso   1.00
C130   C     0.51763   0.30742   0.28436   0.00000  Uiso   1.00
C131   C     0.51597   0.02313   0.28525   0.00000  Uiso   1.00
C132   C     0.48502   0.31024   0.21419   0.00000  Uiso   1.00
C133   C     0.49938   0.16732   0.16488   0.00000  Uiso   1.00
C134   C     0.50125   0.16602   0.33526   0.00000  Uiso   1.00
C135   C     0.53802   0.17226   0.40690   0.00000  Uiso   1.00
C136   C     0.46271   0.16597   0.09341   0.00000  Uiso   1.00
C137   C     0.50177   0.16459   0.38364   0.00000  Uiso   1.00
C138   C     0.49944   0.16903   0.11682   0.00000  Uiso   1.00
C139   C     0.46528   0.15757   0.40623   0.00000  Uiso   1.00
C140   C     0.53637   0.17475   0.09467   0.00000  Uiso   1.00
C141   C     0.46350   0.16221   0.45286   0.00000  Uiso   1.00
C142   C     0.53752   0.17534   0.04770   0.00000  Uiso   1.00
C143   C     0.50059   0.16863   0.47675   0.00000  Uiso   1.00
C144   C     0.50038   0.16988   0.02369   0.00000  Uiso   1.00
C145   C     0.53792   0.17383   0.45362   0.00000  Uiso   1.00
C146   C     0.46292   0.16593   0.04676   0.00000  Uiso   1.00
C147   C     0.42592   0.16043   0.47628   0.00000  Uiso   1.00
C148   C     0.57451   0.18207   0.02420   0.00000  Uiso   1.00
Cu149  Cu    0.50000   0.21355   0.25000   0.00000  Uiso   1.00
Cu150  Cu    0.50000   0.11978   0.25000   0.00000  Uiso   1.00
H151   H     0.56595   0.17770   0.38836   0.00000  Uiso   1.00
H152   H     0.43417   0.16312   0.11164   0.00000  Uiso   1.00
N153   N     0.50000   0.28402   0.25000   0.00000  Uiso   1.00
N154   N     0.50000   0.04931   0.25000   0.00000  Uiso   1.00
O155   O     0.43988   0.20625   0.24999   0.00000  Uiso   1.00
O156   O     0.56012   0.12709   0.25000   0.00000  Uiso   1.00
O157   O     0.56012   0.20625   0.25000   0.00000  Uiso   1.00
O158   O     0.43988   0.12709   0.24999   0.00000  Uiso   1.00
O159   O     0.49999   0.20627   0.18513   0.00000  Uiso   1.00
O160   O     0.50001   0.12707   0.31487   0.00000  Uiso   1.00
O161   O     0.50001   0.20627   0.31487   0.00000  Uiso   1.00
O162   O     0.49999   0.12707   0.18513   0.00000  Uiso   1.00
H163   H     0.43863   0.14901   0.38660   0.00000  Uiso   1.00
H164   H     0.56378   0.17896   0.11470   0.00000  Uiso   1.00
C165   C     0.38603   0.15634   0.45297   0.00000  Uiso   1.00
C166   C     0.37547   0.18590   0.41659   0.00000  Uiso   1.00
C167   C     0.34118   0.17690   0.39029   0.00000  Uiso   1.00
C168   C     0.64877   0.14090   0.40225   0.00000  Uiso   1.00
C169   C     0.65691   0.11419   0.44104   0.00000  Uiso   1.00
C170   C     0.35908   0.12134   0.46592   0.00000  Uiso   1.00
H171   H     0.39514   0.21414   0.40698   0.00000  Uiso   1.00
H172   H     0.33490   0.19733   0.36025   0.00000  Uiso   1.00
H173   H     0.62245   0.13423   0.38151   0.00000  Uiso   1.00
H174   H     0.63636   0.08732   0.45166   0.00000  Uiso   1.00
H175   H     0.36607   0.09882   0.49449   0.00000  Uiso   1.00
C176   C     0.61307   0.19190   0.04819   0.00000  Uiso   1.00
C177   C     0.62692   0.23707   0.04994   0.00000  Uiso   1.00
C178   C     0.65878   0.24807   0.07922   0.00000  Uiso   1.00
C179   C     0.34352   0.21407   0.10684   0.00000  Uiso   1.00
C180   C     0.66394   0.16891   0.10427   0.00000  Uiso   1.00
C181   C     0.63253   0.15758   0.07461   0.00000  Uiso   1.00
H182   H     0.61189   0.26396   0.03015   0.00000  Uiso   1.00
H183   H     0.33533   0.28314   0.08139   0.00000  Uiso   1.00
H184   H     0.36719   0.22262   0.13066   0.00000  Uiso   1.00
H185   H     0.34423   0.14301   0.12622   0.00000  Uiso   1.00
H186   H     0.62181   0.12268   0.07404   0.00000  Uiso   1.00
H187   H     0.39756   0.16021   0.04117   0.00000  Uiso   1.00
H188   H     0.60238   0.18843   0.45945   0.00000  Uiso   1.00
H189   H     0.37108   0.09742   0.27607   0.00000  Uiso   1.00
H190   H     0.62895   0.23597   0.22223   0.00000  Uiso   1.00
H191   H     0.63015   0.09694   0.27434   0.00000  Uiso   1.00
H192   H     0.37020   0.23654   0.22360   0.00000  Uiso   1.00
C193   C     0.45438   0.04876   0.18245   0.00000  Uiso   1.00
C194   C     0.46681   0.05546   0.13758   0.00000  Uiso   1.00
C195   C     0.43785   0.06416   0.10361   0.00000  Uiso   1.00
C196   C     0.39644   0.06782   0.11416   0.00000  Uiso   1.00
C197   C     0.38386   0.06227   0.15869   0.00000  Uiso   1.00
C198   C     0.41260   0.05208   0.19256   0.00000  Uiso   1.00
H199   H     0.49869   0.05168   0.12871   0.00000  Uiso   1.00
H200   H     0.44752   0.06775   0.06904   0.00000  Uiso   1.00
H201   H     0.37410   0.07455   0.08775   0.00000  Uiso   1.00
H202   H     0.35169   0.06436   0.16679   0.00000  Uiso   1.00
H203   H     0.40211   0.04440   0.22630   0.00000  Uiso   1.00
C204   C     0.54560   0.28395   0.31710   0.00000  Uiso   1.00
C205   C     0.53442   0.27901   0.36249   0.00000  Uiso   1.00
C206   C     0.56440   0.27211   0.39575   0.00000  Uiso   1.00
C207   C     0.60548   0.26787   0.38395   0.00000  Uiso   1.00
C208   C     0.61674   0.27140   0.33886   0.00000  Uiso   1.00
C209   C     0.58703   0.27987   0.30568   0.00000  Uiso   1.00
H210   H     0.50285   0.28352   0.37228   0.00000  Uiso   1.00
H211   H     0.55577   0.27049   0.43074   0.00000  Uiso   1.00
H212   H     0.62862   0.26265   0.40980   0.00000  Uiso   1.00
H213   H     0.64867   0.26973   0.32970   0.00000  Uiso   1.00
H214   H     0.59659   0.28669   0.27146   0.00000  Uiso   1.00
C215   C     0.52888   0.04385   0.32743   0.00000  Uiso   1.00
C216   C     0.57064   0.04881   0.33662   0.00000  Uiso   1.00
C217   C     0.58415   0.05375   0.38064   0.00000  Uiso   1.00
C218   C     0.55602   0.05706   0.41554   0.00000  Uiso   1.00
C219   C     0.51418   0.05364   0.40652   0.00000  Uiso   1.00
C220   C     0.50062   0.04607   0.36279   0.00000  Uiso   1.00
H221   H     0.59283   0.04361   0.31057   0.00000  Uiso   1.00
H222   H     0.61659   0.05286   0.38754   0.00000  Uiso   1.00
H223   H     0.56656   0.06108   0.44968   0.00000  Uiso   1.00
H224   H     0.49239   0.05534   0.43360   0.00000  Uiso   1.00
H225   H     0.46835   0.04043   0.35660   0.00000  Uiso   1.00
C226   C     0.48167   0.29137   0.16897   0.00000  Uiso   1.00
C227   C     0.51687   0.29182   0.14198   0.00000  Uiso   1.00
C228   C     0.51372   0.28449   0.09599   0.00000  Uiso   1.00
C229   C     0.47548   0.27700   0.07649   0.00000  Uiso   1.00
C230   C     0.44048   0.27574   0.10312   0.00000  Uiso   1.00
C231   C     0.44340   0.28246   0.14937   0.00000  Uiso   1.00
H232   H     0.54649   0.29968   0.15633   0.00000  Uiso   1.00
H233   H     0.54083   0.28539   0.07535   0.00000  Uiso   1.00
H234   H     0.47295   0.27202   0.04074   0.00000  Uiso   1.00
H235   H     0.41106   0.27072   0.08745   0.00000  Uiso   1.00
H236   H     0.41585   0.28345   0.16927   0.00000  Uiso   1.00
C237   C     0.75426   0.16677   0.24993   0.00000  Uiso   1.00
C238   C     0.91243   0.16662   0.24963   0.00000  Uiso   1.00
C239   C     0.75953   0.16205   0.02309   0.00000  Uiso   1.00
C240   C     0.90756   0.18190   0.47733   0.00000  Uiso   1.00
C241   C     0.68827   0.12774   0.26392   0.00000  Uiso   1.00
C242   C     0.97849   0.20578   0.23457   0.00000  Uiso   1.00
C243   C     0.97911   0.12752   0.26327   0.00000  Uiso   1.00
C244   C     0.68773   0.20603   0.23513   0.00000  Uiso   1.00
C245   C     0.95722   0.16662   0.24906   0.00000  Uiso   1.00
C246   C     0.70953   0.16693   0.24975   0.00000  Uiso   1.00
C247   C     0.81536   0.02573   0.21584   0.00000  Uiso   1.00
C248   C     0.85096   0.30742   0.28436   0.00000  Uiso   1.00
C249   C     0.84930   0.02313   0.28525   0.00000  Uiso   1.00
C250   C     0.81835   0.31024   0.21419   0.00000  Uiso   1.00
C251   C     0.83272   0.16732   0.16488   0.00000  Uiso   1.00
C252   C     0.83458   0.16602   0.33526   0.00000  Uiso   1.00
C253   C     0.87135   0.17226   0.40690   0.00000  Uiso   1.00
C254   C     0.79604   0.16597   0.09341   0.00000  Uiso   1.00
C255   C     0.83510   0.16459   0.38364   0.00000  Uiso   1.00
C256   C     0.83278   0.16903   0.11682   0.00000  Uiso   1.00
C257   C     0.79862   0.15757   0.40623   0.00000  Uiso   1.00
C258   C     0.86970   0.17475   0.09467   0.00000  Uiso   1.00
C259   C     0.79683   0.16221   0.45286   0.00000  Uiso   1.00
C260   C     0.87085   0.17534   0.04770   0.00000  Uiso   1.00
C261   C     0.83392   0.16863   0.47675   0.00000  Uiso   1.00
C262   C     0.83371   0.16988   0.02369   0.00000  Uiso   1.00
C263   C     0.87125   0.17383   0.45362   0.00000  Uiso   1.00
C264   C     0.79626   0.16593   0.04676   0.00000  Uiso   1.00
C265   C     0.75925   0.16043   0.47628   0.00000  Uiso   1.00
C266   C     0.90784   0.18207   0.02420   0.00000  Uiso   1.00
Cu267  Cu    0.83333   0.21355   0.25000   0.00000  Uiso   1.00
Cu268  Cu    0.83333   0.11978   0.25000   0.00000  Uiso   1.00
H269   H     0.89929   0.17770   0.38836   0.00000  Uiso   1.00
H270   H     0.76750   0.16312   0.11164   0.00000  Uiso   1.00
N271   N     0.83333   0.28402   0.25000   0.00000  Uiso   1.00
N272   N     0.83333   0.04931   0.25000   0.00000  Uiso   1.00
O273   O     0.77321   0.20625   0.24999   0.00000  Uiso   1.00
O274   O     0.89345   0.12709   0.25000   0.00000  Uiso   1.00
O275   O     0.89345   0.20625   0.25000   0.00000  Uiso   1.00
O276   O     0.77321   0.12709   0.24999   0.00000  Uiso   1.00
O277   O     0.83332   0.20627   0.18513   0.00000  Uiso   1.00
O278   O     0.83334   0.12707   0.31487   0.00000  Uiso   1.00
O279   O     0.83334   0.20627   0.31487   0.00000  Uiso   1.00
O280   O     0.83332   0.12707   0.18513   0.00000  Uiso   1.00
H281   H     0.77196   0.14901   0.38660   0.00000  Uiso   1.00
H282   H     0.89711   0.17896   0.11470   0.00000  Uiso   1.00
C283   C     0.71937   0.15634   0.45297   0.00000  Uiso   1.00
C284   C     0.70881   0.18590   0.41659   0.00000  Uiso   1.00
C285   C     0.67451   0.17690   0.39029   0.00000  Uiso   1.00
C286   C     0.98210   0.14090   0.40225   0.00000  Uiso   1.00
C287   C     0.99024   0.11419   0.44104   0.00000  Uiso   1.00
C288   C     0.69241   0.12134   0.46592   0.00000  Uiso   1.00
H289   H     0.72848   0.21414   0.40698   0.00000  Uiso   1.00
H290   H     0.66824   0.19733   0.36025   0.00000  Uiso   1.00
H291   H     0.95578   0.13423   0.38151   0.00000  Uiso   1.00
H292   H     0.96970   0.08732   0.45166   0.00000  Uiso   1.00
H293   H     0.69940   0.09882   0.49449   0.00000  Uiso   1.00
C294   C     0.94640   0.19190   0.04819   0.00000  Uiso   1.00
C295   C     0.96026   0.23707   0.04994   0.00000  Uiso   1.00
C296   C     0.99212   0.24807   0.07922   0.00000  Uiso   1.00
C297   C     0.67685   0.21407   0.10684   0.00000  Uiso   1.00
C298   C     0.99728   0.16891   0.10427   0.00000  Uiso   1.00
C299   C     0.96586   0.15758   0.07461   0.00000  Uiso   1.00
H300   H     0.94522   0.26396   0.03015   0.00000  Uiso   1.00
H301   H     0.66867   0.28314   0.08139   0.00000  Uiso   1.00
H302   H     0.70052   0.22262   0.13066   0.00000  Uiso   1.00
H303   H     0.67757   0.14301   0.12622   0.00000  Uiso   1.00
H304   H     0.95514   0.12268   0.07404   0.00000  Uiso   1.00
H305   H     0.73090   0.16021   0.04117   0.00000  Uiso   1.00
H306   H     0.93571   0.18843   0.45945   0.00000  Uiso   1.00
H307   H     0.70441   0.09742   0.27607   0.00000  Uiso   1.00
H308   H     0.96229   0.23597   0.22223   0.00000  Uiso   1.00
H309   H     0.96349   0.09694   0.27434   0.00000  Uiso   1.00
H310   H     0.70354   0.23654   0.22360   0.00000  Uiso   1.00
C311   C     0.78771   0.04876   0.18245   0.00000  Uiso   1.00
C312   C     0.80014   0.05546   0.13758   0.00000  Uiso   1.00
C313   C     0.77118   0.06416   0.10361   0.00000  Uiso   1.00
C314   C     0.72978   0.06782   0.11416   0.00000  Uiso   1.00
C315   C     0.71720   0.06227   0.15869   0.00000  Uiso   1.00
C316   C     0.74593   0.05208   0.19256   0.00000  Uiso   1.00
H317   H     0.83202   0.05168   0.12871   0.00000  Uiso   1.00
H318   H     0.78085   0.06775   0.06904   0.00000  Uiso   1.00
H319   H     0.70743   0.07455   0.08775   0.00000  Uiso   1.00
H320   H     0.68502   0.06436   0.16679   0.00000  Uiso   1.00
H321   H     0.73545   0.04440   0.22630   0.00000  Uiso   1.00
C322   C     0.87893   0.28395   0.31710   0.00000  Uiso   1.00
C323   C     0.86776   0.27901   0.36249   0.00000  Uiso   1.00
C324   C     0.89774   0.27211   0.39575   0.00000  Uiso   1.00
C325   C     0.93882   0.26787   0.38395   0.00000  Uiso   1.00
C326   C     0.95007   0.27140   0.33886   0.00000  Uiso   1.00
C327   C     0.92037   0.27987   0.30568   0.00000  Uiso   1.00
H328   H     0.83618   0.28352   0.37228   0.00000  Uiso   1.00
H329   H     0.88910   0.27049   0.43074   0.00000  Uiso   1.00
H330   H     0.96195   0.26265   0.40980   0.00000  Uiso   1.00
H331   H     0.98201   0.26973   0.32970   0.00000  Uiso   1.00
H332   H     0.92993   0.28669   0.27146   0.00000  Uiso   1.00
C333   C     0.86222   0.04385   0.32743   0.00000  Uiso   1.00
C334   C     0.90398   0.04881   0.33662   0.00000  Uiso   1.00
C335   C     0.91748   0.05375   0.38064   0.00000  Uiso   1.00
C336   C     0.88935   0.05706   0.41554   0.00000  Uiso   1.00
C337   C     0.84751   0.05364   0.40652   0.00000  Uiso   1.00
C338   C     0.83395   0.04607   0.36279   0.00000  Uiso   1.00
H339   H     0.92617   0.04361   0.31057   0.00000  Uiso   1.00
H340   H     0.94993   0.05286   0.38754   0.00000  Uiso   1.00
H341   H     0.89989   0.06108   0.44968   0.00000  Uiso   1.00
H342   H     0.82572   0.05534   0.43360   0.00000  Uiso   1.00
H343   H     0.80168   0.04043   0.35660   0.00000  Uiso   1.00
C344   C     0.81500   0.29137   0.16897   0.00000  Uiso   1.00
C345   C     0.85021   0.29182   0.14198   0.00000  Uiso   1.00
C346   C     0.84705   0.28449   0.09599   0.00000  Uiso   1.00
C347   C     0.80881   0.27700   0.07649   0.00000  Uiso   1.00
C348   C     0.77381   0.27574   0.10312   0.00000  Uiso   1.00
C349   C     0.77673   0.28246   0.14937   0.00000  Uiso   1.00
H350   H     0.87982   0.29968   0.15633   0.00000  Uiso   1.00
H351   H     0.87416   0.28539   0.07535   0.00000  Uiso   1.00
H352   H     0.80629   0.27202   0.04074   0.00000  Uiso   1.00
H353   H     0.74439   0.27072   0.08745   0.00000  Uiso   1.00
H354   H     0.74919   0.28345   0.16927   0.00000  Uiso   1.00
C355   C     0.08759   0.50010   0.24993   0.00000  Uiso   1.00
C356   C     0.24577   0.49995   0.24963   0.00000  Uiso   1.00
C357   C     0.09286   0.49539   0.02309   0.00000  Uiso   1.00
C358   C     0.24090   0.51523   0.47733   0.00000  Uiso   1.00
C359   C     0.02160   0.46107   0.26392   0.00000  Uiso   1.00
C360   C     0.31182   0.53911   0.23457   0.00000  Uiso   1.00
C361   C     0.31244   0.46086   0.26327   0.00000  Uiso   1.00
C362   C     0.02107   0.53936   0.23513   0.00000  Uiso   1.00
C363   C     0.29056   0.49995   0.24906   0.00000  Uiso   1.00
C364   C     0.04287   0.50026   0.24975   0.00000  Uiso   1.00
C365   C     0.14870   0.35907   0.21584   0.00000  Uiso   1.00
C366   C     0.18429   0.64076   0.28436   0.00000  Uiso   1.00
C367   C     0.18263   0.35647   0.28525   0.00000  Uiso   1.00
C368   C     0.15168   0.64358   0.21419   0.00000  Uiso   1.00
C369   C     0.16605   0.50065   0.16488   0.00000  Uiso   1.00
C370   C     0.16791   0.49936   0.33526   0.00000  Uiso   1.00
C371   C     0.20469   0.50560   0.40690   0.00000  Uiso   1.00
C372   C     0.12938   0.49931   0.09341   0.00000  Uiso   1.00
C373   C     0.16843   0.49793   0.38364   0.00000  Uiso   1.00
C374   C     0.16611   0.50237   0.11682   0.00000  Uiso   1.00
C375   C     0.13195   0.49090   0.40623   0.00000  Uiso   1.00
C376   C     0.20304   0.50808   0.09467   0.00000  Uiso   1.00
C377   C     0.13016   0.49554   0.45286   0.00000  Uiso   1.00
C378   C     0.20419   0.50867   0.04770   0.00000  Uiso   1.00
C379   C     0.16725   0.50197   0.47675   0.00000  Uiso   1.00
C380   C     0.16705   0.50322   0.02369   0.00000  Uiso   1.00
C381   C     0.20458   0.50717   0.45362   0.00000  Uiso   1.00
C382   C     0.12959   0.49927   0.04676   0.00000  Uiso   1.00
C383   C     0.09259   0.49376   0.47628   0.00000  Uiso   1.00
C384   C     0.24118   0.51540   0.02420   0.00000  Uiso   1.00
Cu385  Cu    0.16667   0.54689   0.25000   0.00000  Uiso   1.00
Cu386  Cu    0.16667   0.45311   0.25000   0.00000  Uiso   1.00
H387   H     0.23262   0.51103   0.38836   0.00000  Uiso   1.00
H388   H     0.10083   0.49645   0.11164   0.00000  Uiso   1.00
N389   N     0.16667   0.61736   0.25000   0.00000  Uiso   1.00
N390   N     0.16667   0.38264   0.25000   0.00000  Uiso   1.00
O391   O     0.10655   0.53958   0.24999   0.00000  Uiso   1.00
O392   O     0.22679   0.46042   0.25000   0.00000  Uiso   1.00
O393   O     0.22679   0.53958   0.25000   0.00000  Uiso   1.00
O394   O     0.10655   0.46042   0.24999   0.00000  Uiso   1.00
O395   O     0.16666   0.53960   0.18513   0.00000  Uiso   1.00
O396   O     0.16668   0.46040   0.31487   0.00000  Uiso   1.00
O397   O     0.16668   0.53960   0.31487   0.00000  Uiso   1.00
O398   O     0.16666   0.46040   0.18513   0.00000  Uiso   1.00
H399   H     0.10529   0.48234   0.38660   0.00000  Uiso   1.00
H400   H     0.23044   0.51229   0.11470   0.00000  Uiso   1.00
C401   C     0.05270   0.48967   0.45297   0.00000  Uiso   1.00
C402   C     0.04214   0.51923   0.41659   0.00000  Uiso   1.00
C403   C     0.00784   0.51024   0.39029   0.00000  Uiso   1.00
C404   C     0.31543   0.47423   0.40225   0.00000  Uiso   1.00
C405   C     0.32358   0.44752   0.44104   0.00000  Uiso   1.00
C406   C     0.02575   0.45467   0.46592   0.00000  Uiso   1.00
H407   H     0.06181   0.54747   0.40698   0.00000  Uiso   1.00
H408   H     0.00157   0.53066   0.36025   0.00000  Uiso   1.00
H409   H     0.28911   0.46756   0.38151   0.00000  Uiso   1.00
H410   H     0.30303   0.42065   0.45166   0.00000  Uiso   1.00
H411   H     0.03273   0.43215   0.49449   0.00000  Uiso   1.00
C412   C     0.27973   0.52524   0.04819   0.00000  Uiso   1.00
C413   C     0.29359   0.57040   0.04994   0.00000  Uiso   1.00
C414   C     0.32545   0.58140   0.07922   0.00000  Uiso   1.00
C415   C     0.01018   0.54740   0.10684   0.00000  Uiso   1.00
C416   C     0.33061   0.50224   0.10427   0.00000  Uiso   1.00
C417   C     0.29919   0.49092   0.07461   0.00000  Uiso   1.00
H418   H     0.27856   0.59730   0.03015   0.00000  Uiso   1.00
H419   H     0.00200   0.61648   0.08139   0.00000  Uiso   1.00
H420   H     0.03386   0.55595   0.13066   0.00000  Uiso   1.00
H421   H     0.01090   0.47635   0.12622   0.00000  Uiso   1.00
H422   H     0.28847   0.45601   0.07404   0.00000  Uiso   1.00
H423   H     0.06423   0.49354   0.04117   0.00000  Uiso   1.00
H424   H     0.26904   0.52176   0.45945   0.00000  Uiso   1.00
H425   H     0.03775   0.43076   0.27607   0.00000  Uiso   1.00
H426   H     0.29562   0.56930   0.22223   0.00000  Uiso   1.00
H427   H     0.29682   0.43027   0.27434   0.00000  Uiso   1.00
H428   H     0.03687   0.56987   0.22360   0.00000  Uiso   1.00
C429   C     0.12105   0.38209   0.18245   0.00000  Uiso   1.00
C430   C     0.13348   0.38879   0.13758   0.00000  Uiso   1.00
C431   C     0.10451   0.39750   0.10361   0.00000  Uiso   1.00
C432   C     0.06311   0.40116   0.11416   0.00000  Uiso   1.00
C433   C     0.05053   0.39561   0.15869   0.00000  Uiso   1.00
C434   C     0.07926   0.38541   0.19256   0.00000  Uiso   1.00
H435   H     0.16536   0.38501   0.12871   0.00000  Uiso   1.00
H436   H     0.11418   0.40108   0.06904   0.00000  Uiso   1.00
H437   H     0.04076   0.40788   0.08775   0.00000  Uiso   1.00
H438   H     0.01835   0.39769   0.16679   0.00000  Uiso   1.00
H439   H     0.06878   0.37774   0.22630   0.00000  Uiso   1.00
C440   C     0.21227   0.61728   0.31710   0.00000  Uiso   1.00
C441   C     0.20109   0.61234   0.36249   0.00000  Uiso   1.00
C442   C     0.23107   0.60544   0.39575   0.00000  Uiso   1.00
C443   C     0.27215   0.60121   0.38395   0.00000  Uiso   1.00
C444   C     0.28340   0.60474   0.33886   0.00000  Uiso   1.00
C445   C     0.25370   0.61320   0.30568   0.00000  Uiso   1.00
H446   H     0.16951   0.61685   0.37228   0.00000  Uiso   1.00
H447   H     0.22244   0.60382   0.43074   0.00000  Uiso   1.00
H448   H     0.29529   0.59598   0.40980   0.00000  Uiso   1.00
H449   H     0.31534   0.60307   0.32970   0.00000  Uiso   1.00
H450   H     0.26326   0.62002   0.27146   0.00000  Uiso   1.00
C451   C     0.19555   0.37719   0.32743   0.00000  Uiso   1.00
C452   C     0.23731   0.38214   0.33662   0.00000  Uiso   1.00
C453   C     0.25081   0.38709   0.38064   0.00000  Uiso   1.00
C454   C     0.22269   0.39039   0.41554   0.00000  Uiso   1.00
C455   C     0.18085   0.38698   0.40652   0.00000  Uiso   1.00
C456   C     0.16728   0.37940   0.36279   0.00000  Uiso   1.00
H457   H     0.25950   0.37694   0.31057   0.00000  Uiso   1.00
H458   H     0.28326   0.38619   0.38754   0.00000  Uiso   1.00
H459   H     0.23323   0.39442   0.44968   0.00000  Uiso   1.00
H460   H     0.15906   0.38867   0.43360   0.00000  Uiso   1.00
H461   H     0.13502   0.37376   0.35660   0.00000  Uiso   1.00
C462   C     0.14834   0.62470   0.16897   0.00000  Uiso   1.00
C463   C     0.18354   0.62516   0.14198   0.00000  Uiso   1.00
C464   C     0.18039   0.61783   0.09599   0.00000  Uiso   1.00
C465   C     0.14214   0.61034   0.07649   0.00000  Uiso   1.00
C466   C     0.10714   0.60908   0.10312   0.00000  Uiso   1.00
C467   C     0.11007   0.61579   0.14937   0.00000  Uiso   1.00
H468   H     0.21315   0.63302   0.15633   0.00000  Uiso   1.00
H469   H     0.20749   0.61873   0.07535   0.00000  Uiso   1.00
H470   H     0.13962   0.60535   0.04074   0.00000  Uiso   1.00
H471   H     0.07772   0.60405   0.08745   0.00000  Uiso   1.00
H472   H     0.08252   0.61678   0.16927   0.00000  Uiso   1.00
C473   C     0.42093   0.50010   0.24993   0.00000  Uiso   1.00
C474   C     0.57910   0.49995   0.24963   0.00000  Uiso   1.00
C475   C     0.42620   0.49539   0.02309   0.00000  Uiso   1.00
C476   C     0.57423   0.51523   0.47733   0.00000  Uiso   1.00
C477   C     0.35493   0.46107   0.26392   0.00000  Uiso   1.00
C478   C     0.64516   0.53911   0.23457   0.00000  Uiso   1.00
C479   C     0.64578   0.46086   0.26327   0.00000  Uiso   1.00
C480   C     0.35440   0.53936   0.23513   0.00000  Uiso   1.00
C481   C     0.62389   0.49995   0.24906   0.00000  Uiso   1.00
C482   C     0.37620   0.50026   0.24975   0.00000  Uiso   1.00
C483   C     0.48203   0.35907   0.21584   0.00000  Uiso   1.00
C484   C     0.51763   0.64076   0.28436   0.00000  Uiso   1.00
C485   C     0.51597   0.35647   0.28525   0.00000  Uiso   1.00
C486   C     0.48502   0.64358   0.21419   0.00000  Uiso   1.00
C487   C     0.49938   0.50065   0.16488   0.00000  Uiso   1.00
C488   C     0.50125   0.49936   0.33526   0.00000  Uiso   1.00
C489   C     0.53802   0.50560   0.40690   0.00000  Uiso   1.00
C490   C     0.46271   0.49931   0.09341   0.00000  Uiso   1.00
C491   C     0.50177   0.49793   0.38364   0.00000  Uiso   1.00
C492   C     0.49944   0.50237   0.11682   0.00000  Uiso   1.00
C493   C     0.46528   0.49090   0.40623   0.00000  Uiso   1.00
C494   C     0.53637   0.50808   0.09467   0.00000  Uiso   1.00
C495   C     0.46350   0.49554   0.45286   0.00000  Uiso   1.00
C496   C     0.53752   0.50867   0.04770   0.00000  Uiso   1.00
C497   C     0.50059   0.50197   0.47675   0.00000  Uiso   1.00
C498   C     0.50038   0.50322   0.02369   0.00000  Uiso   1.00
C499   C     0.53792   0.50717   0.45362   0.00000  Uiso   1.00
C500   C     0.46292   0.49927   0.04676   0.00000  Uiso   1.00
C501   C     0.42592   0.49376   0.47628   0.00000  Uiso   1.00
C502   C     0.57451   0.51540   0.02420   0.00000  Uiso   1.00
Cu503  Cu    0.50000   0.54689   0.25000   0.00000  Uiso   1.00
Cu504  Cu    0.50000   0.45311   0.25000   0.00000  Uiso   1.00
H505   H     0.56595   0.51103   0.38836   0.00000  Uiso   1.00
H506   H     0.43417   0.49645   0.11164   0.00000  Uiso   1.00
N507   N     0.50000   0.61736   0.25000   0.00000  Uiso   1.00
N508   N     0.50000   0.38264   0.25000   0.00000  Uiso   1.00
O509   O     0.43988   0.53958   0.24999   0.00000  Uiso   1.00
O510   O     0.56012   0.46042   0.25000   0.00000  Uiso   1.00
O511   O     0.56012   0.53958   0.25000   0.00000  Uiso   1.00
O512   O     0.43988   0.46042   0.24999   0.00000  Uiso   1.00
O513   O     0.49999   0.53960   0.18513   0.00000  Uiso   1.00
O514   O     0.50001   0.46040   0.31487   0.00000  Uiso   1.00
O515   O     0.50001   0.53960   0.31487   0.00000  Uiso   1.00
O516   O     0.49999   0.46040   0.18513   0.00000  Uiso   1.00
H517   H     0.43863   0.48234   0.38660   0.00000  Uiso   1.00
H518   H     0.56378   0.51229   0.11470   0.00000  Uiso   1.00
C519   C     0.38603   0.48967   0.45297   0.00000  Uiso   1.00
C520   C     0.37547   0.51923   0.41659   0.00000  Uiso   1.00
C521   C     0.34118   0.51024   0.39029   0.00000  Uiso   1.00
C522   C     0.64877   0.47423   0.40225   0.00000  Uiso   1.00
C523   C     0.65691   0.44752   0.44104   0.00000  Uiso   1.00
C524   C     0.35908   0.45467   0.46592   0.00000  Uiso   1.00
H525   H     0.39514   0.54747   0.40698   0.00000  Uiso   1.00
H526   H     0.33490   0.53066   0.36025   0.00000  Uiso   1.00
H527   H     0.62245   0.46756   0.38151   0.00000  Uiso   1.00
H528   H     0.63636   0.42065   0.45166   0.00000  Uiso   1.00
H529   H     0.36607   0.43215   0.49449   0.00000  Uiso   1.00
C530   C     0.61307   0.52524   0.04819   0.00000  Uiso   1.00
C531   C     0.62692   0.57040   0.04994   0.00000  Uiso   1.00
C532   C     0.65878   0.58140   0.07922   0.00000  Uiso   1.00
C533   C     0.34352   0.54740   0.10684   0.00000  Uiso   1.00
C534   C     0.66394   0.50224   0.10427   0.00000  Uiso   1.00
C535   C     0.63253   0.49092   0.07461   0.00000  Uiso   1.00
H536   H     0.61189   0.59730   0.03015   0.00000  Uiso   1.00
H537   H     0.33533   0.61648   0.08139   0.00000  Uiso   1.00
H538   H     0.36719   0.55595   0.13066   0.00000  Uiso   1.00
H539   H     0.34423   0.47635   0.12622   0.00000  Uiso   1.00
H540   H     0.62181   0.45601   0.07404   0.00000  Uiso   1.00
H541   H     0.39756   0.49354   0.04117   0.00000  Uiso   1.00
H542   H     0.60238   0.52176   0.45945   0.00000  Uiso   1.00
H543   H     0.37108   0.43076   0.27607   0.00000  Uiso   1.00
H544   H     0.62895   0.56930   0.22223   0.00000  Uiso   1.00
H545   H     0.63015   0.43027   0.27434   0.00000  Uiso   1.00
H546   H     0.37020   0.56987   0.22360   0.00000  Uiso   1.00
C547   C     0.45438   0.38209   0.18245   0.00000  Uiso   1.00
C548   C     0.46681   0.38879   0.13758   0.00000  Uiso   1.00
C549   C     0.43785   0.39750   0.10361   0.00000  Uiso   1.00
C550   C     0.39644   0.40116   0.11416   0.00000  Uiso   1.00
C551   C     0.38386   0.39561   0.15869   0.00000  Uiso   1.00
C552   C     0.41260   0.38541   0.19256   0.00000  Uiso   1.00
H553   H     0.49869   0.38501   0.12871   0.00000  Uiso   1.00
H554   H     0.44752   0.40108   0.06904   0.00000  Uiso   1.00
H555   H     0.37410   0.40788   0.08775   0.00000  Uiso   1.00
H556   H     0.35169   0.39769   0.16679   0.00000  Uiso   1.00
H557   H     0.40211   0.37774   0.22630   0.00000  Uiso   1.00
C558   C     0.54560   0.61728   0.31710   0.00000  Uiso   1.00
C559   C     0.53442   0.61234   0.36249   0.00000  Uiso   1.00
C560   C     0.56440   0.60544   0.39575   0.00000  Uiso   1.00
C561   C     0.60548   0.60121   0.38395   0.00000  Uiso   1.00
C562   C     0.61674   0.60474   0.33886   0.00000  Uiso   1.00
C563   C     0.58703   0.61320   0.30568   0.00000  Uiso   1.00
H564   H     0.50285   0.61685   0.37228   0.00000  Uiso   1.00
H565   H     0.55577   0.60382   0.43074   0.00000  Uiso   1.00
H566   H     0.62862   0.59598   0.40980   0.00000  Uiso   1.00
H567   H     0.64867   0.60307   0.32970   0.00000  Uiso   1.00
H568   H     0.59659   0.62002   0.27146   0.00000  Uiso   1.00
C569   C     0.52888   0.37719   0.32743   0.00000  Uiso   1.00
C570   C     0.57064   0.38214   0.33662   0.00000  Uiso   1.00
C571   C     0.58415   0.38709   0.38064   0.00000  Uiso   1.00
C572   C     0.55602   0.39039   0.41554   0.00000  Uiso   1.00
C573   C     0.51418   0.38698   0.40652   0.00000  Uiso   1.00
C574   C     0.50062   0.37940   0.36279   0.00000  Uiso   1.00
H575   H     0.59283   0.37694   0.31057   0.00000  Uiso   1.00
H576   H     0.61659   0.38619   0.38754   0.00000  Uiso   1.00
H577   H     0.56656   0.39442   0.44968   0.00000  Uiso   1.00
H578   H     0.49239   0.38867   0.43360   0.00000  Uiso   1.00
H579   H     0.46835   0.37376   0.35660   0.00000  Uiso   1.00
C580   C     0.48167   0.62470   0.16897   0.00000  Uiso   1.00
C581   C     0.51687   0.62516   0.14198   0.00000  Uiso   1.00
C582   C     0.51372   0.61783   0.09599   0.00000  Uiso   1.00
C583   C     0.47548   0.61034   0.07649   0.00000  Uiso   1.00
C584   C     0.44048   0.60908   0.10312   0.00000  Uiso   1.00
C585   C     0.44340   0.61579   0.14937   0.00000  Uiso   1.00
H586   H     0.54649   0.63302   0.15633   0.00000  Uiso   1.00
H587   H     0.54083   0.61873   0.07535   0.00000  Uiso   1.00
H588   H     0.47295   0.60535   0.04074   0.00000  Uiso   1.00
H589   H     0.41106   0.60405   0.08745   0.00000  Uiso   1.00
H590   H     0.41585   0.61678   0.16927   0.00000  Uiso   1.00
C591   C     0.75426   0.50010   0.24993   0.00000  Uiso   1.00
C592   C     0.91243   0.49995   0.24963   0.00000  Uiso   1.00
C593   C     0.75953   0.49539   0.02309   0.00000  Uiso   1.00
C594   C     0.90756   0.51523   0.47733   0.00000  Uiso   1.00
C595   C     0.68827   0.46107   0.26392   0.00000  Uiso   1.00
C596   C     0.97849   0.53911   0.23457   0.00000  Uiso   1.00
C597   C     0.97911   0.46086   0.26327   0.00000  Uiso   1.00
C598   C     0.68773   0.53936   0.23513   0.00000  Uiso   1.00
C599   C     0.95722   0.49995   0.24906   0.00000  Uiso   1.00
C600   C     0.70953   0.50026   0.24975   0.00000  Uiso   1.00
C601   C     0.81536   0.35907   0.21584   0.00000  Uiso   1.00
C602   C     0.85096   0.64076   0.28436   0.00000  Uiso   1.00
C603   C     0.84930   0.35647   0.28525   0.00000  Uiso   1.00
C604   C     0.81835   0.64358   0.21419   0.00000  Uiso   1.00
C605   C     0.83272   0.50065   0.16488   0.00000  Uiso   1.00
C606   C     0.83458   0.49936   0.33526   0.00000  Uiso   1.00
C607   C     0.87135   0.50560   0.40690   0.00000  Uiso   1.00
C608   C     0.79604   0.49931   0.09341   0.00000  Uiso   1.00
C609   C     0.83510   0.49793   0.38364   0.00000  Uiso   1.00
C610   C     0.83278   0.50237   0.11682   0.00000  Uiso   1.00
C611   C     0.79862   0.49090   0.40623   0.00000  Uiso   1.00
C612   C     0.86970   0.50808   0.09467   0.00000  Uiso   1.00
C613   C     0.79683   0.49554   0.45286   0.00000  Uiso   1.00
C614   C     0.87085   0.50867   0.04770   0.00000  Uiso   1.00
C615   C     0.83392   0.50197   0.47675   0.00000  Uiso   1.00
C616   C     0.83371   0.50322   0.02369   0.00000  Uiso   1.00
C617   C     0.87125   0.50717   0.45362   0.00000  Uiso   1.00
C618   C     0.79626   0.49927   0.04676   0.00000  Uiso   1.00
C619   C     0.75925   0.49376   0.47628   0.00000  Uiso   1.00
C620   C     0.90784   0.51540   0.02420   0.00000  Uiso   1.00
Cu621  Cu    0.83333   0.54689   0.25000   0.00000  Uiso   1.00
Cu622  Cu    0.83333   0.45311   0.25000   0.00000  Uiso   1.00
H623   H     0.89929   0.51103   0.38836   0.00000  Uiso   1.00
H624   H     0.76750   0.49645   0.11164   0.00000  Uiso   1.00
N625   N     0.83333   0.61736   0.25000   0.00000  Uiso   1.00
N626   N     0.83333   0.38264   0.25000   0.00000  Uiso   1.00
O627   O     0.77321   0.53958   0.24999   0.00000  Uiso   1.00
O628   O     0.89345   0.46042   0.25000   0.00000  Uiso   1.00
O629   O     0.89345   0.53958   0.25000   0.00000  Uiso   1.00
O630   O     0.77321   0.46042   0.24999   0.00000  Uiso   1.00
O631   O     0.83332   0.53960   0.18513   0.00000  Uiso   1.00
O632   O     0.83334   0.46040   0.31487   0.00000  Uiso   1.00
O633   O     0.83334   0.53960   0.31487   0.00000  Uiso   1.00
O634   O     0.83332   0.46040   0.18513   0.00000  Uiso   1.00
H635   H     0.77196   0.48234   0.38660   0.00000  Uiso   1.00
H636   H     0.89711   0.51229   0.11470   0.00000  Uiso   1.00
C637   C     0.71937   0.48967   0.45297   0.00000  Uiso   1.00
C638   C     0.70881   0.51923   0.41659   0.00000  Uiso   1.00
C639   C     0.67451   0.51024   0.39029   0.00000  Uiso   1.00
C640   C     0.98210   0.47423   0.40225   0.00000  Uiso   1.00
C641   C     0.99024   0.44752   0.44104   0.00000  Uiso   1.00
C642   C     0.69241   0.45467   0.46592   0.00000  Uiso   1.00
H643   H     0.72848   0.54747   0.40698   0.00000  Uiso   1.00
H644   H     0.66824   0.53066   0.36025   0.00000  Uiso   1.00
H645   H     0.95578   0.46756   0.38151   0.00000  Uiso   1.00
H646   H     0.96970   0.42065   0.45166   0.00000  Uiso   1.00
H647   H     0.69940   0.43215   0.49449   0.00000  Uiso   1.00
C648   C     0.94640   0.52524   0.04819   0.00000  Uiso   1.00
C649   C     0.96026   0.57040   0.04994   0.00000  Uiso   1.00
C650   C     0.99212   0.58140   0.07922   0.00000  Uiso   1.00
C651   C     0.67685   0.54740   0.10684   0.00000  Uiso   1.00
C652   C     0.99728   0.50224   0.10427   0.00000  Uiso   1.00
C653   C     0.96586   0.49092   0.07461   0.00000  Uiso   1.00
H654   H     0.94522   0.59730   0.03015   0.00000  Uiso   1.00
H655   H     0.66867   0.61648   0.08139   0.00000  Uiso   1.00
H656   H     0.70052   0.55595   0.13066   0.00000  Uiso   1.00
H657   H     0.67757   0.47635   0.12622   0.00000  Uiso   1.00
H658   H     0.95514   0.45601   0.07404   0.00000  Uiso   1.00
H659   H     0.73090   0.49354   0.04117   0.00000  Uiso   1.00
H660   H     0.93571   0.52176   0.45945   0.00000  Uiso   1.00
H661   H     0.70441   0.43076   0.27607   0.00000  Uiso   1.00
H662   H     0.96229   0.56930   0.22223   0.00000  Uiso   1.00
H663   H     0.96349   0.43027   0.27434   0.00000  Uiso   1.00
H664   H     0.70354   0.56987   0.22360   0.00000  Uiso   1.00
C665   C     0.78771   0.38209   0.18245   0.00000  Uiso   1.00
C666   C     0.80014   0.38879   0.13758   0.00000  Uiso   1.00
C667   C     0.77118   0.39750   0.10361   0.00000  Uiso   1.00
C668   C     0.72978   0.40116   0.11416   0.00000  Uiso   1.00
C669   C     0.71720   0.39561   0.15869   0.00000  Uiso   1.00
C670   C     0.74593   0.38541   0.19256   0.00000  Uiso   1.00
H671   H     0.83202   0.38501   0.12871   0.00000  Uiso   1.00
H672   H     0.78085   0.40108   0.06904   0.00000  Uiso   1.00
H673   H     0.70743   0.40788   0.08775   0.00000  Uiso   1.00
H674   H     0.68502   0.39769   0.16679   0.00000  Uiso   1.00
H675   H     0.73545   0.37774   0.22630   0.00000  Uiso   1.00
C676   C     0.87893   0.61728   0.31710   0.00000  Uiso   1.00
C677   C     0.86776   0.61234   0.36249   0.00000  Uiso   1.00
C678   C     0.89774   0.60544   0.39575   0.00000  Uiso   1.00
C679   C     0.93882   0.60121   0.38395   0.00000  Uiso   1.00
C680   C     0.95007   0.60474   0.33886   0.00000  Uiso   1.00
C681   C     0.92037   0.61320   0.30568   0.00000  Uiso   1.00
H682   H     0.83618   0.61685   0.37228   0.00000  Uiso   1.00
H683   H     0.88910   0.60382   0.43074   0.00000  Uiso   1.00
H684   H     0.96195   0.59598   0.40980   0.00000  Uiso   1.00
H685   H     0.98201   0.60307   0.32970   0.00000  Uiso   1.00
H686   H     0.92993   0.62002   0.27146   0.00000  Uiso   1.00
C687   C     0.86222   0.37719   0.32743   0.00000  Uiso   1.00
C688   C     0.90398   0.38214   0.33662   0.00000  Uiso   1.00
C689   C     0.91748   0.38709   0.38064   0.00000  Uiso   1.00
C690   C     0.88935   0.39039   0.41554   0.00000  Uiso   1.00
C691   C     0.84751   0.38698   0.40652   0.00000  Uiso   1.00
C692   C     0.83395   0.37940   0.36279   0.00000  Uiso   1.00
H693   H     0.92617   0.37694   0.31057   0.00000  Uiso   1.00
H694   H     0.94993   0.38619   0.38754   0.00000  Uiso   1.00
H695   H     0.89989   0.39442   0.44968   0.00000  Uiso   1.00
H696   H     0.82572   0.38867   0.43360   0.00000  Uiso   1.00
H697   H     0.80168   0.37376   0.35660   0.00000  Uiso   1.00
C698   C     0.81500   0.62470   0.16897   0.00000  Uiso   1.00
C699   C     0.85021   0.62516   0.14198   0.00000  Uiso   1.00
C700   C     0.84705   0.61783   0.09599   0.00000  Uiso   1.00
C701   C     0.80881   0.61034   0.07649   0.00000  Uiso   1.00
C702   C     0.77381   0.60908   0.10312   0.00000  Uiso   1.00
C703   C     0.77673   0.61579   0.14937   0.00000  Uiso   1.00
H704   H     0.87982   0.63302   0.15633   0.00000  Uiso   1.00
H705   H     0.87416   0.61873   0.07535   0.00000  Uiso   1.00
H706   H     0.80629   0.60535   0.04074   0.00000  Uiso   1.00
H707   H     0.74439   0.60405   0.08745   0.00000  Uiso   1.00
H708   H     0.74919   0.61678   0.16927   0.00000  Uiso   1.00
C709   C     0.08759   0.83344   0.24993   0.00000  Uiso   1.00
C710   C     0.24577   0.83329   0.24963   0.00000  Uiso   1.00
C711   C     0.09286   0.82872   0.02309   0.00000  Uiso   1.00
C712   C     0.24090   0.84856   0.47733   0.00000  Uiso   1.00
C713   C     0.02160   0.79441   0.26392   0.00000  Uiso   1.00
C714   C     0.31182   0.87244   0.23457   0.00000  Uiso   1.00
C715   C     0.31244   0.79419   0.26327   0.00000  Uiso   1.00
C716   C     0.02107   0.87269   0.23513   0.00000  Uiso   1.00
C717   C     0.29056   0.83328   0.24906   0.00000  Uiso   1.00
C718   C     0.04287   0.83360   0.24975   0.00000  Uiso   1.00
C719   C     0.14870   0.69240   0.21584   0.00000  Uiso   1.00
C720   C     0.18429   0.97409   0.28436   0.00000  Uiso   1.00
C721   C     0.18263   0.68980   0.28525   0.00000  Uiso   1.00
C722   C     0.15168   0.97691   0.21419   0.00000  Uiso   1.00
C723   C     0.16605   0.83398   0.16488   0.00000  Uiso   1.00
C724   C     0.16791   0.83269   0.33526   0.00000  Uiso   1.00
C725   C     0.20469   0.83893   0.40690   0.00000  Uiso   1.00
C726   C     0.12938   0.83264   0.09341   0.00000  Uiso   1.00
C727   C     0.16843   0.83126   0.38364   0.00000  Uiso   1.00
C728   C     0.16611   0.83570   0.11682   0.00000  Uiso   1.00
C729   C     0.13195   0.82423   0.40623   0.00000  Uiso   1.00
C730   C     0.20304   0.84141   0.09467   0.00000  Uiso   1.00
C731   C     0.13016   0.82887   0.45286   0.00000  Uiso   1.00
C732   C     0.20419   0.84200   0.04770   0.00000  Uiso   1.00
C733   C     0.16725   0.83530   0.47675   0.00000  Uiso   1.00
C734   C     0.16705   0.83655   0.02369   0.00000  Uiso   1.00
C735   C     0.20458   0.84050   0.45362   0.00000  Uiso   1.00
C736   C     0.12959   0.83260   0.04676   0.00000  Uiso   1.00
C737   C     0.09259   0.82709   0.47628   0.00000  Uiso   1.00
C738   C     0.24118   0.84874   0.02420   0.00000  Uiso   1.00
Cu739  Cu    0.16667   0.88022   0.25000   0.00000  Uiso   1.00
Cu740  Cu    0.16667   0.78645   0.25000   0.00000  Uiso   1.00
H741   H     0.23262   0.84436   0.38836   0.00000  Uiso   1.00
H742   H     0.10083   0.82978   0.11164   0.00000  Uiso   1.00
N743   N     0.16667   0.95069   0.25000   0.00000  Uiso   1.00
N744   N     0.16667   0.71598   0.25000   0.00000  Uiso   1.00
O745   O     0.10655   0.87291   0.24999   0.00000  Uiso   1.00
O746   O     0.22679   0.79375   0.25000   0.00000  Uiso   1.00
O747   O     0.22679   0.87291   0.25000   0.00000  Uiso   1.00
O748   O     0.10655   0.79375   0.24999   0.00000  Uiso   1.00
O749   O     0.16666   0.87293   0.18513   0.00000  Uiso   1.00
O750   O     0.16668   0.79373   0.31487   0.00000  Uiso   1.00
O751   O     0.16668   0.87293   0.31487   0.00000  Uiso   1.00
O752   O     0.16666   0.79373   0.18513   0.00000  Uiso   1.00
H753   H     0.10529   0.81567   0.38660   0.00000  Uiso   1.00
H754   H     0.23044   0.84563   0.11470   0.00000  Uiso   1.00
C755   C     0.05270   0.82301   0.45297   0.00000  Uiso   1.00
C756   C     0.04214   0.85256   0.41659   0.00000  Uiso   1.00
C757   C     0.00784   0.84357   0.39029   0.00000  Uiso   1.00
C758   C     0.31543   0.80756   0.40225   0.00000  Uiso   1.00
C759   C     0.32358   0.78085   0.44104   0.00000  Uiso   1.00
C760   C     0.02575   0.78801   0.46592   0.00000  Uiso   1.00
H761   H     0.06181   0.88081   0.40698   0.00000  Uiso   1.00
H762   H     0.00157   0.86399   0.36025   0.00000  Uiso   1.00
H763   H     0.28911   0.80089   0.38151   0.00000  Uiso   1.00
H764   H     0.30303   0.75398   0.45166   0.00000  Uiso   1.00
H765   H     0.03273   0.76549   0.49449   0.00000  Uiso   1.00
C766   C     0.27973   0.85857   0.04819   0.00000  Uiso   1.00
C767   C     0.29359   0.90374   0.04994   0.00000  Uiso   1.00
C768   C     0.32545   0.91473   0.07922   0.00000  Uiso   1.00
C769   C     0.01018   0.88073   0.10684   0.00000  Uiso   1.00
C770   C     0.33061   0.83557   0.10427   0.00000  Uiso   1.00
C771   C     0.29919   0.82425   0.07461   0.00000  Uiso   1.00
H772   H     0.27856   0.93063   0.03015   0.00000  Uiso   1.00
H773   H     0.00200   0.94981   0.08139   0.00000  Uiso   1.00
H774   H     0.03386   0.88929   0.13066   0.00000  Uiso   1.00
H775   H     0.01090   0.80968   0.12622   0.00000  Uiso   1.00
H776   H     0.28847   0.78935   0.07404   0.00000  Uiso   1.00
H777   H     0.06423   0.82688   0.04117   0.00000  Uiso   1.00
H778   H     0.26904   0.85510   0.45945   0.00000  Uiso   1.00
H779   H     0.03775   0.76409   0.27607   0.00000  Uiso   1.00
H780   H     0.29562   0.90263   0.22223   0.00000  Uiso   1.00
H781   H     0.29682   0.76361   0.27434   0.00000  Uiso   1.00
H782   H     0.03687   0.90320   0.22360   0.00000  Uiso   1.00
C783   C     0.12105   0.71543   0.18245   0.00000  Uiso   1.00
C784   C     0.13348   0.72212   0.13758   0.00000  Uiso   1.00
C785   C     0.10451   0.73083   0.10361   0.00000  Uiso   1.00
C786   C     0.06311   0.73449   0.11416   0.00000  Uiso   1.00
C787   C     0.05053   0.72894   0.15869   0.00000  Uiso   1.00
C788   C     0.07926   0.71875   0.19256   0.00000  Uiso   1.00
H789   H     0.16536   0.71835   0.12871   0.00000  Uiso   1.00
H790   H     0.11418   0.73442   0.06904   0.00000  Uiso   1.00
H791   H     0.04076   0.74121   0.08775   0.00000  Uiso   1.00
H792   H     0.01835   0.73103   0.16679   0.00000  Uiso   1.00
H793   H     0.06878   0.71107   0.22630   0.00000  Uiso   1.00
C794   C     0.21227   0.95061   0.31710   0.00000  Uiso   1.00
C795   C     0.20109   0.94567   0.36249   0.00000  Uiso   1.00
C796   C     0.23107   0.93877   0.39575   0.00000  Uiso   1.00
C797   C     0.27215   0.93454   0.38395   0.00000  Uiso   1.00
C798   C     0.28340   0.93807   0.33886   0.00000  Uiso   1.00
C799   C     0.25370   0.94653   0.30568   0.00000  Uiso   1.00
H800   H     0.16951   0.95019   0.37228   0.00000  Uiso   1.00
H801   H     0.22244   0.93715   0.43074   0.00000  Uiso   1.00
H802   H     0.29529   0.92932   0.40980   0.00000  Uiso   1.00
H803   H     0.31534   0.93640   0.32970   0.00000  Uiso   1.00
H804   H     0.26326   0.95335   0.27146   0.00000  Uiso   1.00
C805   C     0.19555   0.71052   0.32743   0.00000  Uiso   1.00
C806   C     0.23731   0.71547   0.33662   0.00000  Uiso   1.00
C807   C     0.25081   0.72042   0.38064   0.00000  Uiso   1.00
C808   C     0.22269   0.72373   0.41554   0.00000  Uiso   1.00
C809   C     0.18085   0.72031   0.40652   0.00000  Uiso   1.00
C810   C     0.16728   0.71273   0.36279   0.00000  Uiso   1.00
H811   H     0.25950   0.71028   0.31057   0.00000  Uiso   1.00
H812   H     0.28326   0.71953   0.38754   0.00000  Uiso   1.00
H813   H     0.23323   0.72775   0.44968   0.00000  Uiso   1.00
H814   H     0.15906   0.72201   0.43360   0.00000  Uiso   1.00
H815   H     0.13502   0.70709   0.35660   0.00000  Uiso   1.00
C816   C     0.14834   0.95803   0.16897   0.00000  Uiso   1.00
C817   C     0.18354   0.95849   0.14198   0.00000  Uiso   1.00
C818   C     0.18039   0.95116   0.09599   0.00000  Uiso   1.00
C819   C     0.14214   0.94367   0.07649   0.00000  Uiso   1.00
C820   C     0.10714   0.94241   0.10312   0.00000  Uiso   1.00
C821   C     0.11007   0.94913   0.14937   0.00000  Uiso   1.00
H822   H     0.21315   0.96635   0.15633   0.00000  Uiso   1.00
H823   H     0.20749   0.95206   0.07535   0.00000  Uiso   1.00
H824   H     0.13962   0.93868   0.04074   0.00000  Uiso   1.00
H825   H     0.07772   0.93738   0.08745   0.00000  Uiso   1.00
H826   H     0.08252   0.95012   0.16927   0.00000  Uiso   1.00
C827   C     0.42093   0.83344   0.24993   0.00000  Uiso   1.00
C828   C     0.57910   0.83329   0.24963   0.00000  Uiso   1.00
C829   C     0.42620   0.82872   0.02309   0.00000  Uiso   1.00
C830   C     0.57423   0.84856   0.47733   0.00000  Uiso   1.00
C831   C     0.35493   0.79441   0.26392   0.00000  Uiso   1.00
C832   C     0.64516   0.87244   0.23457   0.00000  Uiso   1.00
C833   C     0.64578   0.79419   0.26327   0.00000  Uiso   1.00
C834   C     0.35440   0.87269   0.23513   0.00000  Uiso   1.00
C835   C     0.62389   0.83328   0.24906   0.00000  Uiso   1.00
C836   C     0.37620   0.83360   0.24975   0.00000  Uiso   1.00
C837   C     0.48203   0.69240   0.21584   0.00000  Uiso   1.00
C838   C     0.51763   0.97409   0.28436   0.00000  Uiso   1.00
C839   C     0.51597   0.68980   0.28525   0.00000  Uiso   1.00
C840   C     0.48502   0.97691   0.21419   0.00000  Uiso   1.00
C841   C     0.49938   0.83398   0.16488   0.00000  Uiso   1.00
C842   C     0.50125   0.83269   0.33526   0.00000  Uiso   1.00
C843   C     0.53802   0.83893   0.40690   0.00000  Uiso   1.00
C844   C     0.46271   0.83264   0.09341   0.00000  Uiso   1.00
C845   C     0.50177   0.83126   0.38364   0.00000  Uiso   1.00
C846   C     0.49944   0.83570   0.11682   0.00000  Uiso   1.00
C847   C     0.46528   0.82423   0.40623   0.00000  Uiso   1.00
C848   C     0.53637   0.84141   0.09467   0.00000  Uiso   1.00
C849   C     0.46350   0.82887   0.45286   0.00000  Uiso   1.00
C850   C     0.53752   0.84200   0.04770   0.00000  Uiso   1.00
C851   C     0.50059   0.83530   0.47675   0.00000  Uiso   1.00
C852   C     0.50038   0.83655   0.02369   0.00000  Uiso   1.00
C853   C     0.53792   0.84050   0.45362   0.00000  Uiso   1.00
C854   C     0.46292   0.83260   0.04676   0.00000  Uiso   1.00
C855   C     0.42592   0.82709   0.47628   0.00000  Uiso   1.00
C856   C     0.57451   0.84874   0.02420   0.00000  Uiso   1.00
Cu857  Cu    0.50000   0.88022   0.25000   0.00000  Uiso   1.00
Cu858  Cu    0.50000   0.78645   0.25000   0.00000  Uiso   1.00
H859   H     0.56595   0.84436   0.38836   0.00000  Uiso   1.00
H860   H     0.43417   0.82978   0.11164   0.00000  Uiso   1.00
N861   N     0.50000   0.95069   0.25000   0.00000  Uiso   1.00
N862   N     0.50000   0.71598   0.25000   0.00000  Uiso   1.00
O863   O     0.43988   0.87291   0.24999   0.00000  Uiso   1.00
O864   O     0.56012   0.79375   0.25000   0.00000  Uiso   1.00
O865   O     0.56012   0.87291   0.25000   0.00000  Uiso   1.00
O866   O     0.43988   0.79375   0.24999   0.00000  Uiso   1.00
O867   O     0.49999   0.87293   0.18513   0.00000  Uiso   1.00
O868   O     0.50001   0.79373   0.31487   0.00000  Uiso   1.00
O869   O     0.50001   0.87293   0.31487   0.00000  Uiso   1.00
O870   O     0.49999   0.79373   0.18513   0.00000  Uiso   1.00
H871   H     0.43863   0.81567   0.38660   0.00000  Uiso   1.00
H872   H     0.56378   0.84563   0.11470   0.00000  Uiso   1.00
C873   C     0.38603   0.82301   0.45297   0.00000  Uiso   1.00
C874   C     0.37547   0.85256   0.41659   0.00000  Uiso   1.00
C875   C     0.34118   0.84357   0.39029   0.00000  Uiso   1.00
C876   C     0.64877   0.80756   0.40225   0.00000  Uiso   1.00
C877   C     0.65691   0.78085   0.44104   0.00000  Uiso   1.00
C878   C     0.35908   0.78801   0.46592   0.00000  Uiso   1.00
H879   H     0.39514   0.88081   0.40698   0.00000  Uiso   1.00
H880   H     0.33490   0.86399   0.36025   0.00000  Uiso   1.00
H881   H     0.62245   0.80089   0.38151   0.00000  Uiso   1.00
H882   H     0.63636   0.75398   0.45166   0.00000  Uiso   1.00
H883   H     0.36607   0.76549   0.49449   0.00000  Uiso   1.00
C884   C     0.61307   0.85857   0.04819   0.00000  Uiso   1.00
C885   C     0.62692   0.90374   0.04994   0.00000  Uiso   1.00
C886   C     0.65878   0.91473   0.07922   0.00000  Uiso   1.00
C887   C     0.34352   0.88073   0.10684   0.00000  Uiso   1.00
C888   C     0.66394   0.83557   0.10427   0.00000  Uiso   1.00
C889   C     0.63253   0.82425   0.07461   0.00000  Uiso   1.00
H890   H     0.61189   0.93063   0.03015   0.00000  Uiso   1.00
H891   H     0.33533   0.94981   0.08139   0.00000  Uiso   1.00
H892   H     0.36719   0.88929   0.13066   0.00000  Uiso   1.00
H893   H     0.34423   0.80968   0.12622   0.00000  Uiso   1.00
H894   H     0.62181   0.78935   0.07404   0.00000  Uiso   1.00
H895   H     0.39756   0.82688   0.04117   0.00000  Uiso   1.00
H896   H     0.60238   0.85510   0.45945   0.00000  Uiso   1.00
H897   H     0.37108   0.76409   0.27607   0.00000  Uiso   1.00
H898   H     0.62895   0.90263   0.22223   0.00000  Uiso   1.00
H899   H     0.63015   0.76361   0.27434   0.00000  Uiso   1.00
H900   H     0.37020   0.90320   0.22360   0.00000  Uiso   1.00
C901   C     0.45438   0.71543   0.18245   0.00000  Uiso   1.00
C902   C     0.46681   0.72212   0.13758   0.00000  Uiso   1.00
C903   C     0.43785   0.73083   0.10361   0.00000  Uiso   1.00
C904   C     0.39644   0.73449   0.11416   0.00000  Uiso   1.00
C905   C     0.38386   0.72894   0.15869   0.00000  Uiso   1.00
C906   C     0.41260   0.71875   0.19256   0.00000  Uiso   1.00
H907   H     0.49869   0.71835   0.12871   0.00000  Uiso   1.00
H908   H     0.44752   0.73442   0.06904   0.00000  Uiso   1.00
H909   H     0.37410   0.74121   0.08775   0.00000  Uiso   1.00
H910   H     0.35169   0.73103   0.16679   0.00000  Uiso   1.00
H911   H     0.40211   0.71107   0.22630   0.00000  Uiso   1.00
C912   C     0.54560   0.95061   0.31710   0.00000  Uiso   1.00
C913   C     0.53442   0.94567   0.36249   0.00000  Uiso   1.00
C914   C     0.56440   0.93877   0.39575   0.00000  Uiso   1.00
C915   C     0.60548   0.93454   0.38395   0.00000  Uiso   1.00
C916   C     0.61674   0.93807   0.33886   0.00000  Uiso   1.00
C917   C     0.58703   0.94653   0.30568   0.00000  Uiso   1.00
H918   H     0.50285   0.95019   0.37228   0.00000  Uiso   1.00
H919   H     0.55577   0.93715   0.43074   0.00000  Uiso   1.00
H920   H     0.62862   0.92932   0.40980   0.00000  Uiso   1.00
H921   H     0.64867   0.93640   0.32970   0.00000  Uiso   1.00
H922   H     0.59659   0.95335   0.27146   0.00000  Uiso   1.00
C923   C     0.52888   0.71052   0.32743   0.00000  Uiso   1.00
C924   C     0.57064   0.71547   0.33662   0.00000  Uiso   1.00
C925   C     0.58415   0.72042   0.38064   0.00000  Uiso   1.00
C926   C     0.55602   0.72373   0.41554   0.00000  Uiso   1.00
C927   C     0.51418   0.72031   0.40652   0.00000  Uiso   1.00
C928   C     0.50062   0.71273   0.36279   0.00000  Uiso   1.00
H929   H     0.59283   0.71028   0.31057   0.00000  Uiso   1.00
H930   H     0.61659   0.71953   0.38754   0.00000  Uiso   1.00
H931   H     0.56656   0.72775   0.44968   0.00000  Uiso   1.00
H932   H     0.49239   0.72201   0.43360   0.00000  Uiso   1.00
H933   H     0.46835   0.70709   0.35660   0.00000  Uiso   1.00
C934   C     0.48167   0.95803   0.16897   0.00000  Uiso   1.00
C935   C     0.51687   0.95849   0.14198   0.00000  Uiso   1.00
C936   C     0.51372   0.95116   0.09599   0.00000  Uiso   1.00
C937   C     0.47548   0.94367   0.07649   0.00000  Uiso   1.00
C938   C     0.44048   0.94241   0.10312   0.00000  Uiso   1.00
C939   C     0.44340   0.94913   0.14937   0.00000  Uiso   1.00
H940   H     0.54649   0.96635   0.15633   0.00000  Uiso   1.00
H941   H     0.54083   0.95206   0.07535   0.00000  Uiso   1.00
H942   H     0.47295   0.93868   0.04074   0.00000  Uiso   1.00
H943   H     0.41106   0.93738   0.08745   0.00000  Uiso   1.00
H944   H     0.41585   0.95012   0.16927   0.00000  Uiso   1.00
C945   C     0.75426   0.83344   0.24993   0.00000  Uiso   1.00
C946   C     0.91243   0.83329   0.24963   0.00000  Uiso   1.00
C947   C     0.75953   0.82872   0.02309   0.00000  Uiso   1.00
C948   C     0.90756   0.84856   0.47733   0.00000  Uiso   1.00
C949   C     0.68827   0.79441   0.26392   0.00000  Uiso   1.00
C950   C     0.97849   0.87244   0.23457   0.00000  Uiso   1.00
C951   C     0.97911   0.79419   0.26327   0.00000  Uiso   1.00
C952   C     0.68773   0.87269   0.23513   0.00000  Uiso   1.00
C953   C     0.95722   0.83328   0.24906   0.00000  Uiso   1.00
C954   C     0.70953   0.83360   0.24975   0.00000  Uiso   1.00
C955   C     0.81536   0.69240   0.21584   0.00000  Uiso   1.00
C956   C     0.85096   0.97409   0.28436   0.00000  Uiso   1.00
C957   C     0.84930   0.68980   0.28525   0.00000  Uiso   1.00
C958   C     0.81835   0.97691   0.21419   0.00000  Uiso   1.00
C959   C     0.83272   0.83398   0.16488   0.00000  Uiso   1.00
C960   C     0.83458   0.83269   0.33526   0.00000  Uiso   1.00
C961   C     0.87135   0.83893   0.40690   0.00000  Uiso   1.00
C962   C     0.79604   0.83264   0.09341   0.00000  Uiso   1.00
C963   C     0.83510   0.83126   0.38364   0.00000  Uiso   1.00
C964   C     0.83278   0.83570   0.11682   0.00000  Uiso   1.00
C965   C     0.79862   0.82423   0.40623   0.00000  Uiso   1.00
C966   C     0.86970   0.84141   0.09467   0.00000  Uiso   1.00
C967   C     0.79683   0.82887   0.45286   0.00000  Uiso   1.00
C968   C     0.87085   0.84200   0.04770   0.00000  Uiso   1.00
C969   C     0.83392   0.83530   0.47675   0.00000  Uiso   1.00
C970   C     0.83371   0.83655   0.02369   0.00000  Uiso   1.00
C971   C     0.87125   0.84050   0.45362   0.00000  Uiso   1.00
C972   C     0.79626   0.83260   0.04676   0.00000  Uiso   1.00
C973   C     0.75925   0.82709   0.47628   0.00000  Uiso   1.00
C974   C     0.90784   0.84874   0.02420   0.00000  Uiso   1.00
Cu975  Cu    0.83333   0.88022   0.25000   0.00000  Uiso   1.00
Cu976  Cu    0.83333   0.78645   0.25000   0.00000  Uiso   1.00
H977   H     0.89929   0.84436   0.38836   0.00000  Uiso   1.00
H978   H     0.76750   0.82978   0.11164   0.00000  Uiso   1.00
N979   N     0.83333   0.95069   0.25000   0.00000  Uiso   1.00
N980   N     0.83333   0.71598   0.25000   0.00000  Uiso   1.00
O981   O     0.77321   0.87291   0.24999   0.00000  Uiso   1.00
O982   O     0.89345   0.79375   0.25000   0.00000  Uiso   1.00
O983   O     0.89345   0.87291   0.25000   0.00000  Uiso   1.00
O984   O     0.77321   0.79375   0.24999   0.00000  Uiso   1.00
O985   O     0.83332   0.87293   0.18513   0.00000  Uiso   1.00
O986   O     0.83334   0.79373   0.31487   0.00000  Uiso   1.00
O987   O     0.83334   0.87293   0.31487   0.00000  Uiso   1.00
O988   O     0.83332   0.79373   0.18513   0.00000  Uiso   1.00
H989   H     0.77196   0.81567   0.38660   0.00000  Uiso   1.00
H990   H     0.89711   0.84563   0.11470   0.00000  Uiso   1.00
C991   C     0.71937   0.82301   0.45297   0.00000  Uiso   1.00
C992   C     0.70881   0.85256   0.41659   0.00000  Uiso   1.00
C993   C     0.67451   0.84357   0.39029   0.00000  Uiso   1.00
C994   C     0.98210   0.80756   0.40225   0.00000  Uiso   1.00
C995   C     0.99024   0.78085   0.44104   0.00000  Uiso   1.00
C996   C     0.69241   0.78801   0.46592   0.00000  Uiso   1.00
H997   H     0.72848   0.88081   0.40698   0.00000  Uiso   1.00
H998   H     0.66824   0.86399   0.36025   0.00000  Uiso   1.00
H999   H     0.95578   0.80089   0.38151   0.00000  Uiso   1.00
H1000  H     0.96970   0.75398   0.45166   0.00000  Uiso   1.00
H1001  H     0.69940   0.76549   0.49449   0.00000  Uiso   1.00
C1002  C     0.94640   0.85857   0.04819   0.00000  Uiso   1.00
C1003  C     0.96026   0.90374   0.04994   0.00000  Uiso   1.00
C1004  C     0.99212   0.91473   0.07922   0.00000  Uiso   1.00
C1005  C     0.67685   0.88073   0.10684   0.00000  Uiso   1.00
C1006  C     0.99728   0.83557   0.10427   0.00000  Uiso   1.00
C1007  C     0.96586   0.82425   0.07461   0.00000  Uiso   1.00
H1008  H     0.94522   0.93063   0.03015   0.00000  Uiso   1.00
H1009  H     0.66867   0.94981   0.08139   0.00000  Uiso   1.00
H1010  H     0.70052   0.88929   0.13066   0.00000  Uiso   1.00
H1011  H     0.67757   0.80968   0.12622   0.00000  Uiso   1.00
H1012  H     0.95514   0.78935   0.07404   0.00000  Uiso   1.00
H1013  H     0.73090   0.82688   0.04117   0.00000  Uiso   1.00
H1014  H     0.93571   0.85510   0.45945   0.00000  Uiso   1.00
H1015  H     0.70441   0.76409   0.27607   0.00000  Uiso   1.00
H1016  H     0.96229   0.90263   0.22223   0.00000  Uiso   1.00
H1017  H     0.96349   0.76361   0.27434   0.00000  Uiso   1.00
H1018  H     0.70354   0.90320   0.22360   0.00000  Uiso   1.00
C1019  C     0.78771   0.71543   0.18245   0.00000  Uiso   1.00
C1020  C     0.80014   0.72212   0.13758   0.00000  Uiso   1.00
C1021  C     0.77118   0.73083   0.10361   0.00000  Uiso   1.00
C1022  C     0.72978   0.73449   0.11416   0.00000  Uiso   1.00
C1023  C     0.71720   0.72894   0.15869   0.00000  Uiso   1.00
C1024  C     0.74593   0.71875   0.19256   0.00000  Uiso   1.00
H1025  H     0.83202   0.71835   0.12871   0.00000  Uiso   1.00
H1026  H     0.78085   0.73442   0.06904   0.00000  Uiso   1.00
H1027  H     0.70743   0.74121   0.08775   0.00000  Uiso   1.00
H1028  H     0.68502   0.73103   0.16679   0.00000  Uiso   1.00
H1029  H     0.73545   0.71107   0.22630   0.00000  Uiso   1.00
C1030  C     0.87893   0.95061   0.31710   0.00000  Uiso   1.00
C1031  C     0.86776   0.94567   0.36249   0.00000  Uiso   1.00
C1032  C     0.89774   0.93877   0.39575   0.00000  Uiso   1.00
C1033  C     0.93882   0.93454   0.38395   0.00000  Uiso   1.00
C1034  C     0.95007   0.93807   0.33886   0.00000  Uiso   1.00
C1035  C     0.92037   0.94653   0.30568   0.00000  Uiso   1.00
H1036  H     0.83618   0.95019   0.37228   0.00000  Uiso   1.00
H1037  H     0.88910   0.93715   0.43074   0.00000  Uiso   1.00
H1038  H     0.96195   0.92932   0.40980   0.00000  Uiso   1.00
H1039  H     0.98201   0.93640   0.32970   0.00000  Uiso   1.00
H1040  H     0.92993   0.95335   0.27146   0.00000  Uiso   1.00
C1041  C     0.86222   0.71052   0.32743   0.00000  Uiso   1.00
C1042  C     0.90398   0.71547   0.33662   0.00000  Uiso   1.00
C1043  C     0.91748   0.72042   0.38064   0.00000  Uiso   1.00
C1044  C     0.88935   0.72373   0.41554   0.00000  Uiso   1.00
C1045  C     0.84751   0.72031   0.40652   0.00000  Uiso   1.00
C1046  C     0.83395   0.71273   0.36279   0.00000  Uiso   1.00
H1047  H     0.92617   0.71028   0.31057   0.00000  Uiso   1.00
H1048  H     0.94993   0.71953   0.38754   0.00000  Uiso   1.00
H1049  H     0.89989   0.72775   0.44968   0.00000  Uiso   1.00
H1050  H     0.82572   0.72201   0.43360   0.00000  Uiso   1.00
H1051  H     0.80168   0.70709   0.35660   0.00000  Uiso   1.00
C1052  C     0.81500   0.95803   0.16897   0.00000  Uiso   1.00
C1053  C     0.85021   0.95849   0.14198   0.00000  Uiso   1.00
C1054  C     0.84705   0.95116   0.09599   0.00000  Uiso   1.00
C1055  C     0.80881   0.94367   0.07649   0.00000  Uiso   1.00
C1056  C     0.77381   0.94241   0.10312   0.00000  Uiso   1.00
C1057  C     0.77673   0.94913   0.14937   0.00000  Uiso   1.00
H1058  H     0.87982   0.96635   0.15633   0.00000  Uiso   1.00
H1059  H     0.87416   0.95206   0.07535   0.00000  Uiso   1.00
H1060  H     0.80629   0.93868   0.04074   0.00000  Uiso   1.00
H1061  H     0.74439   0.93738   0.08745   0.00000  Uiso   1.00
H1062  H     0.74919   0.95012   0.16927   0.00000  Uiso   1.00
C1063  C     0.08759   0.16677   0.74993   0.00000  Uiso   1.00
C1064  C     0.24577   0.16662   0.74963   0.00000  Uiso   1.00
C1065  C     0.09286   0.16205   0.52309   0.00000  Uiso   1.00
C1066  C     0.24090   0.18190   0.97733   0.00000  Uiso   1.00
C1067  C     0.02160   0.12774   0.76392   0.00000  Uiso   1.00
C1068  C     0.31182   0.20578   0.73457   0.00000  Uiso   1.00
C1069  C     0.31244   0.12752   0.76327   0.00000  Uiso   1.00
C1070  C     0.02107   0.20603   0.73513   0.00000  Uiso   1.00
C1071  C     0.29056   0.16662   0.74906   0.00000  Uiso   1.00
C1072  C     0.04287   0.16693   0.74975   0.00000  Uiso   1.00
C1073  C     0.14870   0.02573   0.71584   0.00000  Uiso   1.00
C1074  C     0.18429   0.30742   0.78436   0.00000  Uiso   1.00
C1075  C     0.18263   0.02313   0.78525   0.00000  Uiso   1.00
C1076  C     0.15168   0.31024   0.71419   0.00000  Uiso   1.00
C1077  C     0.16605   0.16732   0.66488   0.00000  Uiso   1.00
C1078  C     0.16791   0.16602   0.83526   0.00000  Uiso   1.00
C1079  C     0.20469   0.17226   0.90690   0.00000  Uiso   1.00
C1080  C     0.12938   0.16597   0.59341   0.00000  Uiso   1.00
C1081  C     0.16843   0.16459   0.88364   0.00000  Uiso   1.00
C1082  C     0.16611   0.16903   0.61682   0.00000  Uiso   1.00
C1083  C     0.13195   0.15757   0.90623   0.00000  Uiso   1.00
C1084  C     0.20304   0.17475   0.59467   0.00000  Uiso   1.00
C1085  C     0.13016   0.16221   0.95286   0.00000  Uiso   1.00
C1086  C     0.20419   0.17534   0.54770   0.00000  Uiso   1.00
C1087  C     0.16725   0.16863   0.97675   0.00000  Uiso   1.00
C1088  C     0.16705   0.16988   0.52369   0.00000  Uiso   1.00
C1089  C     0.20458   0.17383   0.95362   0.00000  Uiso   1.00
C1090  C     0.12959   0.16593   0.54676   0.00000  Uiso   1.00
C1091  C     0.09259   0.16043   0.97628   0.00000  Uiso   1.00
C1092  C     0.24118   0.18207   0.52420   0.00000  Uiso   1.00
Cu1093 Cu    0.16667   0.21355   0.75000   0.00000  Uiso   1.00
Cu1094 Cu    0.16667   0.11978   0.75000   0.00000  Uiso   1.00
H1095  H     0.23262   0.17770   0.88836   0.00000  Uiso   1.00
H1096  H     0.10083   0.16312   0.61164   0.00000  Uiso   1.00
N1097  N     0.16667   0.28402   0.75000   0.00000  Uiso   1.00
N1098  N     0.16667   0.04931   0.75000   0.00000  Uiso   1.00
O1099  O     0.10655   0.20625   0.74999   0.00000  Uiso   1.00
O1100  O     0.22679   0.12709   0.75000   0.00000  Uiso   1.00
O1101  O     0.22679   0.20625   0.75000   0.00000  Uiso   1.00
O1102  O     0.10655   0.12709   0.74999   0.00000  Uiso   1.00
O1103  O     0.16666   0.20627   0.68513   0.00000  Uiso   1.00
O1104  O     0.16668   0.12707   0.81487   0.00000  Uiso   1.00
O1105  O     0.16668   0.20627   0.81487   0.00000  Uiso   1.00
O1106  O     0.16666   0.12707   0.68513   0.00000  Uiso   1.00
H1107  H     0.10529   0.14901   0.88660   0.00000  Uiso   1.00
H1108  H     0.23044   0.17896   0.61470   0.00000  Uiso   1.00
C1109  C     0.05270   0.15634   0.95297   0.00000  Uiso   1.00
C1110  C     0.04214   0.18590   0.91659   0.00000  Uiso   1.00
C1111  C     0.00784   0.17690   0.89029   0.00000  Uiso   1.00
C1112  C     0.31543   0.14090   0.90225   0.00000  Uiso   1.00
C1113  C     0.32358   0.11419   0.94104   0.00000  Uiso   1.00
C1114  C     0.02575   0.12134   0.96592   0.00000  Uiso   1.00
H1115  H     0.06181   0.21414   0.90698   0.00000  Uiso   1.00
H1116  H     0.00157   0.19733   0.86025   0.00000  Uiso   1.00
H1117  H     0.28911   0.13423   0.88151   0.00000  Uiso   1.00
H1118  H     0.30303   0.08732   0.95166   0.00000  Uiso   1.00
H1119  H     0.03273   0.09882   0.99449   0.00000  Uiso   1.00
C1120  C     0.27973   0.19190   0.54819   0.00000  Uiso   1.00
C1121  C     0.29359   0.23707   0.54994   0.00000  Uiso   1.00
C1122  C     0.32545   0.24807   0.57922   0.00000  Uiso   1.00
C1123  C     0.01018   0.21407   0.60684   0.00000  Uiso   1.00
C1124  C     0.33061   0.16891   0.60427   0.00000  Uiso   1.00
C1125  C     0.29919   0.15758   0.57461   0.00000  Uiso   1.00
H1126  H     0.27856   0.26396   0.53015   0.00000  Uiso   1.00
H1127  H     0.00200   0.28314   0.58139   0.00000  Uiso   1.00
H1128  H     0.03386   0.22262   0.63066   0.00000  Uiso   1.00
H1129  H     0.01090   0.14301   0.62622   0.00000  Uiso   1.00
H1130  H     0.28847   0.12268   0.57404   0.00000  Uiso   1.00
H1131  H     0.06423   0.16021   0.54117   0.00000  Uiso   1.00
H1132  H     0.26904   0.18843   0.95945   0.00000  Uiso   1.00
H1133  H     0.03775   0.09742   0.77607   0.00000  Uiso   1.00
H1134  H     0.29562   0.23597   0.72223   0.00000  Uiso   1.00
H1135  H     0.29682   0.09694   0.77434   0.00000  Uiso   1.00
H1136  H     0.03687   0.23654   0.72360   0.00000  Uiso   1.00
C1137  C     0.12105   0.04876   0.68245   0.00000  Uiso   1.00
C1138  C     0.13348   0.05546   0.63758   0.00000  Uiso   1.00
C1139  C     0.10451   0.06416   0.60361   0.00000  Uiso   1.00
C1140  C     0.06311   0.06782   0.61416   0.00000  Uiso   1.00
C1141  C     0.05053   0.06227   0.65869   0.00000  Uiso   1.00
C1142  C     0.07926   0.05208   0.69256   0.00000  Uiso   1.00
H1143  H     0.16536   0.05168   0.62871   0.00000  Uiso   1.00
H1144  H     0.11418   0.06775   0.56904   0.00000  Uiso   1.00
H1145  H     0.04076   0.07455   0.58775   0.00000  Uiso   1.00
H1146  H     0.01835   0.06436   0.66679   0.00000  Uiso   1.00
H1147  H     0.06878   0.04440   0.72630   0.00000  Uiso   1.00
C1148  C     0.21227   0.28395   0.81710   0.00000  Uiso   1.00
C1149  C     0.20109   0.27901   0.86249   0.00000  Uiso   1.00
C1150  C     0.23107   0.27211   0.89575   0.00000  Uiso   1.00
C1151  C     0.27215   0.26787   0.88395   0.00000  Uiso   1.00
C1152  C     0.28340   0.27140   0.83886   0.00000  Uiso   1.00
C1153  C     0.25370   0.27987   0.80568   0.00000  Uiso   1.00
H1154  H     0.16951   0.28352   0.87228   0.00000  Uiso   1.00
H1155  H     0.22244   0.27049   0.93074   0.00000  Uiso   1.00
H1156  H     0.29529   0.26265   0.90980   0.00000  Uiso   1.00
H1157  H     0.31534   0.26973   0.82970   0.00000  Uiso   1.00
H1158  H     0.26326   0.28669   0.77146   0.00000  Uiso   1.00
C1159  C     0.19555   0.04385   0.82743   0.00000  Uiso   1.00
C1160  C     0.23731   0.04881   0.83662   0.00000  Uiso   1.00
C1161  C     0.25081   0.05375   0.88064   0.00000  Uiso   1.00
C1162  C     0.22269   0.05706   0.91554   0.00000  Uiso   1.00
C1163  C     0.18085   0.05364   0.90652   0.00000  Uiso   1.00
C1164  C     0.16728   0.04607   0.86279   0.00000  Uiso   1.00
H1165  H     0.25950   0.04361   0.81057   0.00000  Uiso   1.00
H1166  H     0.28326   0.05286   0.88754   0.00000  Uiso   1.00
H1167  H     0.23323   0.06108   0.94968   0.00000  Uiso   1.00
H1168  H     0.15906   0.05534   0.93360   0.00000  Uiso   1.00
H1169  H     0.13502   0.04043   0.85660   0.00000  Uiso   1.00
C1170  C     0.14834   0.29137   0.66897   0.00000  Uiso   1.00
C1171  C     0.18354   0.29182   0.64198   0.00000  Uiso   1.00
C1172  C     0.18039   0.28449   0.59599   0.00000  Uiso   1.00
C1173  C     0.14214   0.27700   0.57649   0.00000  Uiso   1.00
C1174  C     0.10714   0.27574   0.60312   0.00000  Uiso   1.00
C1175  C     0.11007   0.28246   0.64937   0.00000  Uiso   1.00
H1176  H     0.21315   0.29968   0.65633   0.00000  Uiso   1.00
H1177  H     0.20749   0.28539   0.57535   0.00000  Uiso   1.00
H1178  H     0.13962   0.27202   0.54074   0.00000  Uiso   1.00
H1179  H     0.07772   0.27072   0.58745   0.00000  Uiso   1.00
H1180  H     0.08252   0.28345   0.66927   0.00000  Uiso   1.00
C1181  C     0.42093   0.16677   0.74993   0.00000  Uiso   1.00
C1182  C     0.57910   0.16662   0.74963   0.00000  Uiso   1.00
C1183  C     0.42620   0.16205   0.52309   0.00000  Uiso   1.00
C1184  C     0.57423   0.18190   0.97733   0.00000  Uiso   1.00
C1185  C     0.35493   0.12774   0.76392   0.00000  Uiso   1.00
C1186  C     0.64516   0.20578   0.73457   0.00000  Uiso   1.00
C1187  C     0.64578   0.12752   0.76327   0.00000  Uiso   1.00
C1188  C     0.35440   0.20603   0.73513   0.00000  Uiso   1.00
C1189  C     0.62389   0.16662   0.74906   0.00000  Uiso   1.00
C1190  C     0.37620   0.16693   0.74975   0.00000  Uiso   1.00
C1191  C     0.48203   0.02573   0.71584   0.00000  Uiso   1.00
C1192  C     0.51763   0.30742   0.78436   0.00000  Uiso   1.00
C1193  C     0.51597   0.02313   0.78525   0.00000  Uiso   1.00
C1194  C     0.48502   0.31024   0.71419   0.00000  Uiso   1.00
C1195  C     0.49938   0.16732   0.66488   0.00000  Uiso   1.00
C1196  C     0.50125   0.16602   0.83526   0.00000  Uiso   1.00
C1197  C     0.53802   0.17226   0.90690   0.00000  Uiso   1.00
C1198  C     0.46271   0.16597   0.59341   0.00000  Uiso   1.00
C1199  C     0.50177   0.16459   0.88364   0.00000  Uiso   1.00
C1200  C     0.49944   0.16903   0.61682   0.00000  Uiso   1.00
C1201  C     0.46528   0.15757   0.90623   0.00000  Uiso   1.00
C1202  C     0.53637   0.17475   0.59467   0.00000  Uiso   1.00
C1203  C     0.46350   0.16221   0.95286   0.00000  Uiso   1.00
C1204  C     0.53752   0.17534   0.54770   0.00000  Uiso   1.00
C1205  C     0.50059   0.16863   0.97675   0.00000  Uiso   1.00
C1206  C     0.50038   0.16988   0.52369   0.00000  Uiso   1.00
C1207  C     0.53792   0.17383   0.95362   0.00000  Uiso   1.00
C1208  C     0.46292   0.16593   0.54676   0.00000  Uiso   1.00
C1209  C     0.42592   0.16043   0.97628   0.00000  Uiso   1.00
C1210  C     0.57451   0.18207   0.52420   0.00000  Uiso   1.00
Cu1211 Cu    0.50000   0.21355   0.75000   0.00000  Uiso   1.00
Cu1212 Cu    0.50000   0.11978   0.75000   0.00000  Uiso   1.00
H1213  H     0.56595   0.17770   0.88836   0.00000  Uiso   1.00
H1214  H     0.43417   0.16312   0.61164   0.00000  Uiso   1.00
N1215  N     0.50000   0.28402   0.75000   0.00000  Uiso   1.00
N1216  N     0.50000   0.04931   0.75000   0.00000  Uiso   1.00
O1217  O     0.43988   0.20625   0.74999   0.00000  Uiso   1.00
O1218  O     0.56012   0.12709   0.75000   0.00000  Uiso   1.00
O1219  O     0.56012   0.20625   0.75000   0.00000  Uiso   1.00
O1220  O     0.43988   0.12709   0.74999   0.00000  Uiso   1.00
O1221  O     0.49999   0.20627   0.68513   0.00000  Uiso   1.00
O1222  O     0.50001   0.12707   0.81487   0.00000  Uiso   1.00
O1223  O     0.50001   0.20627   0.81487   0.00000  Uiso   1.00
O1224  O     0.49999   0.12707   0.68513   0.00000  Uiso   1.00
H1225  H     0.43863   0.14901   0.88660   0.00000  Uiso   1.00
H1226  H     0.56378   0.17896   0.61470   0.00000  Uiso   1.00
C1227  C     0.38603   0.15634   0.95297   0.00000  Uiso   1.00
C1228  C     0.37547   0.18590   0.91659   0.00000  Uiso   1.00
C1229  C     0.34118   0.17690   0.89029   0.00000  Uiso   1.00
C1230  C     0.64877   0.14090   0.90225   0.00000  Uiso   1.00
C1231  C     0.65691   0.11419   0.94104   0.00000  Uiso   1.00
C1232  C     0.35908   0.12134   0.96592   0.00000  Uiso   1.00
H1233  H     0.39514   0.21414   0.90698   0.00000  Uiso   1.00
H1234  H     0.33490   0.19733   0.86025   0.00000  Uiso   1.00
H1235  H     0.62245   0.13423   0.88151   0.00000  Uiso   1.00
H1236  H     0.63636   0.08732   0.95166   0.00000  Uiso   1.00
H1237  H     0.36607   0.09882   0.99449   0.00000  Uiso   1.00
C1238  C     0.61307   0.19190   0.54819   0.00000  Uiso   1.00
C1239  C     0.62692   0.23707   0.54994   0.00000  Uiso   1.00
C1240  C     0.65878   0.24807   0.57922   0.00000  Uiso   1.00
C1241  C     0.34352   0.21407   0.60684   0.00000  Uiso   1.00
C1242  C     0.66394   0.16891   0.60427   0.00000  Uiso   1.00
C1243  C     0.63253   0.15758   0.57461   0.00000  Uiso   1.00
H1244  H     0.61189   0.26396   0.53015   0.00000  Uiso   1.00
H1245  H     0.33533   0.28314   0.58139   0.00000  Uiso   1.00
H1246  H     0.36719   0.22262   0.63066   0.00000  Uiso   1.00
H1247  H     0.34423   0.14301   0.62622   0.00000  Uiso   1.00
H1248  H     0.62181   0.12268   0.57404   0.00000  Uiso   1.00
H1249  H     0.39756   0.16021   0.54117   0.00000  Uiso   1.00
H1250  H     0.60238   0.18843   0.95945   0.00000  Uiso   1.00
H1251  H     0.37108   0.09742   0.77607   0.00000  Uiso   1.00
H1252  H     0.62895   0.23597   0.72223   0.00000  Uiso   1.00
H1253  H     0.63015   0.09694   0.77434   0.00000  Uiso   1.00
H1254  H     0.37020   0.23654   0.72360   0.00000  Uiso   1.00
C1255  C     0.45438   0.04876   0.68245   0.00000  Uiso   1.00
C1256  C     0.46681   0.05546   0.63758   0.00000  Uiso   1.00
C1257  C     0.43785   0.06416   0.60361   0.00000  Uiso   1.00
C1258  C     0.39644   0.06782   0.61416   0.00000  Uiso   1.00
C1259  C     0.38386   0.06227   0.65869   0.00000  Uiso   1.00
C1260  C     0.41260   0.05208   0.69256   0.00000  Uiso   1.00
H1261  H     0.49869   0.05168   0.62871   0.00000  Uiso   1.00
H1262  H     0.44752   0.06775   0.56904   0.00000  Uiso   1.00
H1263  H     0.37410   0.07455   0.58775   0.00000  Uiso   1.00
H1264  H     0.35169   0.06436   0.66679   0.00000  Uiso   1.00
H1265  H     0.40211   0.04440   0.72630   0.00000  Uiso   1.00
C1266  C     0.54560   0.28395   0.81710   0.00000  Uiso   1.00
C1267  C     0.53442   0.27901   0.86249   0.00000  Uiso   1.00
C1268  C     0.56440   0.27211   0.89575   0.00000  Uiso   1.00
C1269  C     0.60548   0.26787   0.88395   0.00000  Uiso   1.00
C1270  C     0.61674   0.27140   0.83886   0.00000  Uiso   1.00
C1271  C     0.58703   0.27987   0.80568   0.00000  Uiso   1.00
H1272  H     0.50285   0.28352   0.87228   0.00000  Uiso   1.00
H1273  H     0.55577   0.27049   0.93074   0.00000  Uiso   1.00
H1274  H     0.62862   0.26265   0.90980   0.00000  Uiso   1.00
H1275  H     0.64867   0.26973   0.82970   0.00000  Uiso   1.00
H1276  H     0.59659   0.28669   0.77146   0.00000  Uiso   1.00
C1277  C     0.52888   0.04385   0.82743   0.00000  Uiso   1.00
C1278  C     0.57064   0.04881   0.83662   0.00000  Uiso   1.00
C1279  C     0.58415   0.05375   0.88064   0.00000  Uiso   1.00
C1280  C     0.55602   0.05706   0.91554   0.00000  Uiso   1.00
C1281  C     0.51418   0.05364   0.90652   0.00000  Uiso   1.00
C1282  C     0.50062   0.04607   0.86279   0.00000  Uiso   1.00
H1283  H     0.59283   0.04361   0.81057   0.00000  Uiso   1.00
H1284  H     0.61659   0.05286   0.88754   0.00000  Uiso   1.00
H1285  H     0.56656   0.06108   0.94968   0.00000  Uiso   1.00
H1286  H     0.49239   0.05534   0.93360   0.00000  Uiso   1.00
H1287  H     0.46835   0.04043   0.85660   0.00000  Uiso   1.00
C1288  C     0.48167   0.29137   0.66897   0.00000  Uiso   1.00
C1289  C     0.51687   0.29182   0.64198   0.00000  Uiso   1.00
C1290  C     0.51372   0.28449   0.59599   0.00000  Uiso   1.00
C1291  C     0.47548   0.27700   0.57649   0.00000  Uiso   1.00
C1292  C     0.44048   0.27574   0.60312   0.00000  Uiso   1.00
C1293  C     0.44340   0.28246   0.64937   0.00000  Uiso   1.00
H1294  H     0.54649   0.29968   0.65633   0.00000  Uiso   1.00
H1295  H     0.54083   0.28539   0.57535   0.00000  Uiso   1.00
H1296  H     0.47295   0.27202   0.54074   0.00000  Uiso   1.00
H1297  H     0.41106   0.27072   0.58745   0.00000  Uiso   1.00
H1298  H     0.41585   0.28345   0.66927   0.00000  Uiso   1.00
C1299  C     0.75426   0.16677   0.74993   0.00000  Uiso   1.00
C1300  C     0.91243   0.16662   0.74963   0.00000  Uiso   1.00
C1301  C     0.75953   0.16205   0.52309   0.00000  Uiso   1.00
C1302  C     0.90756   0.18190   0.97733   0.00000  Uiso   1.00
C1303  C     0.68827   0.12774   0.76392   0.00000  Uiso   1.00
C1304  C     0.97849   0.20578   0.73457   0.00000  Uiso   1.00
C1305  C     0.97911   0.12752   0.76327   0.00000  Uiso   1.00
C1306  C     0.68773   0.20603   0.73513   0.00000  Uiso   1.00
C1307  C     0.95722   0.16662   0.74906   0.00000  Uiso   1.00
C1308  C     0.70953   0.16693   0.74975   0.00000  Uiso   1.00
C1309  C     0.81536   0.02573   0.71584   0.00000  Uiso   1.00
C1310  C     0.85096   0.30742   0.78436   0.00000  Uiso   1.00
C1311  C     0.84930   0.02313   0.78525   0.00000  Uiso   1.00
C1312  C     0.81835   0.31024   0.71419   0.00000  Uiso   1.00
C1313  C     0.83272   0.16732   0.66488   0.00000  Uiso   1.00
C1314  C     0.83458   0.16602   0.83526   0.00000  Uiso   1.00
C1315  C     0.87135   0.17226   0.90690   0.00000  Uiso   1.00
C1316  C     0.79604   0.16597   0.59341   0.00000  Uiso   1.00
C1317  C     0.83510   0.16459   0.88364   0.00000  Uiso   1.00
C1318  C     0.83278   0.16903   0.61682   0.00000  Uiso   1.00
C1319  C     0.79862   0.15757   0.90623   0.00000  Uiso   1.00
C1320  C     0.86970   0.17475   0.59467   0.00000  Uiso   1.00
C1321  C     0.79683   0.16221   0.95286   0.00000  Uiso   1.00
C1322  C     0.87085   0.17534   0.54770   0.00000  Uiso   1.00
C1323  C     0.83392   0.16863   0.97675   0.00000  Uiso   1.00
C1324  C     0.83371   0.16988   0.52369   0.00000  Uiso   1.00
C1325  C     0.87125   0.17383   0.95362   0.00000  Uiso   1.00
C1326  C     0.79626   0.16593   0.54676   0.00000  Uiso   1.00
C1327  C     0.75925   0.16043   0.97628   0.00000  Uiso   1.00
C1328  C     0.90784   0.18207   0.52420   0.00000  Uiso   1.00
Cu1329 Cu    0.83333   0.21355   0.75000   0.00000  Uiso   1.00
Cu1330 Cu    0.83333   0.11978   0.75000   0.00000  Uiso   1.00
H1331  H     0.89929   0.17770   0.88836   0.00000  Uiso   1.00
H1332  H     0.76750   0.16312   0.61164   0.00000  Uiso   1.00
N1333  N     0.83333   0.28402   0.75000   0.00000  Uiso   1.00
N1334  N     0.83333   0.04931   0.75000   0.00000  Uiso   1.00
O1335  O     0.77321   0.20625   0.74999   0.00000  Uiso   1.00
O1336  O     0.89345   0.12709   0.75000   0.00000  Uiso   1.00
O1337  O     0.89345   0.20625   0.75000   0.00000  Uiso   1.00
O1338  O     0.77321   0.12709   0.74999   0.00000  Uiso   1.00
O1339  O     0.83332   0.20627   0.68513   0.00000  Uiso   1.00
O1340  O     0.83334   0.12707   0.81487   0.00000  Uiso   1.00
O1341  O     0.83334   0.20627   0.81487   0.00000  Uiso   1.00
O1342  O     0.83332   0.12707   0.68513   0.00000  Uiso   1.00
H1343  H     0.77196   0.14901   0.88660   0.00000  Uiso   1.00
H1344  H     0.89711   0.17896   0.61470   0.00000  Uiso   1.00
C1345  C     0.71937   0.15634   0.95297   0.00000  Uiso   1.00
C1346  C     0.70881   0.18590   0.91659   0.00000  Uiso   1.00
C1347  C     0.67451   0.17690   0.89029   0.00000  Uiso   1.00
C1348  C     0.98210   0.14090   0.90225   0.00000  Uiso   1.00
C1349  C     0.99024   0.11419   0.94104   0.00000  Uiso   1.00
C1350  C     0.69241   0.12134   0.96592   0.00000  Uiso   1.00
H1351  H     0.72848   0.21414   0.90698   0.00000  Uiso   1.00
H1352  H     0.66824   0.19733   0.86025   0.00000  Uiso   1.00
H1353  H     0.95578   0.13423   0.88151   0.00000  Uiso   1.00
H1354  H     0.96970   0.08732   0.95166   0.00000  Uiso   1.00
H1355  H     0.69940   0.09882   0.99449   0.00000  Uiso   1.00
C1356  C     0.94640   0.19190   0.54819   0.00000  Uiso   1.00
C1357  C     0.96026   0.23707   0.54994   0.00000  Uiso   1.00
C1358  C     0.99212   0.24807   0.57922   0.00000  Uiso   1.00
C1359  C     0.67685   0.21407   0.60684   0.00000  Uiso   1.00
C1360  C     0.99728   0.16891   0.60427   0.00000  Uiso   1.00
C1361  C     0.96586   0.15758   0.57461   0.00000  Uiso   1.00
H1362  H     0.94522   0.26396   0.53015   0.00000  Uiso   1.00
H1363  H     0.66867   0.28314   0.58139   0.00000  Uiso   1.00
H1364  H     0.70052   0.22262   0.63066   0.00000  Uiso   1.00
H1365  H     0.67757   0.14301   0.62622   0.00000  Uiso   1.00
H1366  H     0.95514   0.12268   0.57404   0.00000  Uiso   1.00
H1367  H     0.73090   0.16021   0.54117   0.00000  Uiso   1.00
H1368  H     0.93571   0.18843   0.95945   0.00000  Uiso   1.00
H1369  H     0.70441   0.09742   0.77607   0.00000  Uiso   1.00
H1370  H     0.96229   0.23597   0.72223   0.00000  Uiso   1.00
H1371  H     0.96349   0.09694   0.77434   0.00000  Uiso   1.00
H1372  H     0.70354   0.23654   0.72360   0.00000  Uiso   1.00
C1373  C     0.78771   0.04876   0.68245   0.00000  Uiso   1.00
C1374  C     0.80014   0.05546   0.63758   0.00000  Uiso   1.00
C1375  C     0.77118   0.06416   0.60361   0.00000  Uiso   1.00
C1376  C     0.72978   0.06782   0.61416   0.00000  Uiso   1.00
C1377  C     0.71720   0.06227   0.65869   0.00000  Uiso   1.00
C1378  C     0.74593   0.05208   0.69256   0.00000  Uiso   1.00
H1379  H     0.83202   0.05168   0.62871   0.00000  Uiso   1.00
H1380  H     0.78085   0.06775   0.56904   0.00000  Uiso   1.00
H1381  H     0.70743   0.07455   0.58775   0.00000  Uiso   1.00
H1382  H     0.68502   0.06436   0.66679   0.00000  Uiso   1.00
H1383  H     0.73545   0.04440   0.72630   0.00000  Uiso   1.00
C1384  C     0.87893   0.28395   0.81710   0.00000  Uiso   1.00
C1385  C     0.86776   0.27901   0.86249   0.00000  Uiso   1.00
C1386  C     0.89774   0.27211   0.89575   0.00000  Uiso   1.00
C1387  C     0.93882   0.26787   0.88395   0.00000  Uiso   1.00
C1388  C     0.95007   0.27140   0.83886   0.00000  Uiso   1.00
C1389  C     0.92037   0.27987   0.80568   0.00000  Uiso   1.00
H1390  H     0.83618   0.28352   0.87228   0.00000  Uiso   1.00
H1391  H     0.88910   0.27049   0.93074   0.00000  Uiso   1.00
H1392  H     0.96195   0.26265   0.90980   0.00000  Uiso   1.00
H1393  H     0.98201   0.26973   0.82970   0.00000  Uiso   1.00
H1394  H     0.92993   0.28669   0.77146   0.00000  Uiso   1.00
C1395  C     0.86222   0.04385   0.82743   0.00000  Uiso   1.00
C1396  C     0.90398   0.04881   0.83662   0.00000  Uiso   1.00
C1397  C     0.91748   0.05375   0.88064   0.00000  Uiso   1.00
C1398  C     0.88935   0.05706   0.91554   0.00000  Uiso   1.00
C1399  C     0.84751   0.05364   0.90652   0.00000  Uiso   1.00
C1400  C     0.83395   0.04607   0.86279   0.00000  Uiso   1.00
H1401  H     0.92617   0.04361   0.81057   0.00000  Uiso   1.00
H1402  H     0.94993   0.05286   0.88754   0.00000  Uiso   1.00
H1403  H     0.89989   0.06108   0.94968   0.00000  Uiso   1.00
H1404  H     0.82572   0.05534   0.93360   0.00000  Uiso   1.00
H1405  H     0.80168   0.04043   0.85660   0.00000  Uiso   1.00
C1406  C     0.81500   0.29137   0.66897   0.00000  Uiso   1.00
C1407  C     0.85021   0.29182   0.64198   0.00000  Uiso   1.00
C1408  C     0.84705   0.28449   0.59599   0.00000  Uiso   1.00
C1409  C     0.80881   0.27700   0.57649   0.00000  Uiso   1.00
C1410  C     0.77381   0.27574   0.60312   0.00000  Uiso   1.00
C1411  C     0.77673   0.28246   0.64937   0.00000  Uiso   1.00
H1412  H     0.87982   0.29968   0.65633   0.00000  Uiso   1.00
H1413  H     0.87416   0.28539   0.57535   0.00000  Uiso   1.00
H1414  H     0.80629   0.27202   0.54074   0.00000  Uiso   1.00
H1415  H     0.74439   0.27072   0.58745   0.00000  Uiso   1.00
H1416  H     0.74919   0.28345   0.66927   0.00000  Uiso   1.00
C1417  C     0.08759   0.50010   0.74993   0.00000  Uiso   1.00
C1418  C     0.24577   0.49995   0.74963   0.00000  Uiso   1.00
C1419  C     0.09286   0.49539   0.52309   0.00000  Uiso   1.00
C1420  C     0.24090   0.51523   0.97733   0.00000  Uiso   1.00
C1421  C     0.02160   0.46107   0.76392   0.00000  Uiso   1.00
C1422  C     0.31182   0.53911   0.73457   0.00000  Uiso   1.00
C1423  C     0.31244   0.46086   0.76327   0.00000  Uiso   1.00
C1424  C     0.02107   0.53936   0.73513   0.00000  Uiso   1.00
C1425  C     0.29056   0.49995   0.74906   0.00000  Uiso   1.00
C1426  C     0.04287   0.50026   0.74975   0.00000  Uiso   1.00
C1427  C     0.14870   0.35907   0.71584   0.00000  Uiso   1.00
C1428  C     0.18429   0.64076   0.78436   0.00000  Uiso   1.00
C1429  C     0.18263   0.35647   0.78525   0.00000  Uiso   1.00
C1430  C     0.15168   0.64358   0.71419   0.00000  Uiso   1.00
C1431  C     0.16605   0.50065   0.66488   0.00000  Uiso   1.00
C1432  C     0.16791   0.49936   0.83526   0.00000  Uiso   1.00
C1433  C     0.20469   0.50560   0.90690   0.00000  Uiso   1.00
C1434  C     0.12938   0.49931   0.59341   0.00000  Uiso   1.00
C1435  C     0.16843   0.49793   0.88364   0.00000  Uiso   1.00
C1436  C     0.16611   0.50237   0.61682   0.00000  Uiso   1.00
C1437  C     0.13195   0.49090   0.90623   0.00000  Uiso   1.00
C1438  C     0.20304   0.50808   0.59467   0.00000  Uiso   1.00
C1439  C     0.13016   0.49554   0.95286   0.00000  Uiso   1.00
C1440  C     0.20419   0.50867   0.54770   0.00000  Uiso   1.00
C1441  C     0.16725   0.50197   0.97675   0.00000  Uiso   1.00
C1442  C     0.16705   0.50322   0.52369   0.00000  Uiso   1.00
C1443  C     0.20458   0.50717   0.95362   0.00000  Uiso   1.00
C1444  C     0.12959   0.49927   0.54676   0.00000  Uiso   1.00
C1445  C     0.09259   0.49376   0.97628   0.00000  Uiso   1.00
C1446  C     0.24118   0.51540   0.52420   0.00000  Uiso   1.00
Cu1447 Cu    0.16667   0.54689   0.75000   0.00000  Uiso   1.00
Cu1448 Cu    0.16667   0.45311   0.75000   0.00000  Uiso   1.00
H1449  H     0.23262   0.51103   0.88836   0.00000  Uiso   1.00
H1450  H     0.10083   0.49645   0.61164   0.00000  Uiso   1.00
N1451  N     0.16667   0.61736   0.75000   0.00000  Uiso   1.00
N1452  N     0.16667   0.38264   0.75000   0.00000  Uiso   1.00
O1453  O     0.10655   0.53958   0.74999   0.00000  Uiso   1.00
O1454  O     0.22679   0.46042   0.75000   0.00000  Uiso   1.00
O1455  O     0.22679   0.53958   0.75000   0.00000  Uiso   1.00
O1456  O     0.10655   0.46042   0.74999   0.00000  Uiso   1.00
O1457  O     0.16666   0.53960   0.68513   0.00000  Uiso   1.00
O1458  O     0.16668   0.46040   0.81487   0.00000  Uiso   1.00
O1459  O     0.16668   0.53960   0.81487   0.00000  Uiso   1.00
O1460  O     0.16666   0.46040   0.68513   0.00000  Uiso   1.00
H1461  H     0.10529   0.48234   0.88660   0.00000  Uiso   1.00
H1462  H     0.23044   0.51229   0.61470   0.00000  Uiso   1.00
C1463  C     0.05270   0.48967   0.95297   0.00000  Uiso   1.00
C1464  C     0.04214   0.51923   0.91659   0.00000  Uiso   1.00
C1465  C     0.00784   0.51024   0.89029   0.00000  Uiso   1.00
C1466  C     0.31543   0.47423   0.90225   0.00000  Uiso   1.00
C1467  C     0.32358   0.44752   0.94104   0.00000  Uiso   1.00
C1468  C     0.02575   0.45467   0.96592   0.00000  Uiso   1.00
H1469  H     0.06181   0.54747   0.90698   0.00000  Uiso   1.00
H1470  H     0.00157   0.53066   0.86025   0.00000  Uiso   1.00
H1471  H     0.28911   0.46756   0.88151   0.00000  Uiso   1.00
H1472  H     0.30303   0.42065   0.95166   0.00000  Uiso   1.00
H1473  H     0.03273   0.43215   0.99449   0.00000  Uiso   1.00
C1474  C     0.27973   0.52524   0.54819   0.00000  Uiso   1.00
C1475  C     0.29359   0.57040   0.54994   0.00000  Uiso   1.00
C1476  C     0.32545   0.58140   0.57922   0.00000  Uiso   1.00
C1477  C     0.01018   0.54740   0.60684   0.00000  Uiso   1.00
C1478  C     0.33061   0.50224   0.60427   0.00000  Uiso   1.00
C1479  C     0.29919   0.49092   0.57461   0.00000  Uiso   1.00
H1480  H     0.27856   0.59730   0.53015   0.00000  Uiso   1.00
H1481  H     0.00200   0.61648   0.58139   0.00000  Uiso   1.00
H1482  H     0.03386   0.55595   0.63066   0.00000  Uiso   1.00
H1483  H     0.01090   0.47635   0.62622   0.00000  Uiso   1.00
H1484  H     0.28847   0.45601   0.57404   0.00000  Uiso   1.00
H1485  H     0.06423   0.49354   0.54117   0.00000  Uiso   1.00
H1486  H     0.26904   0.52176   0.95945   0.00000  Uiso   1.00
H1487  H     0.03775   0.43076   0.77607   0.00000  Uiso   1.00
H1488  H     0.29562   0.56930   0.72223   0.00000  Uiso   1.00
H1489  H     0.29682   0.43027   0.77434   0.00000  Uiso   1.00
H1490  H     0.03687   0.56987   0.72360   0.00000  Uiso   1.00
C1491  C     0.12105   0.38209   0.68245   0.00000  Uiso   1.00
C1492  C     0.13348   0.38879   0.63758   0.00000  Uiso   1.00
C1493  C     0.10451   0.39750   0.60361   0.00000  Uiso   1.00
C1494  C     0.06311   0.40116   0.61416   0.00000  Uiso   1.00
C1495  C     0.05053   0.39561   0.65869   0.00000  Uiso   1.00
C1496  C     0.07926   0.38541   0.69256   0.00000  Uiso   1.00
H1497  H     0.16536   0.38501   0.62871   0.00000  Uiso   1.00
H1498  H     0.11418   0.40108   0.56904   0.00000  Uiso   1.00
H1499  H     0.04076   0.40788   0.58775   0.00000  Uiso   1.00
H1500  H     0.01835   0.39769   0.66679   0.00000  Uiso   1.00
H1501  H     0.06878   0.37774   0.72630   0.00000  Uiso   1.00
C1502  C     0.21227   0.61728   0.81710   0.00000  Uiso   1.00
C1503  C     0.20109   0.61234   0.86249   0.00000  Uiso   1.00
C1504  C     0.23107   0.60544   0.89575   0.00000  Uiso   1.00
C1505  C     0.27215   0.60121   0.88395   0.00000  Uiso   1.00
C1506  C     0.28340   0.60474   0.83886   0.00000  Uiso   1.00
C1507  C     0.25370   0.61320   0.80568   0.00000  Uiso   1.00
H1508  H     0.16951   0.61685   0.87228   0.00000  Uiso   1.00
H1509  H     0.22244   0.60382   0.93074   0.00000  Uiso   1.00
H1510  H     0.29529   0.59598   0.90980   0.00000  Uiso   1.00
H1511  H     0.31534   0.60307   0.82970   0.00000  Uiso   1.00
H1512  H     0.26326   0.62002   0.77146   0.00000  Uiso   1.00
C1513  C     0.19555   0.37719   0.82743   0.00000  Uiso   1.00
C1514  C     0.23731   0.38214   0.83662   0.00000  Uiso   1.00
C1515  C     0.25081   0.38709   0.88064   0.00000  Uiso   1.00
C1516  C     0.22269   0.39039   0.91554   0.00000  Uiso   1.00
C1517  C     0.18085   0.38698   0.90652   0.00000  Uiso   1.00
C1518  C     0.16728   0.37940   0.86279   0.00000  Uiso   1.00
H1519  H     0.25950   0.37694   0.81057   0.00000  Uiso   1.00
H1520  H     0.28326   0.38619   0.88754   0.00000  Uiso   1.00
H1521  H     0.23323   0.39442   0.94968   0.00000  Uiso   1.00
H1522  H     0.15906   0.38867   0.93360   0.00000  Uiso   1.00
H1523  H     0.13502   0.37376   0.85660   0.00000  Uiso   1.00
C1524  C     0.14834   0.62470   0.66897   0.00000  Uiso   1.00
C1525  C     0.18354   0.62516   0.64198   0.00000  Uiso   1.00
C1526  C     0.18039   0.61783   0.59599   0.00000  Uiso   1.00
C1527  C     0.14214   0.61034   0.57649   0.00000  Uiso   1.00
C1528  C     0.10714   0.60908   0.60312   0.00000  Uiso   1.00
C1529  C     0.11007   0.61579   0.64937   0.00000  Uiso   1.00
H1530  H     0.21315   0.63302   0.65633   0.00000  Uiso   1.00
H1531  H     0.20749   0.61873   0.57535   0.00000  Uiso   1.00
H1532  H     0.13962   0.60535   0.54074   0.00000  Uiso   1.00
H1533  H     0.07772   0.60405   0.58745   0.00000  Uiso   1.00
H1534  H     0.08252   0.61678   0.66927   0.00000  Uiso   1.00
C1535  C     0.42093   0.50010   0.74993   0.00000  Uiso   1.00
C1536  C     0.57910   0.49995   0.74963   0.00000  Uiso   1.00
C1537  C     0.42620   0.49539   0.52309   0.00000  Uiso   1.00
C1538  C     0.57423   0.51523   0.97733   0.00000  Uiso   1.00
C1539  C     0.35493   0.46107   0.76392   0.00000  Uiso   1.00
C1540  C     0.64516   0.53911   0.73457   0.00000  Uiso   1.00
C1541  C     0.64578   0.46086   0.76327   0.00000  Uiso   1.00
C1542  C     0.35440   0.53936   0.73513   0.00000  Uiso   1.00
C1543  C     0.62389   0.49995   0.74906   0.00000  Uiso   1.00
C1544  C     0.37620   0.50026   0.74975   0.00000  Uiso   1.00
C1545  C     0.48203   0.35907   0.71584   0.00000  Uiso   1.00
C1546  C     0.51763   0.64076   0.78436   0.00000  Uiso   1.00
C1547  C     0.51597   0.35647   0.78525   0.00000  Uiso   1.00
C1548  C     0.48502   0.64358   0.71419   0.00000  Uiso   1.00
C1549  C     0.49938   0.50065   0.66488   0.00000  Uiso   1.00
C1550  C     0.50125   0.49936   0.83526   0.00000  Uiso   1.00
C1551  C     0.53802   0.50560   0.90690   0.00000  Uiso   1.00
C1552  C     0.46271   0.49931   0.59341   0.00000  Uiso   1.00
C1553  C     0.50177   0.49793   0.88364   0.00000  Uiso   1.00
C1554  C     0.49944   0.50237   0.61682   0.00000  Uiso   1.00
C1555  C     0.46528   0.49090   0.90623   0.00000  Uiso   1.00
C1556  C     0.53637   0.50808   0.59467   0.00000  Uiso   1.00
C1557  C     0.46350   0.49554   0.95286   0.00000  Uiso   1.00
C1558  C     0.53752   0.50867   0.54770   0.00000  Uiso   1.00
C1559  C     0.50059   0.50197   0.97675   0.00000  Uiso   1.00
C1560  C     0.50038   0.50322   0.52369   0.00000  Uiso   1.00
C1561  C     0.53792   0.50717   0.95362   0.00000  Uiso   1.00
C1562  C     0.46292   0.49927   0.54676   0.00000  Uiso   1.00
C1563  C     0.42592   0.49376   0.97628   0.00000  Uiso   1.00
C1564  C     0.57451   0.51540   0.52420   0.00000  Uiso   1.00
Cu1565 Cu    0.50000   0.54689   0.75000   0.00000  Uiso   1.00
Cu1566 Cu    0.50000   0.45311   0.75000   0.00000  Uiso   1.00
H1567  H     0.56595   0.51103   0.88836   0.00000  Uiso   1.00
H1568  H     0.43417   0.49645   0.61164   0.00000  Uiso   1.00
N1569  N     0.50000   0.61736   0.75000   0.00000  Uiso   1.00
N1570  N     0.50000   0.38264   0.75000   0.00000  Uiso   1.00
O1571  O     0.43988   0.53958   0.74999   0.00000  Uiso   1.00
O1572  O     0.56012   0.46042   0.75000   0.00000  Uiso   1.00
O1573  O     0.56012   0.53958   0.75000   0.00000  Uiso   1.00
O1574  O     0.43988   0.46042   0.74999   0.00000  Uiso   1.00
O1575  O     0.49999   0.53960   0.68513   0.00000  Uiso   1.00
O1576  O     0.50001   0.46040   0.81487   0.00000  Uiso   1.00
O1577  O     0.50001   0.53960   0.81487   0.00000  Uiso   1.00
O1578  O     0.49999   0.46040   0.68513   0.00000  Uiso   1.00
H1579  H     0.43863   0.48234   0.88660   0.00000  Uiso   1.00
H1580  H     0.56378   0.51229   0.61470   0.00000  Uiso   1.00
C1581  C     0.38603   0.48967   0.95297   0.00000  Uiso   1.00
C1582  C     0.37547   0.51923   0.91659   0.00000  Uiso   1.00
C1583  C     0.34118   0.51024   0.89029   0.00000  Uiso   1.00
C1584  C     0.64877   0.47423   0.90225   0.00000  Uiso   1.00
C1585  C     0.65691   0.44752   0.94104   0.00000  Uiso   1.00
C1586  C     0.35908   0.45467   0.96592   0.00000  Uiso   1.00
H1587  H     0.39514   0.54747   0.90698   0.00000  Uiso   1.00
H1588  H     0.33490   0.53066   0.86025   0.00000  Uiso   1.00
H1589  H     0.62245   0.46756   0.88151   0.00000  Uiso   1.00
H1590  H     0.63636   0.42065   0.95166   0.00000  Uiso   1.00
H1591  H     0.36607   0.43215   0.99449   0.00000  Uiso   1.00
C1592  C     0.61307   0.52524   0.54819   0.00000  Uiso   1.00
C1593  C     0.62692   0.57040   0.54994   0.00000  Uiso   1.00
C1594  C     0.65878   0.58140   0.57922   0.00000  Uiso   1.00
C1595  C     0.34352   0.54740   0.60684   0.00000  Uiso   1.00
C1596  C     0.66394   0.50224   0.60427   0.00000  Uiso   1.00
C1597  C     0.63253   0.49092   0.57461   0.00000  Uiso   1.00
H1598  H     0.61189   0.59730   0.53015   0.00000  Uiso   1.00
H1599  H     0.33533   0.61648   0.58139   0.00000  Uiso   1.00
H1600  H     0.36719   0.55595   0.63066   0.00000  Uiso   1.00
H1601  H     0.34423   0.47635   0.62622   0.00000  Uiso   1.00
H1602  H     0.62181   0.45601   0.57404   0.00000  Uiso   1.00
H1603  H     0.39756   0.49354   0.54117   0.00000  Uiso   1.00
H1604  H     0.60238   0.52176   0.95945   0.00000  Uiso   1.00
H1605  H     0.37108   0.43076   0.77607   0.00000  Uiso   1.00
H1606  H     0.62895   0.56930   0.72223   0.00000  Uiso   1.00
H1607  H     0.63015   0.43027   0.77434   0.00000  Uiso   1.00
H1608  H     0.37020   0.56987   0.72360   0.00000  Uiso   1.00
C1609  C     0.45438   0.38209   0.68245   0.00000  Uiso   1.00
C1610  C     0.46681   0.38879   0.63758   0.00000  Uiso   1.00
C1611  C     0.43785   0.39750   0.60361   0.00000  Uiso   1.00
C1612  C     0.39644   0.40116   0.61416   0.00000  Uiso   1.00
C1613  C     0.38386   0.39561   0.65869   0.00000  Uiso   1.00
C1614  C     0.41260   0.38541   0.69256   0.00000  Uiso   1.00
H1615  H     0.49869   0.38501   0.62871   0.00000  Uiso   1.00
H1616  H     0.44752   0.40108   0.56904   0.00000  Uiso   1.00
H1617  H     0.37410   0.40788   0.58775   0.00000  Uiso   1.00
H1618  H     0.35169   0.39769   0.66679   0.00000  Uiso   1.00
H1619  H     0.40211   0.37774   0.72630   0.00000  Uiso   1.00
C1620  C     0.54560   0.61728   0.81710   0.00000  Uiso   1.00
C1621  C     0.53442   0.61234   0.86249   0.00000  Uiso   1.00
C1622  C     0.56440   0.60544   0.89575   0.00000  Uiso   1.00
C1623  C     0.60548   0.60121   0.88395   0.00000  Uiso   1.00
C1624  C     0.61674   0.60474   0.83886   0.00000  Uiso   1.00
C1625  C     0.58703   0.61320   0.80568   0.00000  Uiso   1.00
H1626  H     0.50285   0.61685   0.87228   0.00000  Uiso   1.00
H1627  H     0.55577   0.60382   0.93074   0.00000  Uiso   1.00
H1628  H     0.62862   0.59598   0.90980   0.00000  Uiso   1.00
H1629  H     0.64867   0.60307   0.82970   0.00000  Uiso   1.00
H1630  H     0.59659   0.62002   0.77146   0.00000  Uiso   1.00
C1631  C     0.52888   0.37719   0.82743   0.00000  Uiso   1.00
C1632  C     0.57064   0.38214   0.83662   0.00000  Uiso   1.00
C1633  C     0.58415   0.38709   0.88064   0.00000  Uiso   1.00
C1634  C     0.55602   0.39039   0.91554   0.00000  Uiso   1.00
C1635  C     0.51418   0.38698   0.90652   0.00000  Uiso   1.00
C1636  C     0.50062   0.37940   0.86279   0.00000  Uiso   1.00
H1637  H     0.59283   0.37694   0.81057   0.00000  Uiso   1.00
H1638  H     0.61659   0.38619   0.88754   0.00000  Uiso   1.00
H1639  H     0.56656   0.39442   0.94968   0.00000  Uiso   1.00
H1640  H     0.49239   0.38867   0.93360   0.00000  Uiso   1.00
H1641  H     0.46835   0.37376   0.85660   0.00000  Uiso   1.00
C1642  C     0.48167   0.62470   0.66897   0.00000  Uiso   1.00
C1643  C     0.51687   0.62516   0.64198   0.00000  Uiso   1.00
C1644  C     0.51372   0.61783   0.59599   0.00000  Uiso   1.00
C1645  C     0.47548   0.61034   0.57649   0.00000  Uiso   1.00
C1646  C     0.44048   0.60908   0.60312   0.00000  Uiso   1.00
C1647  C     0.44340   0.61579   0.64937   0.00000  Uiso   1.00
H1648  H     0.54649   0.63302   0.65633   0.00000  Uiso   1.00
H1649  H     0.54083   0.61873   0.57535   0.00000  Uiso   1.00
H1650  H     0.47295   0.60535   0.54074   0.00000  Uiso   1.00
H1651  H     0.41106   0.60405   0.58745   0.00000  Uiso   1.00
H1652  H     0.41585   0.61678   0.66927   0.00000  Uiso   1.00
C1653  C     0.75426   0.50010   0.74993   0.00000  Uiso   1.00
C1654  C     0.91243   0.49995   0.74963   0.00000  Uiso   1.00
C1655  C     0.75953   0.49539   0.52309   0.00000  Uiso   1.00
C1656  C     0.90756   0.51523   0.97733   0.00000  Uiso   1.00
C1657  C     0.68827   0.46107   0.76392   0.00000  Uiso   1.00
C1658  C     0.97849   0.53911   0.73457   0.00000  Uiso   1.00
C1659  C     0.97911   0.46086   0.76327   0.00000  Uiso   1.00
C1660  C     0.68773   0.53936   0.73513   0.00000  Uiso   1.00
C1661  C     0.95722   0.49995   0.74906   0.00000  Uiso   1.00
C1662  C     0.70953   0.50026   0.74975   0.00000  Uiso   1.00
C1663  C     0.81536   0.35907   0.71584   0.00000  Uiso   1.00
C1664  C     0.85096   0.64076   0.78436   0.00000  Uiso   1.00
C1665  C     0.84930   0.35647   0.78525   0.00000  Uiso   1.00
C1666  C     0.81835   0.64358   0.71419   0.00000  Uiso   1.00
C1667  C     0.83272   0.50065   0.66488   0.00000  Uiso   1.00
C1668  C     0.83458   0.49936   0.83526   0.00000  Uiso   1.00
C1669  C     0.87135   0.50560   0.90690   0.00000  Uiso   1.00
C1670  C     0.79604   0.49931   0.59341   0.00000  Uiso   1.00
C1671  C     0.83510   0.49793   0.88364   0.00000  Uiso   1.00
C1672  C     0.83278   0.50237   0.61682   0.00000  Uiso   1.00
C1673  C     0.79862   0.49090   0.90623   0.00000  Uiso   1.00
C1674  C     0.86970   0.50808   0.59467   0.00000  Uiso   1.00
C1675  C     0.79683   0.49554   0.95286   0.00000  Uiso   1.00
C1676  C     0.87085   0.50867   0.54770   0.00000  Uiso   1.00
C1677  C     0.83392   0.50197   0.97675   0.00000  Uiso   1.00
C1678  C     0.83371   0.50322   0.52369   0.00000  Uiso   1.00
C1679  C     0.87125   0.50717   0.95362   0.00000  Uiso   1.00
C1680  C     0.79626   0.49927   0.54676   0.00000  Uiso   1.00
C1681  C     0.75925   0.49376   0.97628   0.00000  Uiso   1.00
C1682  C     0.90784   0.51540   0.52420   0.00000  Uiso   1.00
Cu1683 Cu    0.83333   0.54689   0.75000   0.00000  Uiso   1.00
Cu1684 Cu    0.83333   0.45311   0.75000   0.00000  Uiso   1.00
H1685  H     0.89929   0.51103   0.88836   0.00000  Uiso   1.00
H1686  H     0.76750   0.49645   0.61164   0.00000  Uiso   1.00
N1687  N     0.83333   0.61736   0.75000   0.00000  Uiso   1.00
N1688  N     0.83333   0.38264   0.75000   0.00000  Uiso   1.00
O1689  O     0.77321   0.53958   0.74999   0.00000  Uiso   1.00
O1690  O     0.89345   0.46042   0.75000   0.00000  Uiso   1.00
O1691  O     0.89345   0.53958   0.75000   0.00000  Uiso   1.00
O1692  O     0.77321   0.46042   0.74999   0.00000  Uiso   1.00
O1693  O     0.83332   0.53960   0.68513   0.00000  Uiso   1.00
O1694  O     0.83334   0.46040   0.81487   0.00000  Uiso   1.00
O1695  O     0.83334   0.53960   0.81487   0.00000  Uiso   1.00
O1696  O     0.83332   0.46040   0.68513   0.00000  Uiso   1.00
H1697  H     0.77196   0.48234   0.88660   0.00000  Uiso   1.00
H1698  H     0.89711   0.51229   0.61470   0.00000  Uiso   1.00
C1699  C     0.71937   0.48967   0.95297   0.00000  Uiso   1.00
C1700  C     0.70881   0.51923   0.91659   0.00000  Uiso   1.00
C1701  C     0.67451   0.51024   0.89029   0.00000  Uiso   1.00
C1702  C     0.98210   0.47423   0.90225   0.00000  Uiso   1.00
C1703  C     0.99024   0.44752   0.94104   0.00000  Uiso   1.00
C1704  C     0.69241   0.45467   0.96592   0.00000  Uiso   1.00
H1705  H     0.72848   0.54747   0.90698   0.00000  Uiso   1.00
H1706  H     0.66824   0.53066   0.86025   0.00000  Uiso   1.00
H1707  H     0.95578   0.46756   0.88151   0.00000  Uiso   1.00
H1708  H     0.96970   0.42065   0.95166   0.00000  Uiso   1.00
H1709  H     0.69940   0.43215   0.99449   0.00000  Uiso   1.00
C1710  C     0.94640   0.52524   0.54819   0.00000  Uiso   1.00
C1711  C     0.96026   0.57040   0.54994   0.00000  Uiso   1.00
C1712  C     0.99212   0.58140   0.57922   0.00000  Uiso   1.00
C1713  C     0.67685   0.54740   0.60684   0.00000  Uiso   1.00
C1714  C     0.99728   0.50224   0.60427   0.00000  Uiso   1.00
C1715  C     0.96586   0.49092   0.57461   0.00000  Uiso   1.00
H1716  H     0.94522   0.59730   0.53015   0.00000  Uiso   1.00
H1717  H     0.66867   0.61648   0.58139   0.00000  Uiso   1.00
H1718  H     0.70052   0.55595   0.63066   0.00000  Uiso   1.00
H1719  H     0.67757   0.47635   0.62622   0.00000  Uiso   1.00
H1720  H     0.95514   0.45601   0.57404   0.00000  Uiso   1.00
H1721  H     0.73090   0.49354   0.54117   0.00000  Uiso   1.00
H1722  H     0.93571   0.52176   0.95945   0.00000  Uiso   1.00
H1723  H     0.70441   0.43076   0.77607   0.00000  Uiso   1.00
H1724  H     0.96229   0.56930   0.72223   0.00000  Uiso   1.00
H1725  H     0.96349   0.43027   0.77434   0.00000  Uiso   1.00
H1726  H     0.70354   0.56987   0.72360   0.00000  Uiso   1.00
C1727  C     0.78771   0.38209   0.68245   0.00000  Uiso   1.00
C1728  C     0.80014   0.38879   0.63758   0.00000  Uiso   1.00
C1729  C     0.77118   0.39750   0.60361   0.00000  Uiso   1.00
C1730  C     0.72978   0.40116   0.61416   0.00000  Uiso   1.00
C1731  C     0.71720   0.39561   0.65869   0.00000  Uiso   1.00
C1732  C     0.74593   0.38541   0.69256   0.00000  Uiso   1.00
H1733  H     0.83202   0.38501   0.62871   0.00000  Uiso   1.00
H1734  H     0.78085   0.40108   0.56904   0.00000  Uiso   1.00
H1735  H     0.70743   0.40788   0.58775   0.00000  Uiso   1.00
H1736  H     0.68502   0.39769   0.66679   0.00000  Uiso   1.00
H1737  H     0.73545   0.37774   0.72630   0.00000  Uiso   1.00
C1738  C     0.87893   0.61728   0.81710   0.00000  Uiso   1.00
C1739  C     0.86776   0.61234   0.86249   0.00000  Uiso   1.00
C1740  C     0.89774   0.60544   0.89575   0.00000  Uiso   1.00
C1741  C     0.93882   0.60121   0.88395   0.00000  Uiso   1.00
C1742  C     0.95007   0.60474   0.83886   0.00000  Uiso   1.00
C1743  C     0.92037   0.61320   0.80568   0.00000  Uiso   1.00
H1744  H     0.83618   0.61685   0.87228   0.00000  Uiso   1.00
H1745  H     0.88910   0.60382   0.93074   0.00000  Uiso   1.00
H1746  H     0.96195   0.59598   0.90980   0.00000  Uiso   1.00
H1747  H     0.98201   0.60307   0.82970   0.00000  Uiso   1.00
H1748  H     0.92993   0.62002   0.77146   0.00000  Uiso   1.00
C1749  C     0.86222   0.37719   0.82743   0.00000  Uiso   1.00
C1750  C     0.90398   0.38214   0.83662   0.00000  Uiso   1.00
C1751  C     0.91748   0.38709   0.88064   0.00000  Uiso   1.00
C1752  C     0.88935   0.39039   0.91554   0.00000  Uiso   1.00
C1753  C     0.84751   0.38698   0.90652   0.00000  Uiso   1.00
C1754  C     0.83395   0.37940   0.86279   0.00000  Uiso   1.00
H1755  H     0.92617   0.37694   0.81057   0.00000  Uiso   1.00
H1756  H     0.94993   0.38619   0.88754   0.00000  Uiso   1.00
H1757  H     0.89989   0.39442   0.94968   0.00000  Uiso   1.00
H1758  H     0.82572   0.38867   0.93360   0.00000  Uiso   1.00
H1759  H     0.80168   0.37376   0.85660   0.00000  Uiso   1.00
C1760  C     0.81500   0.62470   0.66897   0.00000  Uiso   1.00
C1761  C     0.85021   0.62516   0.64198   0.00000  Uiso   1.00
C1762  C     0.84705   0.61783   0.59599   0.00000  Uiso   1.00
C1763  C     0.80881   0.61034   0.57649   0.00000  Uiso   1.00
C1764  C     0.77381   0.60908   0.60312   0.00000  Uiso   1.00
C1765  C     0.77673   0.61579   0.64937   0.00000  Uiso   1.00
H1766  H     0.87982   0.63302   0.65633   0.00000  Uiso   1.00
H1767  H     0.87416   0.61873   0.57535   0.00000  Uiso   1.00
H1768  H     0.80629   0.60535   0.54074   0.00000  Uiso   1.00
H1769  H     0.74439   0.60405   0.58745   0.00000  Uiso   1.00
H1770  H     0.74919   0.61678   0.66927   0.00000  Uiso   1.00
C1771  C     0.08759   0.83344   0.74993   0.00000  Uiso   1.00
C1772  C     0.24577   0.83329   0.74963   0.00000  Uiso   1.00
C1773  C     0.09286   0.82872   0.52309   0.00000  Uiso   1.00
C1774  C     0.24090   0.84856   0.97733   0.00000  Uiso   1.00
C1775  C     0.02160   0.79441   0.76392   0.00000  Uiso   1.00
C1776  C     0.31182   0.87244   0.73457   0.00000  Uiso   1.00
C1777  C     0.31244   0.79419   0.76327   0.00000  Uiso   1.00
C1778  C     0.02107   0.87269   0.73513   0.00000  Uiso   1.00
C1779  C     0.29056   0.83328   0.74906   0.00000  Uiso   1.00
C1780  C     0.04287   0.83360   0.74975   0.00000  Uiso   1.00
C1781  C     0.14870   0.69240   0.71584   0.00000  Uiso   1.00
C1782  C     0.18429   0.97409   0.78436   0.00000  Uiso   1.00
C1783  C     0.18263   0.68980   0.78525   0.00000  Uiso   1.00
C1784  C     0.15168   0.97691   0.71419   0.00000  Uiso   1.00
C1785  C     0.16605   0.83398   0.66488   0.00000  Uiso   1.00
C1786  C     0.16791   0.83269   0.83526   0.00000  Uiso   1.00
C1787  C     0.20469   0.83893   0.90690   0.00000  Uiso   1.00
C1788  C     0.12938   0.83264   0.59341   0.00000  Uiso   1.00
C1789  C     0.16843   0.83126   0.88364   0.00000  Uiso   1.00
C1790  C     0.16611   0.83570   0.61682   0.00000  Uiso   1.00
C1791  C     0.13195   0.82423   0.90623   0.00000  Uiso   1.00
C1792  C     0.20304   0.84141   0.59467   0.00000  Uiso   1.00
C1793  C     0.13016   0.82887   0.95286   0.00000  Uiso   1.00
C1794  C     0.20419   0.84200   0.54770   0.00000  Uiso   1.00
C1795  C     0.16725   0.83530   0.97675   0.00000  Uiso   1.00
C1796  C     0.16705   0.83655   0.52369   0.00000  Uiso   1.00
C1797  C     0.20458   0.84050   0.95362   0.00000  Uiso   1.00
C1798  C     0.12959   0.83260   0.54676   0.00000  Uiso   1.00
C1799  C     0.09259   0.82709   0.97628   0.00000  Uiso   1.00
C1800  C     0.24118   0.84874   0.52420   0.00000  Uiso   1.00
Cu1801 Cu    0.16667   0.88022   0.75000   0.00000  Uiso   1.00
Cu1802 Cu    0.16667   0.78645   0.75000   0.00000  Uiso   1.00
H1803  H     0.23262   0.84436   0.88836   0.00000  Uiso   1.00
H1804  H     0.10083   0.82978   0.61164   0.00000  Uiso   1.00
N1805  N     0.16667   0.95069   0.75000   0.00000  Uiso   1.00
N1806  N     0.16667   0.71598   0.75000   0.00000  Uiso   1.00
O1807  O     0.10655   0.87291   0.74999   0.00000  Uiso   1.00
O1808  O     0.22679   0.79375   0.75000   0.00000  Uiso   1.00
O1809  O     0.22679   0.87291   0.75000   0.00000  Uiso   1.00
O1810  O     0.10655   0.79375   0.74999   0.00000  Uiso   1.00
O1811  O     0.16666   0.87293   0.68513   0.00000  Uiso   1.00
O1812  O     0.16668   0.79373   0.81487   0.00000  Uiso   1.00
O1813  O     0.16668   0.87293   0.81487   0.00000  Uiso   1.00
O1814  O     0.16666   0.79373   0.68513   0.00000  Uiso   1.00
H1815  H     0.10529   0.81567   0.88660   0.00000  Uiso   1.00
H1816  H     0.23044   0.84563   0.61470   0.00000  Uiso   1.00
C1817  C     0.05270   0.82301   0.95297   0.00000  Uiso   1.00
C1818  C     0.04214   0.85256   0.91659   0.00000  Uiso   1.00
C1819  C     0.00784   0.84357   0.89029   0.00000  Uiso   1.00
C1820  C     0.31543   0.80756   0.90225   0.00000  Uiso   1.00
C1821  C     0.32358   0.78085   0.94104   0.00000  Uiso   1.00
C1822  C     0.02575   0.78801   0.96592   0.00000  Uiso   1.00
H1823  H     0.06181   0.88081   0.90698   0.00000  Uiso   1.00
H1824  H     0.00157   0.86399   0.86025   0.00000  Uiso   1.00
H1825  H     0.28911   0.80089   0.88151   0.00000  Uiso   1.00
H1826  H     0.30303   0.75398   0.95166   0.00000  Uiso   1.00
H1827  H     0.03273   0.76549   0.99449   0.00000  Uiso   1.00
C1828  C     0.27973   0.85857   0.54819   0.00000  Uiso   1.00
C1829  C     0.29359   0.90374   0.54994   0.00000  Uiso   1.00
C1830  C     0.32545   0.91473   0.57922   0.00000  Uiso   1.00
C1831  C     0.01018   0.88073   0.60684   0.00000  Uiso   1.00
C1832  C     0.33061   0.83557   0.60427   0.00000  Uiso   1.00
C1833  C     0.29919   0.82425   0.57461   0.00000  Uiso   1.00
H1834  H     0.27856   0.93063   0.53015   0.00000  Uiso   1.00
H1835  H     0.00200   0.94981   0.58139   0.00000  Uiso   1.00
H1836  H     0.03386   0.88929   0.63066   0.00000  Uiso   1.00
H1837  H     0.01090   0.80968   0.62622   0.00000  Uiso   1.00
H1838  H     0.28847   0.78935   0.57404   0.00000  Uiso   1.00
H1839  H     0.06423   0.82688   0.54117   0.00000  Uiso   1.00
H1840  H     0.26904   0.85510   0.95945   0.00000  Uiso   1.00
H1841  H     0.03775   0.76409   0.77607   0.00000  Uiso   1.00
H1842  H     0.29562   0.90263   0.72223   0.00000  Uiso   1.00
H1843  H     0.29682   0.76361   0.77434   0.00000  Uiso   1.00
H1844  H     0.03687   0.90320   0.72360   0.00000  Uiso   1.00
C1845  C     0.12105   0.71543   0.68245   0.00000  Uiso   1.00
C1846  C     0.13348   0.72212   0.63758   0.00000  Uiso   1.00
C1847  C     0.10451   0.73083   0.60361   0.00000  Uiso   1.00
C1848  C     0.06311   0.73449   0.61416   0.00000  Uiso   1.00
C1849  C     0.05053   0.72894   0.65869   0.00000  Uiso   1.00
C1850  C     0.07926   0.71875   0.69256   0.00000  Uiso   1.00
H1851  H     0.16536   0.71835   0.62871   0.00000  Uiso   1.00
H1852  H     0.11418   0.73442   0.56904   0.00000  Uiso   1.00
H1853  H     0.04076   0.74121   0.58775   0.00000  Uiso   1.00
H1854  H     0.01835   0.73103   0.66679   0.00000  Uiso   1.00
H1855  H     0.06878   0.71107   0.72630   0.00000  Uiso   1.00
C1856  C     0.21227   0.95061   0.81710   0.00000  Uiso   1.00
C1857  C     0.20109   0.94567   0.86249   0.00000  Uiso   1.00
C1858  C     0.23107   0.93877   0.89575   0.00000  Uiso   1.00
C1859  C     0.27215   0.93454   0.88395   0.00000  Uiso   1.00
C1860  C     0.28340   0.93807   0.83886   0.00000  Uiso   1.00
C1861  C     0.25370   0.94653   0.80568   0.00000  Uiso   1.00
H1862  H     0.16951   0.95019   0.87228   0.00000  Uiso   1.00
H1863  H     0.22244   0.93715   0.93074   0.00000  Uiso   1.00
H1864  H     0.29529   0.92932   0.90980   0.00000  Uiso   1.00
H1865  H     0.31534   0.93640   0.82970   0.00000  Uiso   1.00
H1866  H     0.26326   0.95335   0.77146   0.00000  Uiso   1.00
C1867  C     0.19555   0.71052   0.82743   0.00000  Uiso   1.00
C1868  C     0.23731   0.71547   0.83662   0.00000  Uiso   1.00
C1869  C     0.25081   0.72042   0.88064   0.00000  Uiso   1.00
C1870  C     0.22269   0.72373   0.91554   0.00000  Uiso   1.00
C1871  C     0.18085   0.72031   0.90652   0.00000  Uiso   1.00
C1872  C     0.16728   0.71273   0.86279   0.00000  Uiso   1.00
H1873  H     0.25950   0.71028   0.81057   0.00000  Uiso   1.00
H1874  H     0.28326   0.71953   0.88754   0.00000  Uiso   1.00
H1875  H     0.23323   0.72775   0.94968   0.00000  Uiso   1.00
H1876  H     0.15906   0.72201   0.93360   0.00000  Uiso   1.00
H1877  H     0.13502   0.70709   0.85660   0.00000  Uiso   1.00
C1878  C     0.14834   0.95803   0.66897   0.00000  Uiso   1.00
C1879  C     0.18354   0.95849   0.64198   0.00000  Uiso   1.00
C1880  C     0.18039   0.95116   0.59599   0.00000  Uiso   1.00
C1881  C     0.14214   0.94367   0.57649   0.00000  Uiso   1.00
C1882  C     0.10714   0.94241   0.60312   0.00000  Uiso   1.00
C1883  C     0.11007   0.94913   0.64937   0.00000  Uiso   1.00
H1884  H     0.21315   0.96635   0.65633   0.00000  Uiso   1.00
H1885  H     0.20749   0.95206   0.57535   0.00000  Uiso   1.00
H1886  H     0.13962   0.93868   0.54074   0.00000  Uiso   1.00
H1887  H     0.07772   0.93738   0.58745   0.00000  Uiso   1.00
H1888  H     0.08252   0.95012   0.66927   0.00000  Uiso   1.00
C1889  C     0.42093   0.83344   0.74993   0.00000  Uiso   1.00
C1890  C     0.57910   0.83329   0.74963   0.00000  Uiso   1.00
C1891  C     0.42620   0.82872   0.52309   0.00000  Uiso   1.00
C1892  C     0.57423   0.84856   0.97733   0.00000  Uiso   1.00
C1893  C     0.35493   0.79441   0.76392   0.00000  Uiso   1.00
C1894  C     0.64516   0.87244   0.73457   0.00000  Uiso   1.00
C1895  C     0.64578   0.79419   0.76327   0.00000  Uiso   1.00
C1896  C     0.35440   0.87269   0.73513   0.00000  Uiso   1.00
C1897  C     0.62389   0.83328   0.74906   0.00000  Uiso   1.00
C1898  C     0.37620   0.83360   0.74975   0.00000  Uiso   1.00
C1899  C     0.48203   0.69240   0.71584   0.00000  Uiso   1.00
C1900  C     0.51763   0.97409   0.78436   0.00000  Uiso   1.00
C1901  C     0.51597   0.68980   0.78525   0.00000  Uiso   1.00
C1902  C     0.48502   0.97691   0.71419   0.00000  Uiso   1.00
C1903  C     0.49938   0.83398   0.66488   0.00000  Uiso   1.00
C1904  C     0.50125   0.83269   0.83526   0.00000  Uiso   1.00
C1905  C     0.53802   0.83893   0.90690   0.00000  Uiso   1.00
C1906  C     0.46271   0.83264   0.59341   0.00000  Uiso   1.00
C1907  C     0.50177   0.83126   0.88364   0.00000  Uiso   1.00
C1908  C     0.49944   0.83570   0.61682   0.00000  Uiso   1.00
C1909  C     0.46528   0.82423   0.90623   0.00000  Uiso   1.00
C1910  C     0.53637   0.84141   0.59467   0.00000  Uiso   1.00
C1911  C     0.46350   0.82887   0.95286   0.00000  Uiso   1.00
C1912  C     0.53752   0.84200   0.54770   0.00000  Uiso   1.00
C1913  C     0.50059   0.83530   0.97675   0.00000  Uiso   1.00
C1914  C     0.50038   0.83655   0.52369   0.00000  Uiso   1.00
C1915  C     0.53792   0.84050   0.95362   0.00000  Uiso   1.00
C1916  C     0.46292   0.83260   0.54676   0.00000  Uiso   1.00
C1917  C     0.42592   0.82709   0.97628   0.00000  Uiso   1.00
C1918  C     0.57451   0.84874   0.52420   0.00000  Uiso   1.00
Cu1919 Cu    0.50000   0.88022   0.75000   0.00000  Uiso   1.00
Cu1920 Cu    0.50000   0.78645   0.75000   0.00000  Uiso   1.00
H1921  H     0.56595   0.84436   0.88836   0.00000  Uiso   1.00
H1922  H     0.43417   0.82978   0.61164   0.00000  Uiso   1.00
N1923  N     0.50000   0.95069   0.75000   0.00000  Uiso   1.00
N1924  N     0.50000   0.71598   0.75000   0.00000  Uiso   1.00
O1925  O     0.43988   0.87291   0.74999   0.00000  Uiso   1.00
O1926  O     0.56012   0.79375   0.75000   0.00000  Uiso   1.00
O1927  O     0.56012   0.87291   0.75000   0.00000  Uiso   1.00
O1928  O     0.43988   0.79375   0.74999   0.00000  Uiso   1.00
O1929  O     0.49999   0.87293   0.68513   0.00000  Uiso   1.00
O1930  O     0.50001   0.79373   0.81487   0.00000  Uiso   1.00
O1931  O     0.50001   0.87293   0.81487   0.00000  Uiso   1.00
O1932  O     0.49999   0.79373   0.68513   0.00000  Uiso   1.00
H1933  H     0.43863   0.81567   0.88660   0.00000  Uiso   1.00
H1934  H     0.56378   0.84563   0.61470   0.00000  Uiso   1.00
C1935  C     0.38603   0.82301   0.95297   0.00000  Uiso   1.00
C1936  C     0.37547   0.85256   0.91659   0.00000  Uiso   1.00
C1937  C     0.34118   0.84357   0.89029   0.00000  Uiso   1.00
C1938  C     0.64877   0.80756   0.90225   0.00000  Uiso   1.00
C1939  C     0.65691   0.78085   0.94104   0.00000  Uiso   1.00
C1940  C     0.35908   0.78801   0.96592   0.00000  Uiso   1.00
H1941  H     0.39514   0.88081   0.90698   0.00000  Uiso   1.00
H1942  H     0.33490   0.86399   0.86025   0.00000  Uiso   1.00
H1943  H     0.62245   0.80089   0.88151   0.00000  Uiso   1.00
H1944  H     0.63636   0.75398   0.95166   0.00000  Uiso   1.00
H1945  H     0.36607   0.76549   0.99449   0.00000  Uiso   1.00
C1946  C     0.61307   0.85857   0.54819   0.00000  Uiso   1.00
C1947  C     0.62692   0.90374   0.54994   0.00000  Uiso   1.00
C1948  C     0.65878   0.91473   0.57922   0.00000  Uiso   1.00
C1949  C     0.34352   0.88073   0.60684   0.00000  Uiso   1.00
C1950  C     0.66394   0.83557   0.60427   0.00000  Uiso   1.00
C1951  C     0.63253   0.82425   0.57461   0.00000  Uiso   1.00
H1952  H     0.61189   0.93063   0.53015   0.00000  Uiso   1.00
H1953  H     0.33533   0.94981   0.58139   0.00000  Uiso   1.00
H1954  H     0.36719   0.88929   0.63066   0.00000  Uiso   1.00
H1955  H     0.34423   0.80968   0.62622   0.00000  Uiso   1.00
H1956  H     0.62181   0.78935   0.57404   0.00000  Uiso   1.00
H1957  H     0.39756   0.82688   0.54117   0.00000  Uiso   1.00
H1958  H     0.60238   0.85510   0.95945   0.00000  Uiso   1.00
H1959  H     0.37108   0.76409   0.77607   0.00000  Uiso   1.00
H1960  H     0.62895   0.90263   0.72223   0.00000  Uiso   1.00
H1961  H     0.63015   0.76361   0.77434   0.00000  Uiso   1.00
H1962  H     0.37020   0.90320   0.72360   0.00000  Uiso   1.00
C1963  C     0.45438   0.71543   0.68245   0.00000  Uiso   1.00
C1964  C     0.46681   0.72212   0.63758   0.00000  Uiso   1.00
C1965  C     0.43785   0.73083   0.60361   0.00000  Uiso   1.00
C1966  C     0.39644   0.73449   0.61416   0.00000  Uiso   1.00
C1967  C     0.38386   0.72894   0.65869   0.00000  Uiso   1.00
C1968  C     0.41260   0.71875   0.69256   0.00000  Uiso   1.00
H1969  H     0.49869   0.71835   0.62871   0.00000  Uiso   1.00
H1970  H     0.44752   0.73442   0.56904   0.00000  Uiso   1.00
H1971  H     0.37410   0.74121   0.58775   0.00000  Uiso   1.00
H1972  H     0.35169   0.73103   0.66679   0.00000  Uiso   1.00
H1973  H     0.40211   0.71107   0.72630   0.00000  Uiso   1.00
C1974  C     0.54560   0.95061   0.81710   0.00000  Uiso   1.00
C1975  C     0.53442   0.94567   0.86249   0.00000  Uiso   1.00
C1976  C     0.56440   0.93877   0.89575   0.00000  Uiso   1.00
C1977  C     0.60548   0.93454   0.88395   0.00000  Uiso   1.00
C1978  C     0.61674   0.93807   0.83886   0.00000  Uiso   1.00
C1979  C     0.58703   0.94653   0.80568   0.00000  Uiso   1.00
H1980  H     0.50285   0.95019   0.87228   0.00000  Uiso   1.00
H1981  H     0.55577   0.93715   0.93074   0.00000  Uiso   1.00
H1982  H     0.62862   0.92932   0.90980   0.00000  Uiso   1.00
H1983  H     0.64867   0.93640   0.82970   0.00000  Uiso   1.00
H1984  H     0.59659   0.95335   0.77146   0.00000  Uiso   1.00
C1985  C     0.52888   0.71052   0.82743   0.00000  Uiso   1.00
C1986  C     0.57064   0.71547   0.83662   0.00000  Uiso   1.00
C1987  C     0.58415   0.72042   0.88064   0.00000  Uiso   1.00
C1988  C     0.55602   0.72373   0.91554   0.00000  Uiso   1.00
C1989  C     0.51418   0.72031   0.90652   0.00000  Uiso   1.00
C1990  C     0.50062   0.71273   0.86279   0.00000  Uiso   1.00
H1991  H     0.59283   0.71028   0.81057   0.00000  Uiso   1.00
H1992  H     0.61659   0.71953   0.88754   0.00000  Uiso   1.00
H1993  H     0.56656   0.72775   0.94968   0.00000  Uiso   1.00
H1994  H     0.49239   0.72201   0.93360   0.00000  Uiso   1.00
H1995  H     0.46835   0.70709   0.85660   0.00000  Uiso   1.00
C1996  C     0.48167   0.95803   0.66897   0.00000  Uiso   1.00
C1997  C     0.51687   0.95849   0.64198   0.00000  Uiso   1.00
C1998  C     0.51372   0.95116   0.59599   0.00000  Uiso   1.00
C1999  C     0.47548   0.94367   0.57649   0.00000  Uiso   1.00
C2000  C     0.44048   0.94241   0.60312   0.00000  Uiso   1.00
C2001  C     0.44340   0.94913   0.64937   0.00000  Uiso   1.00
H2002  H     0.54649   0.96635   0.65633   0.00000  Uiso   1.00
H2003  H     0.54083   0.95206   0.57535   0.00000  Uiso   1.00
H2004  H     0.47295   0.93868   0.54074   0.00000  Uiso   1.00
H2005  H     0.41106   0.93738   0.58745   0.00000  Uiso   1.00
H2006  H     0.41585   0.95012   0.66927   0.00000  Uiso   1.00
C2007  C     0.75426   0.83344   0.74993   0.00000  Uiso   1.00
C2008  C     0.91243   0.83329   0.74963   0.00000  Uiso   1.00
C2009  C     0.75953   0.82872   0.52309   0.00000  Uiso   1.00
C2010  C     0.90756   0.84856   0.97733   0.00000  Uiso   1.00
C2011  C     0.68827   0.79441   0.76392   0.00000  Uiso   1.00
C2012  C     0.97849   0.87244   0.73457   0.00000  Uiso   1.00
C2013  C     0.97911   0.79419   0.76327   0.00000  Uiso   1.00
C2014  C     0.68773   0.87269   0.73513   0.00000  Uiso   1.00
C2015  C     0.95722   0.83328   0.74906   0.00000  Uiso   1.00
C2016  C     0.70953   0.83360   0.74975   0.00000  Uiso   1.00
C2017  C     0.81536   0.69240   0.71584   0.00000  Uiso   1.00
C2018  C     0.85096   0.97409   0.78436   0.00000  Uiso   1.00
C2019  C     0.84930   0.68980   0.78525   0.00000  Uiso   1.00
C2020  C     0.81835   0.97691   0.71419   0.00000  Uiso   1.00
C2021  C     0.83272   0.83398   0.66488   0.00000  Uiso   1.00
C2022  C     0.83458   0.83269   0.83526   0.00000  Uiso   1.00
C2023  C     0.87135   0.83893   0.90690   0.00000  Uiso   1.00
C2024  C     0.79604   0.83264   0.59341   0.00000  Uiso   1.00
C2025  C     0.83510   0.83126   0.88364   0.00000  Uiso   1.00
C2026  C     0.83278   0.83570   0.61682   0.00000  Uiso   1.00
C2027  C     0.79862   0.82423   0.90623   0.00000  Uiso   1.00
C2028  C     0.86970   0.84141   0.59467   0.00000  Uiso   1.00
C2029  C     0.79683   0.82887   0.95286   0.00000  Uiso   1.00
C2030  C     0.87085   0.84200   0.54770   0.00000  Uiso   1.00
C2031  C     0.83392   0.83530   0.97675   0.00000  Uiso   1.00
C2032  C     0.83371   0.83655   0.52369   0.00000  Uiso   1.00
C2033  C     0.87125   0.84050   0.95362   0.00000  Uiso   1.00
C2034  C     0.79626   0.83260   0.54676   0.00000  Uiso   1.00
C2035  C     0.75925   0.82709   0.97628   0.00000  Uiso   1.00
C2036  C     0.90784   0.84874   0.52420   0.00000  Uiso   1.00
Cu2037 Cu    0.83333   0.88022   0.75000   0.00000  Uiso   1.00
Cu2038 Cu    0.83333   0.78645   0.75000   0.00000  Uiso   1.00
H2039  H     0.89929   0.84436   0.88836   0.00000  Uiso   1.00
H2040  H     0.76750   0.82978   0.61164   0.00000  Uiso   1.00
N2041  N     0.83333   0.95069   0.75000   0.00000  Uiso   1.00
N2042  N     0.83333   0.71598   0.75000   0.00000  Uiso   1.00
O2043  O     0.77321   0.87291   0.74999   0.00000  Uiso   1.00
O2044  O     0.89345   0.79375   0.75000   0.00000  Uiso   1.00
O2045  O     0.89345   0.87291   0.75000   0.00000  Uiso   1.00
O2046  O     0.77321   0.79375   0.74999   0.00000  Uiso   1.00
O2047  O     0.83332   0.87293   0.68513   0.00000  Uiso   1.00
O2048  O     0.83334   0.79373   0.81487   0.00000  Uiso   1.00
O2049  O     0.83334   0.87293   0.81487   0.00000  Uiso   1.00
O2050  O     0.83332   0.79373   0.68513   0.00000  Uiso   1.00
H2051  H     0.77196   0.81567   0.88660   0.00000  Uiso   1.00
H2052  H     0.89711   0.84563   0.61470   0.00000  Uiso   1.00
C2053  C     0.71937   0.82301   0.95297   0.00000  Uiso   1.00
C2054  C     0.70881   0.85256   0.91659   0.00000  Uiso   1.00
C2055  C     0.67451   0.84357   0.89029   0.00000  Uiso   1.00
C2056  C     0.98210   0.80756   0.90225   0.00000  Uiso   1.00
C2057  C     0.99024   0.78085   0.94104   0.00000  Uiso   1.00
C2058  C     0.69241   0.78801   0.96592   0.00000  Uiso   1.00
H2059  H     0.72848   0.88081   0.90698   0.00000  Uiso   1.00
H2060  H     0.66824   0.86399   0.86025   0.00000  Uiso   1.00
H2061  H     0.95578   0.80089   0.88151   0.00000  Uiso   1.00
H2062  H     0.96970   0.75398   0.95166   0.00000  Uiso   1.00
H2063  H     0.69940   0.76549   0.99449   0.00000  Uiso   1.00
C2064  C     0.94640   0.85857   0.54819   0.00000  Uiso   1.00
C2065  C     0.96026   0.90374   0.54994   0.00000  Uiso   1.00
C2066  C     0.99212   0.91473   0.57922   0.00000  Uiso   1.00
C2067  C     0.67685   0.88073   0.60684   0.00000  Uiso   1.00
C2068  C     0.99728   0.83557   0.60427   0.00000  Uiso   1.00
C2069  C     0.96586   0.82425   0.57461   0.00000  Uiso   1.00
H2070  H     0.94522   0.93063   0.53015   0.00000  Uiso   1.00
H2071  H     0.66867   0.94981   0.58139   0.00000  Uiso   1.00
H2072  H     0.70052   0.88929   0.63066   0.00000  Uiso   1.00
H2073  H     0.67757   0.80968   0.62622   0.00000  Uiso   1.00
H2074  H     0.95514   0.78935   0.57404   0.00000  Uiso   1.00
H2075  H     0.73090   0.82688   0.54117   0.00000  Uiso   1.00
H2076  H     0.93571   0.85510   0.95945   0.00000  Uiso   1.00
H2077  H     0.70441   0.76409   0.77607   0.00000  Uiso   1.00
H2078  H     0.96229   0.90263   0.72223   0.00000  Uiso   1.00
H2079  H     0.96349   0.76361   0.77434   0.00000  Uiso   1.00
H2080  H     0.70354   0.90320   0.72360   0.00000  Uiso   1.00
C2081  C     0.78771   0.71543   0.68245   0.00000  Uiso   1.00
C2082  C     0.80014   0.72212   0.63758   0.00000  Uiso   1.00
C2083  C     0.77118   0.73083   0.60361   0.00000  Uiso   1.00
C2084  C     0.72978   0.73449   0.61416   0.00000  Uiso   1.00
C2085  C     0.71720   0.72894   0.65869   0.00000  Uiso   1.00
C2086  C     0.74593   0.71875   0.69256   0.00000  Uiso   1.00
H2087  H     0.83202   0.71835   0.62871   0.00000  Uiso   1.00
H2088  H     0.78085   0.73442   0.56904   0.00000  Uiso   1.00
H2089  H     0.70743   0.74121   0.58775   0.00000  Uiso   1.00
H2090  H     0.68502   0.73103   0.66679   0.00000  Uiso   1.00
H2091  H     0.73545   0.71107   0.72630   0.00000  Uiso   1.00
C2092  C     0.87893   0.95061   0.81710   0.00000  Uiso   1.00
C2093  C     0.86776   0.94567   0.86249   0.00000  Uiso   1.00
C2094  C     0.89774   0.93877   0.89575   0.00000  Uiso   1.00
C2095  C     0.93882   0.93454   0.88395   0.00000  Uiso   1.00
C2096  C     0.95007   0.93807   0.83886   0.00000  Uiso   1.00
C2097  C     0.92037   0.94653   0.80568   0.00000  Uiso   1.00
H2098  H     0.83618   0.95019   0.87228   0.00000  Uiso   1.00
H2099  H     0.88910   0.93715   0.93074   0.00000  Uiso   1.00
H2100  H     0.96195   0.92932   0.90980   0.00000  Uiso   1.00
H2101  H     0.98201   0.93640   0.82970   0.00000  Uiso   1.00
H2102  H     0.92993   0.95335   0.77146   0.00000  Uiso   1.00
C2103  C     0.86222   0.71052   0.82743   0.00000  Uiso   1.00
C2104  C     0.90398   0.71547   0.83662   0.00000  Uiso   1.00
C2105  C     0.91748   0.72042   0.88064   0.00000  Uiso   1.00
C2106  C     0.88935   0.72373   0.91554   0.00000  Uiso   1.00
C2107  C     0.84751   0.72031   0.90652   0.00000  Uiso   1.00
C2108  C     0.83395   0.71273   0.86279   0.00000  Uiso   1.00
H2109  H     0.92617   0.71028   0.81057   0.00000  Uiso   1.00
H2110  H     0.94993   0.71953   0.88754   0.00000  Uiso   1.00
H2111  H     0.89989   0.72775   0.94968   0.00000  Uiso   1.00
H2112  H     0.82572   0.72201   0.93360   0.00000  Uiso   1.00
H2113  H     0.80168   0.70709   0.85660   0.00000  Uiso   1.00
C2114  C     0.81500   0.95803   0.66897   0.00000  Uiso   1.00
C2115  C     0.85021   0.95849   0.64198   0.00000  Uiso   1.00
C2116  C     0.84705   0.95116   0.59599   0.00000  Uiso   1.00
C2117  C     0.80881   0.94367   0.57649   0.00000  Uiso   1.00
C2118  C     0.77381   0.94241   0.60312   0.00000  Uiso   1.00
C2119  C     0.77673   0.94913   0.64937   0.00000  Uiso   1.00
H2120  H     0.87982   0.96635   0.65633   0.00000  Uiso   1.00
H2121  H     0.87416   0.95206   0.57535   0.00000  Uiso   1.00
H2122  H     0.80629   0.93868   0.54074   0.00000  Uiso   1.00
H2123  H     0.74439   0.93738   0.58745   0.00000  Uiso   1.00
H2124  H     0.74919   0.95012   0.66927   0.00000  Uiso   1.00
loop_
_geom_bond_atom_site_label_1
_geom_bond_atom_site_label_2
_geom_bond_distance
_geom_bond_site_symmetry_2
_ccdc_geom_bond_type
C1     O40     1.315   .     A
C1     O37     1.315   .     A
C1     C10     1.461   .     S
C2     O39     1.314   .     A
C2     O38     1.316   .     A
C2     C9      1.464   .     S
C3     C28     1.394   .     A
C3     H69     1.084   .     S
C3     C1091   1.397   1_554 S
C4     H70     1.081   .     S
C4     C27     1.401   .     A
C4     C1092   1.397   .     S
C5     C10     1.401   .     A
C5     H71     1.082   .     S
C5     C243    1.388   1_455 S
C6     C9      1.403   .     A
C6     H72     1.082   .     S
C6     C126    1.391   .     S
C7     H73     1.078   .     S
C7     C9      1.400   .     A
C7     C123    1.388   .     S
C8     H74     1.083   .     S
C8     C10     1.402   .     A
C8     C242    1.391   1_455 S
C11    N36     1.377   .     A
C11    C75     1.483   .     S
C11    C722    1.436   1_545 S
C12    N35     1.374   .     A
C12    C86     1.483   .     S
C12    C367    1.439   .     S
C13    N36     1.379   .     A
C13    C97     1.472   .     S
C13    C720    1.439   1_545 S
C14    C108    1.475   .     S
C14    N35     1.381   .     A
C14    C365    1.436   .     S
C15    O44     1.308   .     A
C15    C20     1.432   .     S
C15    O41     1.307   .     A
C16    O43     1.310   .     A
C16    O42     1.310   .     A
C16    C19     1.441   .     S
C17    H33     1.081   .     S
C17    C27     1.394   .     A
C17    C19     1.390   .     A
C18    C20     1.388   .     A
C18    C28     1.390   .     A
C18    H34     1.085   .     S
C19    C21     1.387   .     A
C20    C22     1.388   .     A
C21    H45     1.080   .     S
C21    C23     1.402   .     A
C22    H46     1.082   .     S
C22    C24     1.400   .     A
C23    C29     1.417   .     A
C23    C25     1.417   .     A
C24    C26     1.416   .     A
C24    C30     1.413   .     A
C25    C27     1.412   .     A
C25    C1088   1.401   .     S
C26    C28     1.412   .     A
C26    C1087   1.401   1_554 S
C29    C47     1.479   .     S
C29    C1065   1.397   .     S
C30    C58     1.478   .     S
C30    C1066   1.397   1_554 S
Cu31   O43     1.938   .     S
Cu31   O37     1.977   .     S
Cu31   O41     1.951   .     S
Cu31   Cu32    2.747   .     S
Cu31   O39     1.975   .     S
Cu31   N35     2.065   .     S
Cu32   O38     1.977   .     S
Cu32   O44     1.938   .     S
Cu32   N36     2.065   .     S
Cu32   O40     1.975   .     S
Cu32   O42     1.951   .     S
C47    C48     1.407   .     A
C47    C52     1.402   .     A
C48    H53     1.083   .     S
C48    C49     1.393   .     A
C49    H54     1.079   .     S
C49    C286    1.392   1_455 S
C50    C51     1.399   .     A
C50    H55     1.077   .     S
C50    C167    1.392   .     S
C51    H56     1.079   .     S
C51    C170    1.392   .     S
C52    H57     1.083   .     S
C52    C287    1.392   1_455 S
C58    C63     1.405   .     A
C58    C59     1.403   .     A
C59    C60     1.398   .     A
C59    H64     1.083   .     S
C60    C179    1.398   .     S
C60    H183    1.082   .     S
C61    H66     1.081   .     S
C61    C296    1.398   1_455 S
C61    C298    1.395   1_455 S
C62    C63     1.397   .     A
C62    C179    1.395   .     S
C62    H185    1.079   .     S
C63    H68     1.083   .     S
H65    C296    1.082   1_455 S
H67    C298    1.079   1_455 S
C75    C80     1.404   .     A
C75    C76     1.409   .     A
C76    C77     1.397   .     A
C76    H81     1.083   .     S
C77    C78     1.396   .     A
C77    H82     1.082   .     S
C78    H83     1.082   .     S
C78    C79     1.397   .     A
C79    H84     1.082   .     S
C79    C80     1.398   .     A
C80    H85     1.082   .     S
C86    C91     1.404   .     A
C86    C87     1.407   .     A
C87    C88     1.398   .     A
C87    H92     1.083   .     S
C88    H93     1.082   .     S
C88    C89     1.396   .     A
C89    H94     1.082   .     S
C89    C90     1.397   .     A
C90    H95     1.082   .     S
C90    C91     1.396   .     A
C91    H96     1.082   .     S
C97    C98     1.399   .     A
C97    C102    1.409   .     A
C98    C99     1.393   .     A
C98    H103    1.080   .     S
C99    C100    1.398   .     A
C99    H104    1.078   .     S
C100   H105    1.082   .     S
C100   C101    1.396   .     A
C101   C102    1.397   .     A
C101   H106    1.082   .     S
C102   H107    1.083   .     S
C108   C109    1.409   .     A
C108   C113    1.405   .     A
C109   H114    1.083   .     S
C109   C110    1.397   .     A
C110   C111    1.395   .     A
C110   H115    1.082   .     S
C111   C112    1.397   .     A
C111   H116    1.082   .     S
C112   H117    1.078   .     S
C112   C113    1.401   .     A
C113   H118    1.082   .     S
C119   O158    1.315   .     A
C119   O155    1.315   .     A
C119   C128    1.461   .     S
C120   O157    1.314   .     A
C120   O156    1.316   .     A
C120   C127    1.464   .     S
C121   C146    1.394   .     A
C121   H187    1.084   .     S
C121   C1209   1.397   1_554 S
C122   H188    1.081   .     S
C122   C145    1.401   .     A
C122   C1210   1.397   .     S
C123   C128    1.401   .     A
C123   H189    1.082   .     S
C124   C127    1.403   .     A
C124   H190    1.082   .     S
C124   C244    1.391   .     S
C125   H191    1.078   .     S
C125   C127    1.400   .     A
C125   C241    1.388   .     S
C126   H192    1.083   .     S
C126   C128    1.402   .     A
C129   N154    1.377   .     A
C129   C193    1.483   .     S
C129   C840    1.436   1_545 S
C130   N153    1.374   .     A
C130   C204    1.483   .     S
C130   C485    1.439   .     S
C131   N154    1.379   .     A
C131   C215    1.472   .     S
C131   C838    1.439   1_545 S
C132   C226    1.475   .     S
C132   N153    1.381   .     A
C132   C483    1.436   .     S
C133   O162    1.308   .     A
C133   C138    1.432   .     S
C133   O159    1.307   .     A
C134   O161    1.310   .     A
C134   O160    1.310   .     A
C134   C137    1.441   .     S
C135   H151    1.081   .     S
C135   C145    1.394   .     A
C135   C137    1.390   .     A
C136   C138    1.388   .     A
C136   C146    1.390   .     A
C136   H152    1.085   .     S
C137   C139    1.387   .     A
C138   C140    1.388   .     A
C139   H163    1.080   .     S
C139   C141    1.402   .     A
C140   H164    1.082   .     S
C140   C142    1.400   .     A
C141   C147    1.417   .     A
C141   C143    1.417   .     A
C142   C144    1.416   .     A
C142   C148    1.413   .     A
C143   C145    1.412   .     A
C143   C1206   1.401   .     S
C144   C146    1.412   .     A
C144   C1205   1.401   1_554 S
C147   C165    1.479   .     S
C147   C1183   1.397   .     S
C148   C176    1.478   .     S
C148   C1184   1.397   1_554 S
Cu149  O161    1.938   .     S
Cu149  O155    1.977   .     S
Cu149  O159    1.951   .     S
Cu149  Cu150   2.747   .     S
Cu149  O157    1.975   .     S
Cu149  N153    2.065   .     S
Cu150  O156    1.977   .     S
Cu150  O162    1.938   .     S
Cu150  N154    2.065   .     S
Cu150  O158    1.975   .     S
Cu150  O160    1.951   .     S
C165   C166    1.407   .     A
C165   C170    1.402   .     A
C166   H171    1.083   .     S
C166   C167    1.393   .     A
C167   H172    1.079   .     S
C168   C169    1.399   .     A
C168   H173    1.077   .     S
C168   C285    1.392   .     S
C169   H174    1.079   .     S
C169   C288    1.392   .     S
C170   H175    1.083   .     S
C176   C181    1.405   .     A
C176   C177    1.403   .     A
C177   C178    1.398   .     A
C177   H182    1.083   .     S
C178   C297    1.398   .     S
C178   H301    1.082   .     S
C179   H184    1.081   .     S
C180   C181    1.397   .     A
C180   C297    1.395   .     S
C180   H303    1.079   .     S
C181   H186    1.083   .     S
C193   C198    1.404   .     A
C193   C194    1.409   .     A
C194   C195    1.397   .     A
C194   H199    1.083   .     S
C195   C196    1.396   .     A
C195   H200    1.082   .     S
C196   H201    1.082   .     S
C196   C197    1.397   .     A
C197   H202    1.082   .     S
C197   C198    1.398   .     A
C198   H203    1.082   .     S
C204   C209    1.404   .     A
C204   C205    1.407   .     A
C205   C206    1.398   .     A
C205   H210    1.083   .     S
C206   H211    1.082   .     S
C206   C207    1.396   .     A
C207   H212    1.082   .     S
C207   C208    1.397   .     A
C208   H213    1.082   .     S
C208   C209    1.396   .     A
C209   H214    1.082   .     S
C215   C216    1.399   .     A
C215   C220    1.409   .     A
C216   C217    1.393   .     A
C216   H221    1.080   .     S
C217   C218    1.398   .     A
C217   H222    1.078   .     S
C218   H223    1.082   .     S
C218   C219    1.396   .     A
C219   C220    1.397   .     A
C219   H224    1.082   .     S
C220   H225    1.083   .     S
C226   C227    1.409   .     A
C226   C231    1.405   .     A
C227   H232    1.083   .     S
C227   C228    1.397   .     A
C228   C229    1.395   .     A
C228   H233    1.082   .     S
C229   C230    1.397   .     A
C229   H234    1.082   .     S
C230   H235    1.078   .     S
C230   C231    1.401   .     A
C231   H236    1.082   .     S
C237   O276    1.315   .     A
C237   O273    1.315   .     A
C237   C246    1.461   .     S
C238   O275    1.314   .     A
C238   O274    1.316   .     A
C238   C245    1.464   .     S
C239   C264    1.394   .     A
C239   H305    1.084   .     S
C239   C1327   1.397   1_554 S
C240   H306    1.081   .     S
C240   C263    1.401   .     A
C240   C1328   1.397   .     S
C241   C246    1.401   .     A
C241   H307    1.082   .     S
C242   C245    1.403   .     A
C242   H308    1.082   .     S
C242   C8      1.391   1_655 S
C243   H309    1.078   .     S
C243   C245    1.400   .     A
C243   C5      1.388   1_655 S
C244   H310    1.083   .     S
C244   C246    1.402   .     A
C247   N272    1.377   .     A
C247   C311    1.483   .     S
C247   C958    1.436   1_545 S
C248   N271    1.374   .     A
C248   C322    1.483   .     S
C248   C603    1.439   .     S
C249   N272    1.379   .     A
C249   C333    1.472   .     S
C249   C956    1.439   1_545 S
C250   C344    1.475   .     S
C250   N271    1.381   .     A
C250   C601    1.436   .     S
C251   O280    1.308   .     A
C251   C256    1.432   .     S
C251   O277    1.307   .     A
C252   O279    1.310   .     A
C252   O278    1.310   .     A
C252   C255    1.441   .     S
C253   H269    1.081   .     S
C253   C263    1.394   .     A
C253   C255    1.390   .     A
C254   C256    1.388   .     A
C254   C264    1.390   .     A
C254   H270    1.085   .     S
C255   C257    1.387   .     A
C256   C258    1.388   .     A
C257   H281    1.080   .     S
C257   C259    1.402   .     A
C258   H282    1.082   .     S
C258   C260    1.400   .     A
C259   C265    1.417   .     A
C259   C261    1.417   .     A
C260   C262    1.416   .     A
C260   C266    1.413   .     A
C261   C263    1.412   .     A
C261   C1324   1.401   .     S
C262   C264    1.412   .     A
C262   C1323   1.401   1_554 S
C265   C283    1.479   .     S
C265   C1301   1.397   .     S
C266   C294    1.478   .     S
C266   C1302   1.397   1_554 S
Cu267  O279    1.938   .     S
Cu267  O273    1.977   .     S
Cu267  O277    1.951   .     S
Cu267  Cu268   2.747   .     S
Cu267  O275    1.975   .     S
Cu267  N271    2.065   .     S
Cu268  O274    1.977   .     S
Cu268  O280    1.938   .     S
Cu268  N272    2.065   .     S
Cu268  O276    1.975   .     S
Cu268  O278    1.951   .     S
C283   C284    1.407   .     A
C283   C288    1.402   .     A
C284   H289    1.083   .     S
C284   C285    1.393   .     A
C285   H290    1.079   .     S
C286   C287    1.399   .     A
C286   H291    1.077   .     S
C286   C49     1.392   1_655 S
C287   H292    1.079   .     S
C287   C52     1.392   1_655 S
C288   H293    1.083   .     S
C294   C299    1.405   .     A
C294   C295    1.403   .     A
C295   C296    1.398   .     A
C295   H300    1.083   .     S
C296   C61     1.398   1_655 S
C296   H65     1.082   1_655 S
C297   H302    1.081   .     S
C298   C299    1.397   .     A
C298   C61     1.395   1_655 S
C298   H67     1.079   1_655 S
C299   H304    1.083   .     S
C311   C316    1.404   .     A
C311   C312    1.409   .     A
C312   C313    1.397   .     A
C312   H317    1.083   .     S
C313   C314    1.396   .     A
C313   H318    1.082   .     S
C314   H319    1.082   .     S
C314   C315    1.397   .     A
C315   H320    1.082   .     S
C315   C316    1.398   .     A
C316   H321    1.082   .     S
C322   C327    1.404   .     A
C322   C323    1.407   .     A
C323   C324    1.398   .     A
C323   H328    1.083   .     S
C324   H329    1.082   .     S
C324   C325    1.396   .     A
C325   H330    1.082   .     S
C325   C326    1.397   .     A
C326   H331    1.082   .     S
C326   C327    1.396   .     A
C327   H332    1.082   .     S
C333   C334    1.399   .     A
C333   C338    1.409   .     A
C334   C335    1.393   .     A
C334   H339    1.080   .     S
C335   C336    1.398   .     A
C335   H340    1.078   .     S
C336   H341    1.082   .     S
C336   C337    1.396   .     A
C337   C338    1.397   .     A
C337   H342    1.082   .     S
C338   H343    1.083   .     S
C344   C345    1.409   .     A
C344   C349    1.405   .     A
C345   H350    1.083   .     S
C345   C346    1.397   .     A
C346   C347    1.395   .     A
C346   H351    1.082   .     S
C347   C348    1.397   .     A
C347   H352    1.082   .     S
C348   H353    1.078   .     S
C348   C349    1.401   .     A
C349   H354    1.082   .     S
C355   O394    1.315   .     A
C355   O391    1.315   .     A
C355   C364    1.461   .     S
C356   O393    1.314   .     A
C356   O392    1.316   .     A
C356   C363    1.464   .     S
C357   C382    1.394   .     A
C357   H423    1.084   .     S
C357   C1445   1.397   1_554 S
C358   H424    1.081   .     S
C358   C381    1.401   .     A
C358   C1446   1.397   .     S
C359   C364    1.401   .     A
C359   H425    1.082   .     S
C359   C597    1.388   1_455 S
C360   C363    1.403   .     A
C360   H426    1.082   .     S
C360   C480    1.391   .     S
C361   H427    1.078   .     S
C361   C363    1.400   .     A
C361   C477    1.388   .     S
C362   H428    1.083   .     S
C362   C364    1.402   .     A
C362   C596    1.391   1_455 S
C365   N390    1.377   .     A
C365   C429    1.483   .     S
C366   N389    1.374   .     A
C366   C440    1.483   .     S
C366   C721    1.439   .     S
C367   N390    1.379   .     A
C367   C451    1.472   .     S
C368   C462    1.475   .     S
C368   N389    1.381   .     A
C368   C719    1.436   .     S
C369   O398    1.308   .     A
C369   C374    1.432   .     S
C369   O395    1.307   .     A
C370   O397    1.310   .     A
C370   O396    1.310   .     A
C370   C373    1.441   .     S
C371   H387    1.081   .     S
C371   C381    1.394   .     A
C371   C373    1.390   .     A
C372   C374    1.388   .     A
C372   C382    1.390   .     A
C372   H388    1.085   .     S
C373   C375    1.387   .     A
C374   C376    1.388   .     A
C375   H399    1.080   .     S
C375   C377    1.402   .     A
C376   H400    1.082   .     S
C376   C378    1.400   .     A
C377   C383    1.417   .     A
C377   C379    1.417   .     A
C378   C380    1.416   .     A
C378   C384    1.413   .     A
C379   C381    1.412   .     A
C379   C1442   1.401   .     S
C380   C382    1.412   .     A
C380   C1441   1.401   1_554 S
C383   C401    1.479   .     S
C383   C1419   1.397   .     S
C384   C412    1.478   .     S
C384   C1420   1.397   1_554 S
Cu385  O397    1.938   .     S
Cu385  O391    1.977   .     S
Cu385  O395    1.951   .     S
Cu385  Cu386   2.747   .     S
Cu385  O393    1.975   .     S
Cu385  N389    2.065   .     S
Cu386  O392    1.977   .     S
Cu386  O398    1.938   .     S
Cu386  N390    2.065   .     S
Cu386  O394    1.975   .     S
Cu386  O396    1.951   .     S
C401   C402    1.407   .     A
C401   C406    1.402   .     A
C402   H407    1.083   .     S
C402   C403    1.393   .     A
C403   H408    1.079   .     S
C403   C640    1.392   1_455 S
C404   C405    1.399   .     A
C404   H409    1.077   .     S
C404   C521    1.392   .     S
C405   H410    1.079   .     S
C405   C524    1.392   .     S
C406   H411    1.083   .     S
C406   C641    1.392   1_455 S
C412   C417    1.405   .     A
C412   C413    1.403   .     A
C413   C414    1.398   .     A
C413   H418    1.083   .     S
C414   C533    1.398   .     S
C414   H537    1.082   .     S
C415   H420    1.081   .     S
C415   C650    1.398   1_455 S
C415   C652    1.395   1_455 S
C416   C417    1.397   .     A
C416   C533    1.395   .     S
C416   H539    1.079   .     S
C417   H422    1.083   .     S
H419   C650    1.082   1_455 S
H421   C652    1.079   1_455 S
C429   C434    1.404   .     A
C429   C430    1.409   .     A
C430   C431    1.397   .     A
C430   H435    1.083   .     S
C431   C432    1.396   .     A
C431   H436    1.082   .     S
C432   H437    1.082   .     S
C432   C433    1.397   .     A
C433   H438    1.082   .     S
C433   C434    1.398   .     A
C434   H439    1.082   .     S
C440   C445    1.404   .     A
C440   C441    1.407   .     A
C441   C442    1.398   .     A
C441   H446    1.083   .     S
C442   H447    1.082   .     S
C442   C443    1.396   .     A
C443   H448    1.082   .     S
C443   C444    1.397   .     A
C444   H449    1.082   .     S
C444   C445    1.396   .     A
C445   H450    1.082   .     S
C451   C452    1.399   .     A
C451   C456    1.409   .     A
C452   C453    1.393   .     A
C452   H457    1.080   .     S
C453   C454    1.398   .     A
C453   H458    1.078   .     S
C454   H459    1.082   .     S
C454   C455    1.396   .     A
C455   C456    1.397   .     A
C455   H460    1.082   .     S
C456   H461    1.083   .     S
C462   C463    1.409   .     A
C462   C467    1.405   .     A
C463   H468    1.083   .     S
C463   C464    1.397   .     A
C464   C465    1.395   .     A
C464   H469    1.082   .     S
C465   C466    1.397   .     A
C465   H470    1.082   .     S
C466   H471    1.078   .     S
C466   C467    1.401   .     A
C467   H472    1.082   .     S
C473   O512    1.315   .     A
C473   O509    1.315   .     A
C473   C482    1.461   .     S
C474   O511    1.314   .     A
C474   O510    1.316   .     A
C474   C481    1.464   .     S
C475   C500    1.394   .     A
C475   H541    1.084   .     S
C475   C1563   1.397   1_554 S
C476   H542    1.081   .     S
C476   C499    1.401   .     A
C476   C1564   1.397   .     S
C477   C482    1.401   .     A
C477   H543    1.082   .     S
C478   C481    1.403   .     A
C478   H544    1.082   .     S
C478   C598    1.391   .     S
C479   H545    1.078   .     S
C479   C481    1.400   .     A
C479   C595    1.388   .     S
C480   H546    1.083   .     S
C480   C482    1.402   .     A
C483   N508    1.377   .     A
C483   C547    1.483   .     S
C484   N507    1.374   .     A
C484   C558    1.483   .     S
C484   C839    1.439   .     S
C485   N508    1.379   .     A
C485   C569    1.472   .     S
C486   C580    1.475   .     S
C486   N507    1.381   .     A
C486   C837    1.436   .     S
C487   O516    1.308   .     A
C487   C492    1.432   .     S
C487   O513    1.307   .     A
C488   O515    1.310   .     A
C488   O514    1.310   .     A
C488   C491    1.441   .     S
C489   H505    1.081   .     S
C489   C499    1.394   .     A
C489   C491    1.390   .     A
C490   C492    1.388   .     A
C490   C500    1.390   .     A
C490   H506    1.085   .     S
C491   C493    1.387   .     A
C492   C494    1.388   .     A
C493   H517    1.080   .     S
C493   C495    1.402   .     A
C494   H518    1.082   .     S
C494   C496    1.400   .     A
C495   C501    1.417   .     A
C495   C497    1.417   .     A
C496   C498    1.416   .     A
C496   C502    1.413   .     A
C497   C499    1.412   .     A
C497   C1560   1.401   .     S
C498   C500    1.412   .     A
C498   C1559   1.401   1_554 S
C501   C519    1.479   .     S
C501   C1537   1.397   .     S
C502   C530    1.478   .     S
C502   C1538   1.397   1_554 S
Cu503  O515    1.938   .     S
Cu503  O509    1.977   .     S
Cu503  O513    1.951   .     S
Cu503  Cu504   2.747   .     S
Cu503  O511    1.975   .     S
Cu503  N507    2.065   .     S
Cu504  O510    1.977   .     S
Cu504  O516    1.938   .     S
Cu504  N508    2.065   .     S
Cu504  O512    1.975   .     S
Cu504  O514    1.951   .     S
C519   C520    1.407   .     A
C519   C524    1.402   .     A
C520   H525    1.083   .     S
C520   C521    1.393   .     A
C521   H526    1.079   .     S
C522   C523    1.399   .     A
C522   H527    1.077   .     S
C522   C639    1.392   .     S
C523   H528    1.079   .     S
C523   C642    1.392   .     S
C524   H529    1.083   .     S
C530   C535    1.405   .     A
C530   C531    1.403   .     A
C531   C532    1.398   .     A
C531   H536    1.083   .     S
C532   C651    1.398   .     S
C532   H655    1.082   .     S
C533   H538    1.081   .     S
C534   C535    1.397   .     A
C534   C651    1.395   .     S
C534   H657    1.079   .     S
C535   H540    1.083   .     S
C547   C552    1.404   .     A
C547   C548    1.409   .     A
C548   C549    1.397   .     A
C548   H553    1.083   .     S
C549   C550    1.396   .     A
C549   H554    1.082   .     S
C550   H555    1.082   .     S
C550   C551    1.397   .     A
C551   H556    1.082   .     S
C551   C552    1.398   .     A
C552   H557    1.082   .     S
C558   C563    1.404   .     A
C558   C559    1.407   .     A
C559   C560    1.398   .     A
C559   H564    1.083   .     S
C560   H565    1.082   .     S
C560   C561    1.396   .     A
C561   H566    1.082   .     S
C561   C562    1.397   .     A
C562   H567    1.082   .     S
C562   C563    1.396   .     A
C563   H568    1.082   .     S
C569   C570    1.399   .     A
C569   C574    1.409   .     A
C570   C571    1.393   .     A
C570   H575    1.080   .     S
C571   C572    1.398   .     A
C571   H576    1.078   .     S
C572   H577    1.082   .     S
C572   C573    1.396   .     A
C573   C574    1.397   .     A
C573   H578    1.082   .     S
C574   H579    1.083   .     S
C580   C581    1.409   .     A
C580   C585    1.405   .     A
C581   H586    1.083   .     S
C581   C582    1.397   .     A
C582   C583    1.395   .     A
C582   H587    1.082   .     S
C583   C584    1.397   .     A
C583   H588    1.082   .     S
C584   H589    1.078   .     S
C584   C585    1.401   .     A
C585   H590    1.082   .     S
C591   O630    1.315   .     A
C591   O627    1.315   .     A
C591   C600    1.461   .     S
C592   O629    1.314   .     A
C592   O628    1.316   .     A
C592   C599    1.464   .     S
C593   C618    1.394   .     A
C593   H659    1.084   .     S
C593   C1681   1.397   1_554 S
C594   H660    1.081   .     S
C594   C617    1.401   .     A
C594   C1682   1.397   .     S
C595   C600    1.401   .     A
C595   H661    1.082   .     S
C596   C599    1.403   .     A
C596   H662    1.082   .     S
C596   C362    1.391   1_655 S
C597   H663    1.078   .     S
C597   C599    1.400   .     A
C597   C359    1.388   1_655 S
C598   H664    1.083   .     S
C598   C600    1.402   .     A
C601   N626    1.377   .     A
C601   C665    1.483   .     S
C602   N625    1.374   .     A
C602   C676    1.483   .     S
C602   C957    1.439   .     S
C603   N626    1.379   .     A
C603   C687    1.472   .     S
C604   C698    1.475   .     S
C604   N625    1.381   .     A
C604   C955    1.436   .     S
C605   O634    1.308   .     A
C605   C610    1.432   .     S
C605   O631    1.307   .     A
C606   O633    1.310   .     A
C606   O632    1.310   .     A
C606   C609    1.441   .     S
C607   H623    1.081   .     S
C607   C617    1.394   .     A
C607   C609    1.390   .     A
C608   C610    1.388   .     A
C608   C618    1.390   .     A
C608   H624    1.085   .     S
C609   C611    1.387   .     A
C610   C612    1.388   .     A
C611   H635    1.080   .     S
C611   C613    1.402   .     A
C612   H636    1.082   .     S
C612   C614    1.400   .     A
C613   C619    1.417   .     A
C613   C615    1.417   .     A
C614   C616    1.416   .     A
C614   C620    1.413   .     A
C615   C617    1.412   .     A
C615   C1678   1.401   .     S
C616   C618    1.412   .     A
C616   C1677   1.401   1_554 S
C619   C637    1.479   .     S
C619   C1655   1.397   .     S
C620   C648    1.478   .     S
C620   C1656   1.397   1_554 S
Cu621  O633    1.938   .     S
Cu621  O627    1.977   .     S
Cu621  O631    1.951   .     S
Cu621  Cu622   2.747   .     S
Cu621  O629    1.975   .     S
Cu621  N625    2.065   .     S
Cu622  O628    1.977   .     S
Cu622  O634    1.938   .     S
Cu622  N626    2.065   .     S
Cu622  O630    1.975   .     S
Cu622  O632    1.951   .     S
C637   C638    1.407   .     A
C637   C642    1.402   .     A
C638   H643    1.083   .     S
C638   C639    1.393   .     A
C639   H644    1.079   .     S
C640   C641    1.399   .     A
C640   H645    1.077   .     S
C640   C403    1.392   1_655 S
C641   H646    1.079   .     S
C641   C406    1.392   1_655 S
C642   H647    1.083   .     S
C648   C653    1.405   .     A
C648   C649    1.403   .     A
C649   C650    1.398   .     A
C649   H654    1.083   .     S
C650   C415    1.398   1_655 S
C650   H419    1.082   1_655 S
C651   H656    1.081   .     S
C652   C653    1.397   .     A
C652   C415    1.395   1_655 S
C652   H421    1.079   1_655 S
C653   H658    1.083   .     S
C665   C670    1.404   .     A
C665   C666    1.409   .     A
C666   C667    1.397   .     A
C666   H671    1.083   .     S
C667   C668    1.396   .     A
C667   H672    1.082   .     S
C668   H673    1.082   .     S
C668   C669    1.397   .     A
C669   H674    1.082   .     S
C669   C670    1.398   .     A
C670   H675    1.082   .     S
C676   C681    1.404   .     A
C676   C677    1.407   .     A
C677   C678    1.398   .     A
C677   H682    1.083   .     S
C678   H683    1.082   .     S
C678   C679    1.396   .     A
C679   H684    1.082   .     S
C679   C680    1.397   .     A
C680   H685    1.082   .     S
C680   C681    1.396   .     A
C681   H686    1.082   .     S
C687   C688    1.399   .     A
C687   C692    1.409   .     A
C688   C689    1.393   .     A
C688   H693    1.080   .     S
C689   C690    1.398   .     A
C689   H694    1.078   .     S
C690   H695    1.082   .     S
C690   C691    1.396   .     A
C691   C692    1.397   .     A
C691   H696    1.082   .     S
C692   H697    1.083   .     S
C698   C699    1.409   .     A
C698   C703    1.405   .     A
C699   H704    1.083   .     S
C699   C700    1.397   .     A
C700   C701    1.395   .     A
C700   H705    1.082   .     S
C701   C702    1.397   .     A
C701   H706    1.082   .     S
C702   H707    1.078   .     S
C702   C703    1.401   .     A
C703   H708    1.082   .     S
C709   O748    1.315   .     A
C709   O745    1.315   .     A
C709   C718    1.461   .     S
C710   O747    1.314   .     A
C710   O746    1.316   .     A
C710   C717    1.464   .     S
C711   C736    1.394   .     A
C711   H777    1.084   .     S
C711   C1799   1.397   1_554 S
C712   H778    1.081   .     S
C712   C735    1.401   .     A
C712   C1800   1.397   .     S
C713   C718    1.401   .     A
C713   H779    1.082   .     S
C713   C951    1.388   1_455 S
C714   C717    1.403   .     A
C714   H780    1.082   .     S
C714   C834    1.391   .     S
C715   H781    1.078   .     S
C715   C717    1.400   .     A
C715   C831    1.388   .     S
C716   H782    1.083   .     S
C716   C718    1.402   .     A
C716   C950    1.391   1_455 S
C719   N744    1.377   .     A
C719   C783    1.483   .     S
C720   N743    1.374   .     A
C720   C794    1.483   .     S
C720   C13     1.439   1_565 S
C721   N744    1.379   .     A
C721   C805    1.472   .     S
C722   C816    1.475   .     S
C722   N743    1.381   .     A
C722   C11     1.436   1_565 S
C723   O752    1.308   .     A
C723   C728    1.432   .     S
C723   O749    1.307   .     A
C724   O751    1.310   .     A
C724   O750    1.310   .     A
C724   C727    1.441   .     S
C725   H741    1.081   .     S
C725   C735    1.394   .     A
C725   C727    1.390   .     A
C726   C728    1.388   .     A
C726   C736    1.390   .     A
C726   H742    1.085   .     S
C727   C729    1.387   .     A
C728   C730    1.388   .     A
C729   H753    1.080   .     S
C729   C731    1.402   .     A
C730   H754    1.082   .     S
C730   C732    1.400   .     A
C731   C737    1.417   .     A
C731   C733    1.417   .     A
C732   C734    1.416   .     A
C732   C738    1.413   .     A
C733   C735    1.412   .     A
C733   C1796   1.401   .     S
C734   C736    1.412   .     A
C734   C1795   1.401   1_554 S
C737   C755    1.479   .     S
C737   C1773   1.397   .     S
C738   C766    1.478   .     S
C738   C1774   1.397   1_554 S
Cu739  O751    1.938   .     S
Cu739  O745    1.977   .     S
Cu739  O749    1.951   .     S
Cu739  Cu740   2.747   .     S
Cu739  O747    1.975   .     S
Cu739  N743    2.065   .     S
Cu740  O746    1.977   .     S
Cu740  O752    1.938   .     S
Cu740  N744    2.065   .     S
Cu740  O748    1.975   .     S
Cu740  O750    1.951   .     S
C755   C756    1.407   .     A
C755   C760    1.402   .     A
C756   H761    1.083   .     S
C756   C757    1.393   .     A
C757   H762    1.079   .     S
C757   C994    1.392   1_455 S
C758   C759    1.399   .     A
C758   H763    1.077   .     S
C758   C875    1.392   .     S
C759   H764    1.079   .     S
C759   C878    1.392   .     S
C760   H765    1.083   .     S
C760   C995    1.392   1_455 S
C766   C771    1.405   .     A
C766   C767    1.403   .     A
C767   C768    1.398   .     A
C767   H772    1.083   .     S
C768   C887    1.398   .     S
C768   H891    1.082   .     S
C769   H774    1.081   .     S
C769   C1004   1.398   1_455 S
C769   C1006   1.395   1_455 S
C770   C771    1.397   .     A
C770   C887    1.395   .     S
C770   H893    1.079   .     S
C771   H776    1.083   .     S
H773   C1004   1.082   1_455 S
H775   C1006   1.079   1_455 S
C783   C788    1.404   .     A
C783   C784    1.409   .     A
C784   C785    1.397   .     A
C784   H789    1.083   .     S
C785   C786    1.396   .     A
C785   H790    1.082   .     S
C786   H791    1.082   .     S
C786   C787    1.397   .     A
C787   H792    1.082   .     S
C787   C788    1.398   .     A
C788   H793    1.082   .     S
C794   C799    1.404   .     A
C794   C795    1.407   .     A
C795   C796    1.398   .     A
C795   H800    1.083   .     S
C796   H801    1.082   .     S
C796   C797    1.396   .     A
C797   H802    1.082   .     S
C797   C798    1.397   .     A
C798   H803    1.082   .     S
C798   C799    1.396   .     A
C799   H804    1.082   .     S
C805   C806    1.399   .     A
C805   C810    1.409   .     A
C806   C807    1.393   .     A
C806   H811    1.080   .     S
C807   C808    1.398   .     A
C807   H812    1.078   .     S
C808   H813    1.082   .     S
C808   C809    1.396   .     A
C809   C810    1.397   .     A
C809   H814    1.082   .     S
C810   H815    1.083   .     S
C816   C817    1.409   .     A
C816   C821    1.405   .     A
C817   H822    1.083   .     S
C817   C818    1.397   .     A
C818   C819    1.395   .     A
C818   H823    1.082   .     S
C819   C820    1.397   .     A
C819   H824    1.082   .     S
C820   H825    1.078   .     S
C820   C821    1.401   .     A
C821   H826    1.082   .     S
C827   O866    1.315   .     A
C827   O863    1.315   .     A
C827   C836    1.461   .     S
C828   O865    1.314   .     A
C828   O864    1.316   .     A
C828   C835    1.464   .     S
C829   C854    1.394   .     A
C829   H895    1.084   .     S
C829   C1917   1.397   1_554 S
C830   H896    1.081   .     S
C830   C853    1.401   .     A
C830   C1918   1.397   .     S
C831   C836    1.401   .     A
C831   H897    1.082   .     S
C832   C835    1.403   .     A
C832   H898    1.082   .     S
C832   C952    1.391   .     S
C833   H899    1.078   .     S
C833   C835    1.400   .     A
C833   C949    1.388   .     S
C834   H900    1.083   .     S
C834   C836    1.402   .     A
C837   N862    1.377   .     A
C837   C901    1.483   .     S
C838   N861    1.374   .     A
C838   C912    1.483   .     S
C838   C131    1.439   1_565 S
C839   N862    1.379   .     A
C839   C923    1.472   .     S
C840   C934    1.475   .     S
C840   N861    1.381   .     A
C840   C129    1.436   1_565 S
C841   O870    1.308   .     A
C841   C846    1.432   .     S
C841   O867    1.307   .     A
C842   O869    1.310   .     A
C842   O868    1.310   .     A
C842   C845    1.441   .     S
C843   H859    1.081   .     S
C843   C853    1.394   .     A
C843   C845    1.390   .     A
C844   C846    1.388   .     A
C844   C854    1.390   .     A
C844   H860    1.085   .     S
C845   C847    1.387   .     A
C846   C848    1.388   .     A
C847   H871    1.080   .     S
C847   C849    1.402   .     A
C848   H872    1.082   .     S
C848   C850    1.400   .     A
C849   C855    1.417   .     A
C849   C851    1.417   .     A
C850   C852    1.416   .     A
C850   C856    1.413   .     A
C851   C853    1.412   .     A
C851   C1914   1.401   .     S
C852   C854    1.412   .     A
C852   C1913   1.401   1_554 S
C855   C873    1.479   .     S
C855   C1891   1.397   .     S
C856   C884    1.478   .     S
C856   C1892   1.397   1_554 S
Cu857  O869    1.938   .     S
Cu857  O863    1.977   .     S
Cu857  O867    1.951   .     S
Cu857  Cu858   2.747   .     S
Cu857  O865    1.975   .     S
Cu857  N861    2.065   .     S
Cu858  O864    1.977   .     S
Cu858  O870    1.938   .     S
Cu858  N862    2.065   .     S
Cu858  O866    1.975   .     S
Cu858  O868    1.951   .     S
C873   C874    1.407   .     A
C873   C878    1.402   .     A
C874   H879    1.083   .     S
C874   C875    1.393   .     A
C875   H880    1.079   .     S
C876   C877    1.399   .     A
C876   H881    1.077   .     S
C876   C993    1.392   .     S
C877   H882    1.079   .     S
C877   C996    1.392   .     S
C878   H883    1.083   .     S
C884   C889    1.405   .     A
C884   C885    1.403   .     A
C885   C886    1.398   .     A
C885   H890    1.083   .     S
C886   C1005   1.398   .     S
C886   H1009   1.082   .     S
C887   H892    1.081   .     S
C888   C889    1.397   .     A
C888   C1005   1.395   .     S
C888   H1011   1.079   .     S
C889   H894    1.083   .     S
C901   C906    1.404   .     A
C901   C902    1.409   .     A
C902   C903    1.397   .     A
C902   H907    1.083   .     S
C903   C904    1.396   .     A
C903   H908    1.082   .     S
C904   H909    1.082   .     S
C904   C905    1.397   .     A
C905   H910    1.082   .     S
C905   C906    1.398   .     A
C906   H911    1.082   .     S
C912   C917    1.404   .     A
C912   C913    1.407   .     A
C913   C914    1.398   .     A
C913   H918    1.083   .     S
C914   H919    1.082   .     S
C914   C915    1.396   .     A
C915   H920    1.082   .     S
C915   C916    1.397   .     A
C916   H921    1.082   .     S
C916   C917    1.396   .     A
C917   H922    1.082   .     S
C923   C924    1.399   .     A
C923   C928    1.409   .     A
C924   C925    1.393   .     A
C924   H929    1.080   .     S
C925   C926    1.398   .     A
C925   H930    1.078   .     S
C926   H931    1.082   .     S
C926   C927    1.396   .     A
C927   C928    1.397   .     A
C927   H932    1.082   .     S
C928   H933    1.083   .     S
C934   C935    1.409   .     A
C934   C939    1.405   .     A
C935   H940    1.083   .     S
C935   C936    1.397   .     A
C936   C937    1.395   .     A
C936   H941    1.082   .     S
C937   C938    1.397   .     A
C937   H942    1.082   .     S
C938   H943    1.078   .     S
C938   C939    1.401   .     A
C939   H944    1.082   .     S
C945   O984    1.315   .     A
C945   O981    1.315   .     A
C945   C954    1.461   .     S
C946   O983    1.314   .     A
C946   O982    1.316   .     A
C946   C953    1.464   .     S
C947   C972    1.394   .     A
C947   H1013   1.084   .     S
C947   C2035   1.397   1_554 S
C948   H1014   1.081   .     S
C948   C971    1.401   .     A
C948   C2036   1.397   .     S
C949   C954    1.401   .     A
C949   H1015   1.082   .     S
C950   C953    1.403   .     A
C950   H1016   1.082   .     S
C950   C716    1.391   1_655 S
C951   H1017   1.078   .     S
C951   C953    1.400   .     A
C951   C713    1.388   1_655 S
C952   H1018   1.083   .     S
C952   C954    1.402   .     A
C955   N980    1.377   .     A
C955   C1019   1.483   .     S
C956   N979    1.374   .     A
C956   C1030   1.483   .     S
C956   C249    1.439   1_565 S
C957   N980    1.379   .     A
C957   C1041   1.472   .     S
C958   C1052   1.475   .     S
C958   N979    1.381   .     A
C958   C247    1.436   1_565 S
C959   O988    1.308   .     A
C959   C964    1.432   .     S
C959   O985    1.307   .     A
C960   O987    1.310   .     A
C960   O986    1.310   .     A
C960   C963    1.441   .     S
C961   H977    1.081   .     S
C961   C971    1.394   .     A
C961   C963    1.390   .     A
C962   C964    1.388   .     A
C962   C972    1.390   .     A
C962   H978    1.085   .     S
C963   C965    1.387   .     A
C964   C966    1.388   .     A
C965   H989    1.080   .     S
C965   C967    1.402   .     A
C966   H990    1.082   .     S
C966   C968    1.400   .     A
C967   C973    1.417   .     A
C967   C969    1.417   .     A
C968   C970    1.416   .     A
C968   C974    1.413   .     A
C969   C971    1.412   .     A
C969   C2032   1.401   .     S
C970   C972    1.412   .     A
C970   C2031   1.401   1_554 S
C973   C991    1.479   .     S
C973   C2009   1.397   .     S
C974   C1002   1.478   .     S
C974   C2010   1.397   1_554 S
Cu975  O987    1.938   .     S
Cu975  O981    1.977   .     S
Cu975  O985    1.951   .     S
Cu975  Cu976   2.747   .     S
Cu975  O983    1.975   .     S
Cu975  N979    2.065   .     S
Cu976  O982    1.977   .     S
Cu976  O988    1.938   .     S
Cu976  N980    2.065   .     S
Cu976  O984    1.975   .     S
Cu976  O986    1.951   .     S
C991   C992    1.407   .     A
C991   C996    1.402   .     A
C992   H997    1.083   .     S
C992   C993    1.393   .     A
C993   H998    1.079   .     S
C994   C995    1.399   .     A
C994   H999    1.077   .     S
C994   C757    1.392   1_655 S
C995   H1000   1.079   .     S
C995   C760    1.392   1_655 S
C996   H1001   1.083   .     S
C1002  C1007   1.405   .     A
C1002  C1003   1.403   .     A
C1003  C1004   1.398   .     A
C1003  H1008   1.083   .     S
C1004  C769    1.398   1_655 S
C1004  H773    1.082   1_655 S
C1005  H1010   1.081   .     S
C1006  C1007   1.397   .     A
C1006  C769    1.395   1_655 S
C1006  H775    1.079   1_655 S
C1007  H1012   1.083   .     S
C1019  C1024   1.404   .     A
C1019  C1020   1.409   .     A
C1020  C1021   1.397   .     A
C1020  H1025   1.083   .     S
C1021  C1022   1.396   .     A
C1021  H1026   1.082   .     S
C1022  H1027   1.082   .     S
C1022  C1023   1.397   .     A
C1023  H1028   1.082   .     S
C1023  C1024   1.398   .     A
C1024  H1029   1.082   .     S
C1030  C1035   1.404   .     A
C1030  C1031   1.407   .     A
C1031  C1032   1.398   .     A
C1031  H1036   1.083   .     S
C1032  H1037   1.082   .     S
C1032  C1033   1.396   .     A
C1033  H1038   1.082   .     S
C1033  C1034   1.397   .     A
C1034  H1039   1.082   .     S
C1034  C1035   1.396   .     A
C1035  H1040   1.082   .     S
C1041  C1042   1.399   .     A
C1041  C1046   1.409   .     A
C1042  C1043   1.393   .     A
C1042  H1047   1.080   .     S
C1043  C1044   1.398   .     A
C1043  H1048   1.078   .     S
C1044  H1049   1.082   .     S
C1044  C1045   1.396   .     A
C1045  C1046   1.397   .     A
C1045  H1050   1.082   .     S
C1046  H1051   1.083   .     S
C1052  C1053   1.409   .     A
C1052  C1057   1.405   .     A
C1053  H1058   1.083   .     S
C1053  C1054   1.397   .     A
C1054  C1055   1.395   .     A
C1054  H1059   1.082   .     S
C1055  C1056   1.397   .     A
C1055  H1060   1.082   .     S
C1056  H1061   1.078   .     S
C1056  C1057   1.401   .     A
C1057  H1062   1.082   .     S
C1063  O1102   1.315   .     A
C1063  O1099   1.315   .     A
C1063  C1072   1.461   .     S
C1064  O1101   1.314   .     A
C1064  O1100   1.316   .     A
C1064  C1071   1.464   .     S
C1065  C1090   1.394   .     A
C1065  H1131   1.084   .     S
C1066  H1132   1.081   .     S
C1066  C1089   1.401   .     A
C1066  C30     1.397   1_556 S
C1067  C1072   1.401   .     A
C1067  H1133   1.082   .     S
C1067  C1305   1.388   1_455 S
C1068  C1071   1.403   .     A
C1068  H1134   1.082   .     S
C1068  C1188   1.391   .     S
C1069  H1135   1.078   .     S
C1069  C1071   1.400   .     A
C1069  C1185   1.388   .     S
C1070  H1136   1.083   .     S
C1070  C1072   1.402   .     A
C1070  C1304   1.391   1_455 S
C1073  N1098   1.377   .     A
C1073  C1137   1.483   .     S
C1073  C1784   1.436   1_545 S
C1074  N1097   1.374   .     A
C1074  C1148   1.483   .     S
C1074  C1429   1.439   .     S
C1075  N1098   1.379   .     A
C1075  C1159   1.472   .     S
C1075  C1782   1.439   1_545 S
C1076  C1170   1.475   .     S
C1076  N1097   1.381   .     A
C1076  C1427   1.436   .     S
C1077  O1106   1.308   .     A
C1077  C1082   1.432   .     S
C1077  O1103   1.307   .     A
C1078  O1105   1.310   .     A
C1078  O1104   1.310   .     A
C1078  C1081   1.441   .     S
C1079  H1095   1.081   .     S
C1079  C1089   1.394   .     A
C1079  C1081   1.390   .     A
C1080  C1082   1.388   .     A
C1080  C1090   1.390   .     A
C1080  H1096   1.085   .     S
C1081  C1083   1.387   .     A
C1082  C1084   1.388   .     A
C1083  H1107   1.080   .     S
C1083  C1085   1.402   .     A
C1084  H1108   1.082   .     S
C1084  C1086   1.400   .     A
C1085  C1091   1.417   .     A
C1085  C1087   1.417   .     A
C1086  C1088   1.416   .     A
C1086  C1092   1.413   .     A
C1087  C1089   1.412   .     A
C1087  C26     1.401   1_556 S
C1088  C1090   1.412   .     A
C1091  C1109   1.479   .     S
C1091  C3      1.397   1_556 S
C1092  C1120   1.478   .     S
Cu1093 O1105   1.938   .     S
Cu1093 O1099   1.977   .     S
Cu1093 O1103   1.951   .     S
Cu1093 Cu1094  2.747   .     S
Cu1093 O1101   1.975   .     S
Cu1093 N1097   2.065   .     S
Cu1094 O1100   1.977   .     S
Cu1094 O1106   1.938   .     S
Cu1094 N1098   2.065   .     S
Cu1094 O1102   1.975   .     S
Cu1094 O1104   1.951   .     S
C1109  C1110   1.407   .     A
C1109  C1114   1.402   .     A
C1110  H1115   1.083   .     S
C1110  C1111   1.393   .     A
C1111  H1116   1.079   .     S
C1111  C1348   1.392   1_455 S
C1112  C1113   1.399   .     A
C1112  H1117   1.077   .     S
C1112  C1229   1.392   .     S
C1113  H1118   1.079   .     S
C1113  C1232   1.392   .     S
C1114  H1119   1.083   .     S
C1114  C1349   1.392   1_455 S
C1120  C1125   1.405   .     A
C1120  C1121   1.403   .     A
C1121  C1122   1.398   .     A
C1121  H1126   1.083   .     S
C1122  C1241   1.398   .     S
C1122  H1245   1.082   .     S
C1123  H1128   1.081   .     S
C1123  C1358   1.398   1_455 S
C1123  C1360   1.395   1_455 S
C1124  C1125   1.397   .     A
C1124  C1241   1.395   .     S
C1124  H1247   1.079   .     S
C1125  H1130   1.083   .     S
H1127  C1358   1.082   1_455 S
H1129  C1360   1.079   1_455 S
C1137  C1142   1.404   .     A
C1137  C1138   1.409   .     A
C1138  C1139   1.397   .     A
C1138  H1143   1.083   .     S
C1139  C1140   1.396   .     A
C1139  H1144   1.082   .     S
C1140  H1145   1.082   .     S
C1140  C1141   1.397   .     A
C1141  H1146   1.082   .     S
C1141  C1142   1.398   .     A
C1142  H1147   1.082   .     S
C1148  C1153   1.404   .     A
C1148  C1149   1.407   .     A
C1149  C1150   1.398   .     A
C1149  H1154   1.083   .     S
C1150  H1155   1.082   .     S
C1150  C1151   1.396   .     A
C1151  H1156   1.082   .     S
C1151  C1152   1.397   .     A
C1152  H1157   1.082   .     S
C1152  C1153   1.396   .     A
C1153  H1158   1.082   .     S
C1159  C1160   1.399   .     A
C1159  C1164   1.409   .     A
C1160  C1161   1.393   .     A
C1160  H1165   1.080   .     S
C1161  C1162   1.398   .     A
C1161  H1166   1.078   .     S
C1162  H1167   1.082   .     S
C1162  C1163   1.396   .     A
C1163  C1164   1.397   .     A
C1163  H1168   1.082   .     S
C1164  H1169   1.083   .     S
C1170  C1171   1.409   .     A
C1170  C1175   1.405   .     A
C1171  H1176   1.083   .     S
C1171  C1172   1.397   .     A
C1172  C1173   1.395   .     A
C1172  H1177   1.082   .     S
C1173  C1174   1.397   .     A
C1173  H1178   1.082   .     S
C1174  H1179   1.078   .     S
C1174  C1175   1.401   .     A
C1175  H1180   1.082   .     S
C1181  O1220   1.315   .     A
C1181  O1217   1.315   .     A
C1181  C1190   1.461   .     S
C1182  O1219   1.314   .     A
C1182  O1218   1.316   .     A
C1182  C1189   1.464   .     S
C1183  C1208   1.394   .     A
C1183  H1249   1.084   .     S
C1184  H1250   1.081   .     S
C1184  C1207   1.401   .     A
C1184  C148    1.397   1_556 S
C1185  C1190   1.401   .     A
C1185  H1251   1.082   .     S
C1186  C1189   1.403   .     A
C1186  H1252   1.082   .     S
C1186  C1306   1.391   .     S
C1187  H1253   1.078   .     S
C1187  C1189   1.400   .     A
C1187  C1303   1.388   .     S
C1188  H1254   1.083   .     S
C1188  C1190   1.402   .     A
C1191  N1216   1.377   .     A
C1191  C1255   1.483   .     S
C1191  C1902   1.436   1_545 S
C1192  N1215   1.374   .     A
C1192  C1266   1.483   .     S
C1192  C1547   1.439   .     S
C1193  N1216   1.379   .     A
C1193  C1277   1.472   .     S
C1193  C1900   1.439   1_545 S
C1194  C1288   1.475   .     S
C1194  N1215   1.381   .     A
C1194  C1545   1.436   .     S
C1195  O1224   1.308   .     A
C1195  C1200   1.432   .     S
C1195  O1221   1.307   .     A
C1196  O1223   1.310   .     A
C1196  O1222   1.310   .     A
C1196  C1199   1.441   .     S
C1197  H1213   1.081   .     S
C1197  C1207   1.394   .     A
C1197  C1199   1.390   .     A
C1198  C1200   1.388   .     A
C1198  C1208   1.390   .     A
C1198  H1214   1.085   .     S
C1199  C1201   1.387   .     A
C1200  C1202   1.388   .     A
C1201  H1225   1.080   .     S
C1201  C1203   1.402   .     A
C1202  H1226   1.082   .     S
C1202  C1204   1.400   .     A
C1203  C1209   1.417   .     A
C1203  C1205   1.417   .     A
C1204  C1206   1.416   .     A
C1204  C1210   1.413   .     A
C1205  C1207   1.412   .     A
C1205  C144    1.401   1_556 S
C1206  C1208   1.412   .     A
C1209  C1227   1.479   .     S
C1209  C121    1.397   1_556 S
C1210  C1238   1.478   .     S
Cu1211 O1223   1.938   .     S
Cu1211 O1217   1.977   .     S
Cu1211 O1221   1.951   .     S
Cu1211 Cu1212  2.747   .     S
Cu1211 O1219   1.975   .     S
Cu1211 N1215   2.065   .     S
Cu1212 O1218   1.977   .     S
Cu1212 O1224   1.938   .     S
Cu1212 N1216   2.065   .     S
Cu1212 O1220   1.975   .     S
Cu1212 O1222   1.951   .     S
C1227  C1228   1.407   .     A
C1227  C1232   1.402   .     A
C1228  H1233   1.083   .     S
C1228  C1229   1.393   .     A
C1229  H1234   1.079   .     S
C1230  C1231   1.399   .     A
C1230  H1235   1.077   .     S
C1230  C1347   1.392   .     S
C1231  H1236   1.079   .     S
C1231  C1350   1.392   .     S
C1232  H1237   1.083   .     S
C1238  C1243   1.405   .     A
C1238  C1239   1.403   .     A
C1239  C1240   1.398   .     A
C1239  H1244   1.083   .     S
C1240  C1359   1.398   .     S
C1240  H1363   1.082   .     S
C1241  H1246   1.081   .     S
C1242  C1243   1.397   .     A
C1242  C1359   1.395   .     S
C1242  H1365   1.079   .     S
C1243  H1248   1.083   .     S
C1255  C1260   1.404   .     A
C1255  C1256   1.409   .     A
C1256  C1257   1.397   .     A
C1256  H1261   1.083   .     S
C1257  C1258   1.396   .     A
C1257  H1262   1.082   .     S
C1258  H1263   1.082   .     S
C1258  C1259   1.397   .     A
C1259  H1264   1.082   .     S
C1259  C1260   1.398   .     A
C1260  H1265   1.082   .     S
C1266  C1271   1.404   .     A
C1266  C1267   1.407   .     A
C1267  C1268   1.398   .     A
C1267  H1272   1.083   .     S
C1268  H1273   1.082   .     S
C1268  C1269   1.396   .     A
C1269  H1274   1.082   .     S
C1269  C1270   1.397   .     A
C1270  H1275   1.082   .     S
C1270  C1271   1.396   .     A
C1271  H1276   1.082   .     S
C1277  C1278   1.399   .     A
C1277  C1282   1.409   .     A
C1278  C1279   1.393   .     A
C1278  H1283   1.080   .     S
C1279  C1280   1.398   .     A
C1279  H1284   1.078   .     S
C1280  H1285   1.082   .     S
C1280  C1281   1.396   .     A
C1281  C1282   1.397   .     A
C1281  H1286   1.082   .     S
C1282  H1287   1.083   .     S
C1288  C1289   1.409   .     A
C1288  C1293   1.405   .     A
C1289  H1294   1.083   .     S
C1289  C1290   1.397   .     A
C1290  C1291   1.395   .     A
C1290  H1295   1.082   .     S
C1291  C1292   1.397   .     A
C1291  H1296   1.082   .     S
C1292  H1297   1.078   .     S
C1292  C1293   1.401   .     A
C1293  H1298   1.082   .     S
C1299  O1338   1.315   .     A
C1299  O1335   1.315   .     A
C1299  C1308   1.461   .     S
C1300  O1337   1.314   .     A
C1300  O1336   1.316   .     A
C1300  C1307   1.464   .     S
C1301  C1326   1.394   .     A
C1301  H1367   1.084   .     S
C1302  H1368   1.081   .     S
C1302  C1325   1.401   .     A
C1302  C266    1.397   1_556 S
C1303  C1308   1.401   .     A
C1303  H1369   1.082   .     S
C1304  C1307   1.403   .     A
C1304  H1370   1.082   .     S
C1304  C1070   1.391   1_655 S
C1305  H1371   1.078   .     S
C1305  C1307   1.400   .     A
C1305  C1067   1.388   1_655 S
C1306  H1372   1.083   .     S
C1306  C1308   1.402   .     A
C1309  N1334   1.377   .     A
C1309  C1373   1.483   .     S
C1309  C2020   1.436   1_545 S
C1310  N1333   1.374   .     A
C1310  C1384   1.483   .     S
C1310  C1665   1.439   .     S
C1311  N1334   1.379   .     A
C1311  C1395   1.472   .     S
C1311  C2018   1.439   1_545 S
C1312  C1406   1.475   .     S
C1312  N1333   1.381   .     A
C1312  C1663   1.436   .     S
C1313  O1342   1.308   .     A
C1313  C1318   1.432   .     S
C1313  O1339   1.307   .     A
C1314  O1341   1.310   .     A
C1314  O1340   1.310   .     A
C1314  C1317   1.441   .     S
C1315  H1331   1.081   .     S
C1315  C1325   1.394   .     A
C1315  C1317   1.390   .     A
C1316  C1318   1.388   .     A
C1316  C1326   1.390   .     A
C1316  H1332   1.085   .     S
C1317  C1319   1.387   .     A
C1318  C1320   1.388   .     A
C1319  H1343   1.080   .     S
C1319  C1321   1.402   .     A
C1320  H1344   1.082   .     S
C1320  C1322   1.400   .     A
C1321  C1327   1.417   .     A
C1321  C1323   1.417   .     A
C1322  C1324   1.416   .     A
C1322  C1328   1.413   .     A
C1323  C1325   1.412   .     A
C1323  C262    1.401   1_556 S
C1324  C1326   1.412   .     A
C1327  C1345   1.479   .     S
C1327  C239    1.397   1_556 S
C1328  C1356   1.478   .     S
Cu1329 O1341   1.938   .     S
Cu1329 O1335   1.977   .     S
Cu1329 O1339   1.951   .     S
Cu1329 Cu1330  2.747   .     S
Cu1329 O1337   1.975   .     S
Cu1329 N1333   2.065   .     S
Cu1330 O1336   1.977   .     S
Cu1330 O1342   1.938   .     S
Cu1330 N1334   2.065   .     S
Cu1330 O1338   1.975   .     S
Cu1330 O1340   1.951   .     S
C1345  C1346   1.407   .     A
C1345  C1350   1.402   .     A
C1346  H1351   1.083   .     S
C1346  C1347   1.393   .     A
C1347  H1352   1.079   .     S
C1348  C1349   1.399   .     A
C1348  H1353   1.077   .     S
C1348  C1111   1.392   1_655 S
C1349  H1354   1.079   .     S
C1349  C1114   1.392   1_655 S
C1350  H1355   1.083   .     S
C1356  C1361   1.405   .     A
C1356  C1357   1.403   .     A
C1357  C1358   1.398   .     A
C1357  H1362   1.083   .     S
C1358  C1123   1.398   1_655 S
C1358  H1127   1.082   1_655 S
C1359  H1364   1.081   .     S
C1360  C1361   1.397   .     A
C1360  C1123   1.395   1_655 S
C1360  H1129   1.079   1_655 S
C1361  H1366   1.083   .     S
C1373  C1378   1.404   .     A
C1373  C1374   1.409   .     A
C1374  C1375   1.397   .     A
C1374  H1379   1.083   .     S
C1375  C1376   1.396   .     A
C1375  H1380   1.082   .     S
C1376  H1381   1.082   .     S
C1376  C1377   1.397   .     A
C1377  H1382   1.082   .     S
C1377  C1378   1.398   .     A
C1378  H1383   1.082   .     S
C1384  C1389   1.404   .     A
C1384  C1385   1.407   .     A
C1385  C1386   1.398   .     A
C1385  H1390   1.083   .     S
C1386  H1391   1.082   .     S
C1386  C1387   1.396   .     A
C1387  H1392   1.082   .     S
C1387  C1388   1.397   .     A
C1388  H1393   1.082   .     S
C1388  C1389   1.396   .     A
C1389  H1394   1.082   .     S
C1395  C1396   1.399   .     A
C1395  C1400   1.409   .     A
C1396  C1397   1.393   .     A
C1396  H1401   1.080   .     S
C1397  C1398   1.398   .     A
C1397  H1402   1.078   .     S
C1398  H1403   1.082   .     S
C1398  C1399   1.396   .     A
C1399  C1400   1.397   .     A
C1399  H1404   1.082   .     S
C1400  H1405   1.083   .     S
C1406  C1407   1.409   .     A
C1406  C1411   1.405   .     A
C1407  H1412   1.083   .     S
C1407  C1408   1.397   .     A
C1408  C1409   1.395   .     A
C1408  H1413   1.082   .     S
C1409  C1410   1.397   .     A
C1409  H1414   1.082   .     S
C1410  H1415   1.078   .     S
C1410  C1411   1.401   .     A
C1411  H1416   1.082   .     S
C1417  O1456   1.315   .     A
C1417  O1453   1.315   .     A
C1417  C1426   1.461   .     S
C1418  O1455   1.314   .     A
C1418  O1454   1.316   .     A
C1418  C1425   1.464   .     S
C1419  C1444   1.394   .     A
C1419  H1485   1.084   .     S
C1420  H1486   1.081   .     S
C1420  C1443   1.401   .     A
C1420  C384    1.397   1_556 S
C1421  C1426   1.401   .     A
C1421  H1487   1.082   .     S
C1421  C1659   1.388   1_455 S
C1422  C1425   1.403   .     A
C1422  H1488   1.082   .     S
C1422  C1542   1.391   .     S
C1423  H1489   1.078   .     S
C1423  C1425   1.400   .     A
C1423  C1539   1.388   .     S
C1424  H1490   1.083   .     S
C1424  C1426   1.402   .     A
C1424  C1658   1.391   1_455 S
C1427  N1452   1.377   .     A
C1427  C1491   1.483   .     S
C1428  N1451   1.374   .     A
C1428  C1502   1.483   .     S
C1428  C1783   1.439   .     S
C1429  N1452   1.379   .     A
C1429  C1513   1.472   .     S
C1430  C1524   1.475   .     S
C1430  N1451   1.381   .     A
C1430  C1781   1.436   .     S
C1431  O1460   1.308   .     A
C1431  C1436   1.432   .     S
C1431  O1457   1.307   .     A
C1432  O1459   1.310   .     A
C1432  O1458   1.310   .     A
C1432  C1435   1.441   .     S
C1433  H1449   1.081   .     S
C1433  C1443   1.394   .     A
C1433  C1435   1.390   .     A
C1434  C1436   1.388   .     A
C1434  C1444   1.390   .     A
C1434  H1450   1.085   .     S
C1435  C1437   1.387   .     A
C1436  C1438   1.388   .     A
C1437  H1461   1.080   .     S
C1437  C1439   1.402   .     A
C1438  H1462   1.082   .     S
C1438  C1440   1.400   .     A
C1439  C1445   1.417   .     A
C1439  C1441   1.417   .     A
C1440  C1442   1.416   .     A
C1440  C1446   1.413   .     A
C1441  C1443   1.412   .     A
C1441  C380    1.401   1_556 S
C1442  C1444   1.412   .     A
C1445  C1463   1.479   .     S
C1445  C357    1.397   1_556 S
C1446  C1474   1.478   .     S
Cu1447 O1459   1.938   .     S
Cu1447 O1453   1.977   .     S
Cu1447 O1457   1.951   .     S
Cu1447 Cu1448  2.747   .     S
Cu1447 O1455   1.975   .     S
Cu1447 N1451   2.065   .     S
Cu1448 O1454   1.977   .     S
Cu1448 O1460   1.938   .     S
Cu1448 N1452   2.065   .     S
Cu1448 O1456   1.975   .     S
Cu1448 O1458   1.951   .     S
C1463  C1464   1.407   .     A
C1463  C1468   1.402   .     A
C1464  H1469   1.083   .     S
C1464  C1465   1.393   .     A
C1465  H1470   1.079   .     S
C1465  C1702   1.392   1_455 S
C1466  C1467   1.399   .     A
C1466  H1471   1.077   .     S
C1466  C1583   1.392   .     S
C1467  H1472   1.079   .     S
C1467  C1586   1.392   .     S
C1468  H1473   1.083   .     S
C1468  C1703   1.392   1_455 S
C1474  C1479   1.405   .     A
C1474  C1475   1.403   .     A
C1475  C1476   1.398   .     A
C1475  H1480   1.083   .     S
C1476  C1595   1.398   .     S
C1476  H1599   1.082   .     S
C1477  H1482   1.081   .     S
C1477  C1712   1.398   1_455 S
C1477  C1714   1.395   1_455 S
C1478  C1479   1.397   .     A
C1478  C1595   1.395   .     S
C1478  H1601   1.079   .     S
C1479  H1484   1.083   .     S
H1481  C1712   1.082   1_455 S
H1483  C1714   1.079   1_455 S
C1491  C1496   1.404   .     A
C1491  C1492   1.409   .     A
C1492  C1493   1.397   .     A
C1492  H1497   1.083   .     S
C1493  C1494   1.396   .     A
C1493  H1498   1.082   .     S
C1494  H1499   1.082   .     S
C1494  C1495   1.397   .     A
C1495  H1500   1.082   .     S
C1495  C1496   1.398   .     A
C1496  H1501   1.082   .     S
C1502  C1507   1.404   .     A
C1502  C1503   1.407   .     A
C1503  C1504   1.398   .     A
C1503  H1508   1.083   .     S
C1504  H1509   1.082   .     S
C1504  C1505   1.396   .     A
C1505  H1510   1.082   .     S
C1505  C1506   1.397   .     A
C1506  H1511   1.082   .     S
C1506  C1507   1.396   .     A
C1507  H1512   1.082   .     S
C1513  C1514   1.399   .     A
C1513  C1518   1.409   .     A
C1514  C1515   1.393   .     A
C1514  H1519   1.080   .     S
C1515  C1516   1.398   .     A
C1515  H1520   1.078   .     S
C1516  H1521   1.082   .     S
C1516  C1517   1.396   .     A
C1517  C1518   1.397   .     A
C1517  H1522   1.082   .     S
C1518  H1523   1.083   .     S
C1524  C1525   1.409   .     A
C1524  C1529   1.405   .     A
C1525  H1530   1.083   .     S
C1525  C1526   1.397   .     A
C1526  C1527   1.395   .     A
C1526  H1531   1.082   .     S
C1527  C1528   1.397   .     A
C1527  H1532   1.082   .     S
C1528  H1533   1.078   .     S
C1528  C1529   1.401   .     A
C1529  H1534   1.082   .     S
C1535  O1574   1.315   .     A
C1535  O1571   1.315   .     A
C1535  C1544   1.461   .     S
C1536  O1573   1.314   .     A
C1536  O1572   1.316   .     A
C1536  C1543   1.464   .     S
C1537  C1562   1.394   .     A
C1537  H1603   1.084   .     S
C1538  H1604   1.081   .     S
C1538  C1561   1.401   .     A
C1538  C502    1.397   1_556 S
C1539  C1544   1.401   .     A
C1539  H1605   1.082   .     S
C1540  C1543   1.403   .     A
C1540  H1606   1.082   .     S
C1540  C1660   1.391   .     S
C1541  H1607   1.078   .     S
C1541  C1543   1.400   .     A
C1541  C1657   1.388   .     S
C1542  H1608   1.083   .     S
C1542  C1544   1.402   .     A
C1545  N1570   1.377   .     A
C1545  C1609   1.483   .     S
C1546  N1569   1.374   .     A
C1546  C1620   1.483   .     S
C1546  C1901   1.439   .     S
C1547  N1570   1.379   .     A
C1547  C1631   1.472   .     S
C1548  C1642   1.475   .     S
C1548  N1569   1.381   .     A
C1548  C1899   1.436   .     S
C1549  O1578   1.308   .     A
C1549  C1554   1.432   .     S
C1549  O1575   1.307   .     A
C1550  O1577   1.310   .     A
C1550  O1576   1.310   .     A
C1550  C1553   1.441   .     S
C1551  H1567   1.081   .     S
C1551  C1561   1.394   .     A
C1551  C1553   1.390   .     A
C1552  C1554   1.388   .     A
C1552  C1562   1.390   .     A
C1552  H1568   1.085   .     S
C1553  C1555   1.387   .     A
C1554  C1556   1.388   .     A
C1555  H1579   1.080   .     S
C1555  C1557   1.402   .     A
C1556  H1580   1.082   .     S
C1556  C1558   1.400   .     A
C1557  C1563   1.417   .     A
C1557  C1559   1.417   .     A
C1558  C1560   1.416   .     A
C1558  C1564   1.413   .     A
C1559  C1561   1.412   .     A
C1559  C498    1.401   1_556 S
C1560  C1562   1.412   .     A
C1563  C1581   1.479   .     S
C1563  C475    1.397   1_556 S
C1564  C1592   1.478   .     S
Cu1565 O1577   1.938   .     S
Cu1565 O1571   1.977   .     S
Cu1565 O1575   1.951   .     S
Cu1565 Cu1566  2.747   .     S
Cu1565 O1573   1.975   .     S
Cu1565 N1569   2.065   .     S
Cu1566 O1572   1.977   .     S
Cu1566 O1578   1.938   .     S
Cu1566 N1570   2.065   .     S
Cu1566 O1574   1.975   .     S
Cu1566 O1576   1.951   .     S
C1581  C1582   1.407   .     A
C1581  C1586   1.402   .     A
C1582  H1587   1.083   .     S
C1582  C1583   1.393   .     A
C1583  H1588   1.079   .     S
C1584  C1585   1.399   .     A
C1584  H1589   1.077   .     S
C1584  C1701   1.392   .     S
C1585  H1590   1.079   .     S
C1585  C1704   1.392   .     S
C1586  H1591   1.083   .     S
C1592  C1597   1.405   .     A
C1592  C1593   1.403   .     A
C1593  C1594   1.398   .     A
C1593  H1598   1.083   .     S
C1594  C1713   1.398   .     S
C1594  H1717   1.082   .     S
C1595  H1600   1.081   .     S
C1596  C1597   1.397   .     A
C1596  C1713   1.395   .     S
C1596  H1719   1.079   .     S
C1597  H1602   1.083   .     S
C1609  C1614   1.404   .     A
C1609  C1610   1.409   .     A
C1610  C1611   1.397   .     A
C1610  H1615   1.083   .     S
C1611  C1612   1.396   .     A
C1611  H1616   1.082   .     S
C1612  H1617   1.082   .     S
C1612  C1613   1.397   .     A
C1613  H1618   1.082   .     S
C1613  C1614   1.398   .     A
C1614  H1619   1.082   .     S
C1620  C1625   1.404   .     A
C1620  C1621   1.407   .     A
C1621  C1622   1.398   .     A
C1621  H1626   1.083   .     S
C1622  H1627   1.082   .     S
C1622  C1623   1.396   .     A
C1623  H1628   1.082   .     S
C1623  C1624   1.397   .     A
C1624  H1629   1.082   .     S
C1624  C1625   1.396   .     A
C1625  H1630   1.082   .     S
C1631  C1632   1.399   .     A
C1631  C1636   1.409   .     A
C1632  C1633   1.393   .     A
C1632  H1637   1.080   .     S
C1633  C1634   1.398   .     A
C1633  H1638   1.078   .     S
C1634  H1639   1.082   .     S
C1634  C1635   1.396   .     A
C1635  C1636   1.397   .     A
C1635  H1640   1.082   .     S
C1636  H1641   1.083   .     S
C1642  C1643   1.409   .     A
C1642  C1647   1.405   .     A
C1643  H1648   1.083   .     S
C1643  C1644   1.397   .     A
C1644  C1645   1.395   .     A
C1644  H1649   1.082   .     S
C1645  C1646   1.397   .     A
C1645  H1650   1.082   .     S
C1646  H1651   1.078   .     S
C1646  C1647   1.401   .     A
C1647  H1652   1.082   .     S
C1653  O1692   1.315   .     A
C1653  O1689   1.315   .     A
C1653  C1662   1.461   .     S
C1654  O1691   1.314   .     A
C1654  O1690   1.316   .     A
C1654  C1661   1.464   .     S
C1655  C1680   1.394   .     A
C1655  H1721   1.084   .     S
C1656  H1722   1.081   .     S
C1656  C1679   1.401   .     A
C1656  C620    1.397   1_556 S
C1657  C1662   1.401   .     A
C1657  H1723   1.082   .     S
C1658  C1661   1.403   .     A
C1658  H1724   1.082   .     S
C1658  C1424   1.391   1_655 S
C1659  H1725   1.078   .     S
C1659  C1661   1.400   .     A
C1659  C1421   1.388   1_655 S
C1660  H1726   1.083   .     S
C1660  C1662   1.402   .     A
C1663  N1688   1.377   .     A
C1663  C1727   1.483   .     S
C1664  N1687   1.374   .     A
C1664  C1738   1.483   .     S
C1664  C2019   1.439   .     S
C1665  N1688   1.379   .     A
C1665  C1749   1.472   .     S
C1666  C1760   1.475   .     S
C1666  N1687   1.381   .     A
C1666  C2017   1.436   .     S
C1667  O1696   1.308   .     A
C1667  C1672   1.432   .     S
C1667  O1693   1.307   .     A
C1668  O1695   1.310   .     A
C1668  O1694   1.310   .     A
C1668  C1671   1.441   .     S
C1669  H1685   1.081   .     S
C1669  C1679   1.394   .     A
C1669  C1671   1.390   .     A
C1670  C1672   1.388   .     A
C1670  C1680   1.390   .     A
C1670  H1686   1.085   .     S
C1671  C1673   1.387   .     A
C1672  C1674   1.388   .     A
C1673  H1697   1.080   .     S
C1673  C1675   1.402   .     A
C1674  H1698   1.082   .     S
C1674  C1676   1.400   .     A
C1675  C1681   1.417   .     A
C1675  C1677   1.417   .     A
C1676  C1678   1.416   .     A
C1676  C1682   1.413   .     A
C1677  C1679   1.412   .     A
C1677  C616    1.401   1_556 S
C1678  C1680   1.412   .     A
C1681  C1699   1.479   .     S
C1681  C593    1.397   1_556 S
C1682  C1710   1.478   .     S
Cu1683 O1695   1.938   .     S
Cu1683 O1689   1.977   .     S
Cu1683 O1693   1.951   .     S
Cu1683 Cu1684  2.747   .     S
Cu1683 O1691   1.975   .     S
Cu1683 N1687   2.065   .     S
Cu1684 O1690   1.977   .     S
Cu1684 O1696   1.938   .     S
Cu1684 N1688   2.065   .     S
Cu1684 O1692   1.975   .     S
Cu1684 O1694   1.951   .     S
C1699  C1700   1.407   .     A
C1699  C1704   1.402   .     A
C1700  H1705   1.083   .     S
C1700  C1701   1.393   .     A
C1701  H1706   1.079   .     S
C1702  C1703   1.399   .     A
C1702  H1707   1.077   .     S
C1702  C1465   1.392   1_655 S
C1703  H1708   1.079   .     S
C1703  C1468   1.392   1_655 S
C1704  H1709   1.083   .     S
C1710  C1715   1.405   .     A
C1710  C1711   1.403   .     A
C1711  C1712   1.398   .     A
C1711  H1716   1.083   .     S
C1712  C1477   1.398   1_655 S
C1712  H1481   1.082   1_655 S
C1713  H1718   1.081   .     S
C1714  C1715   1.397   .     A
C1714  C1477   1.395   1_655 S
C1714  H1483   1.079   1_655 S
C1715  H1720   1.083   .     S
C1727  C1732   1.404   .     A
C1727  C1728   1.409   .     A
C1728  C1729   1.397   .     A
C1728  H1733   1.083   .     S
C1729  C1730   1.396   .     A
C1729  H1734   1.082   .     S
C1730  H1735   1.082   .     S
C1730  C1731   1.397   .     A
C1731  H1736   1.082   .     S
C1731  C1732   1.398   .     A
C1732  H1737   1.082   .     S
C1738  C1743   1.404   .     A
C1738  C1739   1.407   .     A
C1739  C1740   1.398   .     A
C1739  H1744   1.083   .     S
C1740  H1745   1.082   .     S
C1740  C1741   1.396   .     A
C1741  H1746   1.082   .     S
C1741  C1742   1.397   .     A
C1742  H1747   1.082   .     S
C1742  C1743   1.396   .     A
C1743  H1748   1.082   .     S
C1749  C1750   1.399   .     A
C1749  C1754   1.409   .     A
C1750  C1751   1.393   .     A
C1750  H1755   1.080   .     S
C1751  C1752   1.398   .     A
C1751  H1756   1.078   .     S
C1752  H1757   1.082   .     S
C1752  C1753   1.396   .     A
C1753  C1754   1.397   .     A
C1753  H1758   1.082   .     S
C1754  H1759   1.083   .     S
C1760  C1761   1.409   .     A
C1760  C1765   1.405   .     A
C1761  H1766   1.083   .     S
C1761  C1762   1.397   .     A
C1762  C1763   1.395   .     A
C1762  H1767   1.082   .     S
C1763  C1764   1.397   .     A
C1763  H1768   1.082   .     S
C1764  H1769   1.078   .     S
C1764  C1765   1.401   .     A
C1765  H1770   1.082   .     S
C1771  O1810   1.315   .     A
C1771  O1807   1.315   .     A
C1771  C1780   1.461   .     S
C1772  O1809   1.314   .     A
C1772  O1808   1.316   .     A
C1772  C1779   1.464   .     S
C1773  C1798   1.394   .     A
C1773  H1839   1.084   .     S
C1774  H1840   1.081   .     S
C1774  C1797   1.401   .     A
C1774  C738    1.397   1_556 S
C1775  C1780   1.401   .     A
C1775  H1841   1.082   .     S
C1775  C2013   1.388   1_455 S
C1776  C1779   1.403   .     A
C1776  H1842   1.082   .     S
C1776  C1896   1.391   .     S
C1777  H1843   1.078   .     S
C1777  C1779   1.400   .     A
C1777  C1893   1.388   .     S
C1778  H1844   1.083   .     S
C1778  C1780   1.402   .     A
C1778  C2012   1.391   1_455 S
C1781  N1806   1.377   .     A
C1781  C1845   1.483   .     S
C1782  N1805   1.374   .     A
C1782  C1856   1.483   .     S
C1782  C1075   1.439   1_565 S
C1783  N1806   1.379   .     A
C1783  C1867   1.472   .     S
C1784  C1878   1.475   .     S
C1784  N1805   1.381   .     A
C1784  C1073   1.436   1_565 S
C1785  O1814   1.308   .     A
C1785  C1790   1.432   .     S
C1785  O1811   1.307   .     A
C1786  O1813   1.310   .     A
C1786  O1812   1.310   .     A
C1786  C1789   1.441   .     S
C1787  H1803   1.081   .     S
C1787  C1797   1.394   .     A
C1787  C1789   1.390   .     A
C1788  C1790   1.388   .     A
C1788  C1798   1.390   .     A
C1788  H1804   1.085   .     S
C1789  C1791   1.387   .     A
C1790  C1792   1.388   .     A
C1791  H1815   1.080   .     S
C1791  C1793   1.402   .     A
C1792  H1816   1.082   .     S
C1792  C1794   1.400   .     A
C1793  C1799   1.417   .     A
C1793  C1795   1.417   .     A
C1794  C1796   1.416   .     A
C1794  C1800   1.413   .     A
C1795  C1797   1.412   .     A
C1795  C734    1.401   1_556 S
C1796  C1798   1.412   .     A
C1799  C1817   1.479   .     S
C1799  C711    1.397   1_556 S
C1800  C1828   1.478   .     S
Cu1801 O1813   1.938   .     S
Cu1801 O1807   1.977   .     S
Cu1801 O1811   1.951   .     S
Cu1801 Cu1802  2.747   .     S
Cu1801 O1809   1.975   .     S
Cu1801 N1805   2.065   .     S
Cu1802 O1808   1.977   .     S
Cu1802 O1814   1.938   .     S
Cu1802 N1806   2.065   .     S
Cu1802 O1810   1.975   .     S
Cu1802 O1812   1.951   .     S
C1817  C1818   1.407   .     A
C1817  C1822   1.402   .     A
C1818  H1823   1.083   .     S
C1818  C1819   1.393   .     A
C1819  H1824   1.079   .     S
C1819  C2056   1.392   1_455 S
C1820  C1821   1.399   .     A
C1820  H1825   1.077   .     S
C1820  C1937   1.392   .     S
C1821  H1826   1.079   .     S
C1821  C1940   1.392   .     S
C1822  H1827   1.083   .     S
C1822  C2057   1.392   1_455 S
C1828  C1833   1.405   .     A
C1828  C1829   1.403   .     A
C1829  C1830   1.398   .     A
C1829  H1834   1.083   .     S
C1830  C1949   1.398   .     S
C1830  H1953   1.082   .     S
C1831  H1836   1.081   .     S
C1831  C2066   1.398   1_455 S
C1831  C2068   1.395   1_455 S
C1832  C1833   1.397   .     A
C1832  C1949   1.395   .     S
C1832  H1955   1.079   .     S
C1833  H1838   1.083   .     S
H1835  C2066   1.082   1_455 S
H1837  C2068   1.079   1_455 S
C1845  C1850   1.404   .     A
C1845  C1846   1.409   .     A
C1846  C1847   1.397   .     A
C1846  H1851   1.083   .     S
C1847  C1848   1.396   .     A
C1847  H1852   1.082   .     S
C1848  H1853   1.082   .     S
C1848  C1849   1.397   .     A
C1849  H1854   1.082   .     S
C1849  C1850   1.398   .     A
C1850  H1855   1.082   .     S
C1856  C1861   1.404   .     A
C1856  C1857   1.407   .     A
C1857  C1858   1.398   .     A
C1857  H1862   1.083   .     S
C1858  H1863   1.082   .     S
C1858  C1859   1.396   .     A
C1859  H1864   1.082   .     S
C1859  C1860   1.397   .     A
C1860  H1865   1.082   .     S
C1860  C1861   1.396   .     A
C1861  H1866   1.082   .     S
C1867  C1868   1.399   .     A
C1867  C1872   1.409   .     A
C1868  C1869   1.393   .     A
C1868  H1873   1.080   .     S
C1869  C1870   1.398   .     A
C1869  H1874   1.078   .     S
C1870  H1875   1.082   .     S
C1870  C1871   1.396   .     A
C1871  C1872   1.397   .     A
C1871  H1876   1.082   .     S
C1872  H1877   1.083   .     S
C1878  C1879   1.409   .     A
C1878  C1883   1.405   .     A
C1879  H1884   1.083   .     S
C1879  C1880   1.397   .     A
C1880  C1881   1.395   .     A
C1880  H1885   1.082   .     S
C1881  C1882   1.397   .     A
C1881  H1886   1.082   .     S
C1882  H1887   1.078   .     S
C1882  C1883   1.401   .     A
C1883  H1888   1.082   .     S
C1889  O1928   1.315   .     A
C1889  O1925   1.315   .     A
C1889  C1898   1.461   .     S
C1890  O1927   1.314   .     A
C1890  O1926   1.316   .     A
C1890  C1897   1.464   .     S
C1891  C1916   1.394   .     A
C1891  H1957   1.084   .     S
C1892  H1958   1.081   .     S
C1892  C1915   1.401   .     A
C1892  C856    1.397   1_556 S
C1893  C1898   1.401   .     A
C1893  H1959   1.082   .     S
C1894  C1897   1.403   .     A
C1894  H1960   1.082   .     S
C1894  C2014   1.391   .     S
C1895  H1961   1.078   .     S
C1895  C1897   1.400   .     A
C1895  C2011   1.388   .     S
C1896  H1962   1.083   .     S
C1896  C1898   1.402   .     A
C1899  N1924   1.377   .     A
C1899  C1963   1.483   .     S
C1900  N1923   1.374   .     A
C1900  C1974   1.483   .     S
C1900  C1193   1.439   1_565 S
C1901  N1924   1.379   .     A
C1901  C1985   1.472   .     S
C1902  C1996   1.475   .     S
C1902  N1923   1.381   .     A
C1902  C1191   1.436   1_565 S
C1903  O1932   1.308   .     A
C1903  C1908   1.432   .     S
C1903  O1929   1.307   .     A
C1904  O1931   1.310   .     A
C1904  O1930   1.310   .     A
C1904  C1907   1.441   .     S
C1905  H1921   1.081   .     S
C1905  C1915   1.394   .     A
C1905  C1907   1.390   .     A
C1906  C1908   1.388   .     A
C1906  C1916   1.390   .     A
C1906  H1922   1.085   .     S
C1907  C1909   1.387   .     A
C1908  C1910   1.388   .     A
C1909  H1933   1.080   .     S
C1909  C1911   1.402   .     A
C1910  H1934   1.082   .     S
C1910  C1912   1.400   .     A
C1911  C1917   1.417   .     A
C1911  C1913   1.417   .     A
C1912  C1914   1.416   .     A
C1912  C1918   1.413   .     A
C1913  C1915   1.412   .     A
C1913  C852    1.401   1_556 S
C1914  C1916   1.412   .     A
C1917  C1935   1.479   .     S
C1917  C829    1.397   1_556 S
C1918  C1946   1.478   .     S
Cu1919 O1931   1.938   .     S
Cu1919 O1925   1.977   .     S
Cu1919 O1929   1.951   .     S
Cu1919 Cu1920  2.747   .     S
Cu1919 O1927   1.975   .     S
Cu1919 N1923   2.065   .     S
Cu1920 O1926   1.977   .     S
Cu1920 O1932   1.938   .     S
Cu1920 N1924   2.065   .     S
Cu1920 O1928   1.975   .     S
Cu1920 O1930   1.951   .     S
C1935  C1936   1.407   .     A
C1935  C1940   1.402   .     A
C1936  H1941   1.083   .     S
C1936  C1937   1.393   .     A
C1937  H1942   1.079   .     S
C1938  C1939   1.399   .     A
C1938  H1943   1.077   .     S
C1938  C2055   1.392   .     S
C1939  H1944   1.079   .     S
C1939  C2058   1.392   .     S
C1940  H1945   1.083   .     S
C1946  C1951   1.405   .     A
C1946  C1947   1.403   .     A
C1947  C1948   1.398   .     A
C1947  H1952   1.083   .     S
C1948  C2067   1.398   .     S
C1948  H2071   1.082   .     S
C1949  H1954   1.081   .     S
C1950  C1951   1.397   .     A
C1950  C2067   1.395   .     S
C1950  H2073   1.079   .     S
C1951  H1956   1.083   .     S
C1963  C1968   1.404   .     A
C1963  C1964   1.409   .     A
C1964  C1965   1.397   .     A
C1964  H1969   1.083   .     S
C1965  C1966   1.396   .     A
C1965  H1970   1.082   .     S
C1966  H1971   1.082   .     S
C1966  C1967   1.397   .     A
C1967  H1972   1.082   .     S
C1967  C1968   1.398   .     A
C1968  H1973   1.082   .     S
C1974  C1979   1.404   .     A
C1974  C1975   1.407   .     A
C1975  C1976   1.398   .     A
C1975  H1980   1.083   .     S
C1976  H1981   1.082   .     S
C1976  C1977   1.396   .     A
C1977  H1982   1.082   .     S
C1977  C1978   1.397   .     A
C1978  H1983   1.082   .     S
C1978  C1979   1.396   .     A
C1979  H1984   1.082   .     S
C1985  C1986   1.399   .     A
C1985  C1990   1.409   .     A
C1986  C1987   1.393   .     A
C1986  H1991   1.080   .     S
C1987  C1988   1.398   .     A
C1987  H1992   1.078   .     S
C1988  H1993   1.082   .     S
C1988  C1989   1.396   .     A
C1989  C1990   1.397   .     A
C1989  H1994   1.082   .     S
C1990  H1995   1.083   .     S
C1996  C1997   1.409   .     A
C1996  C2001   1.405   .     A
C1997  H2002   1.083   .     S
C1997  C1998   1.397   .     A
C1998  C1999   1.395   .     A
C1998  H2003   1.082   .     S
C1999  C2000   1.397   .     A
C1999  H2004   1.082   .     S
C2000  H2005   1.078   .     S
C2000  C2001   1.401   .     A
C2001  H2006   1.082   .     S
C2007  O2046   1.315   .     A
C2007  O2043   1.315   .     A
C2007  C2016   1.461   .     S
C2008  O2045   1.314   .     A
C2008  O2044   1.316   .     A
C2008  C2015   1.464   .     S
C2009  C2034   1.394   .     A
C2009  H2075   1.084   .     S
C2010  H2076   1.081   .     S
C2010  C2033   1.401   .     A
C2010  C974    1.397   1_556 S
C2011  C2016   1.401   .     A
C2011  H2077   1.082   .     S
C2012  C2015   1.403   .     A
C2012  H2078   1.082   .     S
C2012  C1778   1.391   1_655 S
C2013  H2079   1.078   .     S
C2013  C2015   1.400   .     A
C2013  C1775   1.388   1_655 S
C2014  H2080   1.083   .     S
C2014  C2016   1.402   .     A
C2017  N2042   1.377   .     A
C2017  C2081   1.483   .     S
C2018  N2041   1.374   .     A
C2018  C2092   1.483   .     S
C2018  C1311   1.439   1_565 S
C2019  N2042   1.379   .     A
C2019  C2103   1.472   .     S
C2020  C2114   1.475   .     S
C2020  N2041   1.381   .     A
C2020  C1309   1.436   1_565 S
C2021  O2050   1.308   .     A
C2021  C2026   1.432   .     S
C2021  O2047   1.307   .     A
C2022  O2049   1.310   .     A
C2022  O2048   1.310   .     A
C2022  C2025   1.441   .     S
C2023  H2039   1.081   .     S
C2023  C2033   1.394   .     A
C2023  C2025   1.390   .     A
C2024  C2026   1.388   .     A
C2024  C2034   1.390   .     A
C2024  H2040   1.085   .     S
C2025  C2027   1.387   .     A
C2026  C2028   1.388   .     A
C2027  H2051   1.080   .     S
C2027  C2029   1.402   .     A
C2028  H2052   1.082   .     S
C2028  C2030   1.400   .     A
C2029  C2035   1.417   .     A
C2029  C2031   1.417   .     A
C2030  C2032   1.416   .     A
C2030  C2036   1.413   .     A
C2031  C2033   1.412   .     A
C2031  C970    1.401   1_556 S
C2032  C2034   1.412   .     A
C2035  C2053   1.479   .     S
C2035  C947    1.397   1_556 S
C2036  C2064   1.478   .     S
Cu2037 O2049   1.938   .     S
Cu2037 O2043   1.977   .     S
Cu2037 O2047   1.951   .     S
Cu2037 Cu2038  2.747   .     S
Cu2037 O2045   1.975   .     S
Cu2037 N2041   2.065   .     S
Cu2038 O2044   1.977   .     S
Cu2038 O2050   1.938   .     S
Cu2038 N2042   2.065   .     S
Cu2038 O2046   1.975   .     S
Cu2038 O2048   1.951   .     S
C2053  C2054   1.407   .     A
C2053  C2058   1.402   .     A
C2054  H2059   1.083   .     S
C2054  C2055   1.393   .     A
C2055  H2060   1.079   .     S
C2056  C2057   1.399   .     A
C2056  H2061   1.077   .     S
C2056  C1819   1.392   1_655 S
C2057  H2062   1.079   .     S
C2057  C1822   1.392   1_655 S
C2058  H2063   1.083   .     S
C2064  C2069   1.405   .     A
C2064  C2065   1.403   .     A
C2065  C2066   1.398   .     A
C2065  H2070   1.083   .     S
C2066  C1831   1.398   1_655 S
C2066  H1835   1.082   1_655 S
C2067  H2072   1.081   .     S
C2068  C2069   1.397   .     A
C2068  C1831   1.395   1_655 S
C2068  H1837   1.079   1_655 S
C2069  H2074   1.083   .     S
C2081  C2086   1.404   .     A
C2081  C2082   1.409   .     A
C2082  C2083   1.397   .     A
C2082  H2087   1.083   .     S
C2083  C2084   1.396   .     A
C2083  H2088   1.082   .     S
C2084  H2089   1.082   .     S
C2084  C2085   1.397   .     A
C2085  H2090   1.082   .     S
C2085  C2086   1.398   .     A
C2086  H2091   1.082   .     S
C2092  C2097   1.404   .     A
C2092  C2093   1.407   .     A
C2093  C2094   1.398   .     A
C2093  H2098   1.083   .     S
C2094  H2099   1.082   .     S
C2094  C2095   1.396   .     A
C2095  H2100   1.082   .     S
C2095  C2096   1.397   .     A
C2096  H2101   1.082   .     S
C2096  C2097   1.396   .     A
C2097  H2102   1.082   .     S
C2103  C2104   1.399   .     A
C2103  C2108   1.409   .     A
C2104  C2105   1.393   .     A
C2104  H2109   1.080   .     S
C2105  C2106   1.398   .     A
C2105  H2110   1.078   .     S
C2106  H2111   1.082   .     S
C2106  C2107   1.396   .     A
C2107  C2108   1.397   .     A
C2107  H2112   1.082   .     S
C2108  H2113   1.083   .     S
C2114  C2115   1.409   .     A
C2114  C2119   1.405   .     A
C2115  H2120   1.083   .     S
C2115  C2116   1.397   .     A
C2116  C2117   1.395   .     A
C2116  H2121   1.082   .     S
C2117  C2118   1.397   .     A
C2117  H2122   1.082   .     S
C2118  H2123   1.078   .     S
C2118  C2119   1.401   .     A
C2119  H2124   1.082   .     S
