data_str_m2_o2_o10_pcu_sym.175
_audit_creation_date              2020-01-03
_audit_creation_method            'Materials Studio'
_symmetry_space_group_name_H-M    'P1'
_symmetry_Int_Tables_number       1
_symmetry_cell_setting            triclinic
loop_
_symmetry_equiv_pos_as_xyz
  x,y,z
_cell_length_a                    26.3152
_cell_length_b                    30.3005
_cell_length_c                    27.8773
_cell_angle_alpha                 91.0644
_cell_angle_beta                  98.1196
_cell_angle_gamma                 91.1854
loop_
_atom_site_label
_atom_site_type_symbol
_atom_site_fract_x
_atom_site_fract_y
_atom_site_fract_z
_atom_site_U_iso_or_equiv
_atom_site_adp_type
_atom_site_occupancy
C1     C     0.16727   0.16512   0.24956   0.00000  Uiso   1.00
C2     C     0.16608   0.33515   0.25029   0.00000  Uiso   1.00
C3     C     0.21151   0.25879   0.05974   0.00000  Uiso   1.00
C4     C     0.14420   0.21379   0.44199   0.00000  Uiso   1.00
C5     C     0.20873   0.26499   0.10980   0.00000  Uiso   1.00
C6     C     0.14000   0.21745   0.39078   0.00000  Uiso   1.00
C7     C     0.12449   0.23424   0.09828   0.00000  Uiso   1.00
C8     C     0.19349   0.28180   0.40025   0.00000  Uiso   1.00
C9     C     0.12189   0.23826   0.04732   0.00000  Uiso   1.00
C10    C     0.18892   0.28445   0.45049   0.00000  Uiso   1.00
C11    C     0.16686   0.24804   0.02707   0.00000  Uiso   1.00
C12    C     0.16689   0.24859   0.47266   0.00000  Uiso   1.00
C13    C     0.06806   0.24906   0.23775   0.00000  Uiso   1.00
C14    C     0.26532   0.25087   0.26212   0.00000  Uiso   1.00
C15    C     0.01338   0.24191   0.23253   0.00000  Uiso   1.00
C16    C     0.32000   0.25825   0.26672   0.00000  Uiso   1.00
C17    C     0.13498   0.04820   0.27611   0.00000  Uiso   1.00
C18    C     0.14873   0.45101   0.20468   0.00000  Uiso   1.00
C19    C     0.13813   0.09409   0.27807   0.00000  Uiso   1.00
C20    C     0.15154   0.40502   0.20616   0.00000  Uiso   1.00
C21    C     0.16714   0.11701   0.24801   0.00000  Uiso   1.00
C22    C     0.16451   0.38371   0.25032   0.00000  Uiso   1.00
C23    C     0.19413   0.09412   0.21550   0.00000  Uiso   1.00
C24    C     0.17517   0.40922   0.29352   0.00000  Uiso   1.00
C25    C     0.19433   0.04757   0.21604   0.00000  Uiso   1.00
C26    C     0.17932   0.45522   0.29146   0.00000  Uiso   1.00
C27    C     0.16418   0.02475   0.24600   0.00000  Uiso   1.00
C28    C     0.16452   0.47627   0.24721   0.00000  Uiso   1.00
Cu29   Cu    0.16667   0.24999   0.29822   0.00000  Uiso   1.00
Cu30   Cu    0.16667   0.25000   0.20179   0.00000  Uiso   1.00
H31    H     0.11687   0.11184   0.30253   0.00000  Uiso   1.00
H32    H     0.14236   0.38599   0.17267   0.00000  Uiso   1.00
N33    N     0.16667   0.25001   0.12935   0.00000  Uiso   1.00
N34    N     0.16667   0.24999   0.37066   0.00000  Uiso   1.00
O35    O     0.16667   0.18572   0.29072   0.00000  Uiso   1.00
O36    O     0.16666   0.31427   0.20929   0.00000  Uiso   1.00
O37    O     0.16667   0.18573   0.20928   0.00000  Uiso   1.00
O38    O     0.16666   0.31427   0.29072   0.00000  Uiso   1.00
O39    O     0.09161   0.24999   0.28132   0.00000  Uiso   1.00
O40    O     0.24172   0.25000   0.21868   0.00000  Uiso   1.00
O41    O     0.09161   0.25000   0.19989   0.00000  Uiso   1.00
O42    O     0.24172   0.25000   0.30012   0.00000  Uiso   1.00
Cl43   Cl    0.32064   0.20331   0.18656   0.00000  Uiso   1.00
Cl44   Cl    0.01291   0.29891   0.31014   0.00000  Uiso   1.00
O45    O     0.10611   0.02608   0.30627   0.00000  Uiso   1.00
C46    C     0.05402   0.02696   0.28600   0.00000  Uiso   1.00
H47    H     0.04781   0.01198   0.24884   0.00000  Uiso   1.00
H48    H     0.03939   0.06116   0.28564   0.00000  Uiso   1.00
H49    H     0.03127   0.00702   0.30871   0.00000  Uiso   1.00
O50    O     0.13364   0.47175   0.16128   0.00000  Uiso   1.00
C51    C     0.08104   0.46251   0.14586   0.00000  Uiso   1.00
H52    H     0.05727   0.46958   0.17502   0.00000  Uiso   1.00
H53    H     0.07456   0.42778   0.13248   0.00000  Uiso   1.00
H54    H     0.06779   0.48420   0.11519   0.00000  Uiso   1.00
O55    O     0.22490   0.11792   0.18808   0.00000  Uiso   1.00
C56    C     0.21188   0.10778   0.13808   0.00000  Uiso   1.00
H57    H     0.21422   0.13870   0.11769   0.00000  Uiso   1.00
H58    H     0.17237   0.09343   0.12784   0.00000  Uiso   1.00
H59    H     0.24030   0.08491   0.12623   0.00000  Uiso   1.00
O60    O     0.18329   0.38958   0.33806   0.00000  Uiso   1.00
C61    C     0.13670   0.39010   0.35766   0.00000  Uiso   1.00
H62    H     0.12568   0.42436   0.36592   0.00000  Uiso   1.00
H63    H     0.14203   0.37225   0.39206   0.00000  Uiso   1.00
H64    H     0.10501   0.37280   0.33327   0.00000  Uiso   1.00
O65    O     0.22186   0.02441   0.18550   0.00000  Uiso   1.00
C66    C     0.27252   0.01975   0.20867   0.00000  Uiso   1.00
H67    H     0.27376   0.49498   0.23764   0.00000  Uiso   1.00
H68    H     0.29027   0.05177   0.22340   0.00000  Uiso   1.00
H69    H     0.29609   0.00721   0.18160   0.00000  Uiso   1.00
O70    O     0.19352   0.47940   0.33403   0.00000  Uiso   1.00
C71    C     0.24690   0.48797   0.33983   0.00000  Uiso   1.00
H72    H     0.25618   0.01445   0.31526   0.00000  Uiso   1.00
H73    H     0.26905   0.45779   0.33425   0.00000  Uiso   1.00
H74    H     0.25943   0.00017   0.37748   0.00000  Uiso   1.00
O75    O     0.25863   0.26277   0.04373   0.00000  Uiso   1.00
C76    C     0.28061   0.22056   0.04376   0.00000  Uiso   1.00
H77    H     0.26547   0.19631   0.06827   0.00000  Uiso   1.00
H78    H     0.32222   0.22424   0.05657   0.00000  Uiso   1.00
H79    H     0.27532   0.20662   0.00623   0.00000  Uiso   1.00
O80    O     0.12424   0.17673   0.46146   0.00000  Uiso   1.00
C81    C     0.16299   0.14520   0.46894   0.00000  Uiso   1.00
H82    H     0.19544   0.15731   0.49626   0.00000  Uiso   1.00
H83    H     0.17703   0.13573   0.43441   0.00000  Uiso   1.00
H84    H     0.14665   0.11500   0.48337   0.00000  Uiso   1.00
O85    O     0.25050   0.28337   0.13938   0.00000  Uiso   1.00
C86    C     0.25213   0.32928   0.13205   0.00000  Uiso   1.00
H87    H     0.21492   0.34479   0.13607   0.00000  Uiso   1.00
H88    H     0.26321   0.33677   0.09598   0.00000  Uiso   1.00
H89    H     0.28180   0.34458   0.15997   0.00000  Uiso   1.00
O90    O     0.11207   0.18614   0.36070   0.00000  Uiso   1.00
C91    C     0.05931   0.18909   0.36468   0.00000  Uiso   1.00
H92    H     0.03684   0.17551   0.33075   0.00000  Uiso   1.00
H93    H     0.04694   0.22367   0.36939   0.00000  Uiso   1.00
H94    H     0.04943   0.16870   0.39486   0.00000  Uiso   1.00
O95    O     0.08265   0.21658   0.11650   0.00000  Uiso   1.00
C96    C     0.08187   0.17031   0.10952   0.00000  Uiso   1.00
H97    H     0.07458   0.16067   0.07045   0.00000  Uiso   1.00
H98    H     0.05015   0.15580   0.12678   0.00000  Uiso   1.00
H99    H     0.11803   0.15575   0.12692   0.00000  Uiso   1.00
O100   O     0.22129   0.31380   0.37994   0.00000  Uiso   1.00
C101   C     0.27397   0.31017   0.39762   0.00000  Uiso   1.00
H102   H     0.29544   0.33552   0.37996   0.00000  Uiso   1.00
H103   H     0.28821   0.27700   0.38910   0.00000  Uiso   1.00
H104   H     0.28294   0.31729   0.43708   0.00000  Uiso   1.00
O105   O     0.07570   0.22945   0.01803   0.00000  Uiso   1.00
C106   C     0.05330   0.26981   0.00341   0.00000  Uiso   1.00
H107   H     0.07575   0.28735   0.47856   0.00000  Uiso   1.00
H108   H     0.04833   0.29141   0.03510   0.00000  Uiso   1.00
H109   H     0.01473   0.26269   0.48279   0.00000  Uiso   1.00
O110   O     0.20888   0.32143   0.47732   0.00000  Uiso   1.00
C111   C     0.16886   0.34673   0.49166   0.00000  Uiso   1.00
H112   H     0.18181   0.38187   0.49473   0.00000  Uiso   1.00
H113   H     0.13278   0.34483   0.46548   0.00000  Uiso   1.00
H114   H     0.16070   0.33685   0.02796   0.00000  Uiso   1.00
C115   C     0.50060   0.16512   0.24956   0.00000  Uiso   1.00
C116   C     0.49942   0.33515   0.25029   0.00000  Uiso   1.00
C117   C     0.54484   0.25879   0.05974   0.00000  Uiso   1.00
C118   C     0.47753   0.21379   0.44199   0.00000  Uiso   1.00
C119   C     0.54206   0.26499   0.10980   0.00000  Uiso   1.00
C120   C     0.47333   0.21745   0.39078   0.00000  Uiso   1.00
C121   C     0.45783   0.23424   0.09828   0.00000  Uiso   1.00
C122   C     0.52682   0.28180   0.40025   0.00000  Uiso   1.00
C123   C     0.45523   0.23826   0.04732   0.00000  Uiso   1.00
C124   C     0.52226   0.28445   0.45049   0.00000  Uiso   1.00
C125   C     0.50020   0.24804   0.02707   0.00000  Uiso   1.00
C126   C     0.50022   0.24859   0.47266   0.00000  Uiso   1.00
C127   C     0.40139   0.24906   0.23775   0.00000  Uiso   1.00
C128   C     0.59865   0.25087   0.26212   0.00000  Uiso   1.00
C129   C     0.34671   0.24191   0.23253   0.00000  Uiso   1.00
C130   C     0.65333   0.25825   0.26672   0.00000  Uiso   1.00
C131   C     0.46831   0.04820   0.27611   0.00000  Uiso   1.00
C132   C     0.48206   0.45101   0.20468   0.00000  Uiso   1.00
C133   C     0.47146   0.09409   0.27807   0.00000  Uiso   1.00
C134   C     0.48487   0.40502   0.20616   0.00000  Uiso   1.00
C135   C     0.50048   0.11701   0.24801   0.00000  Uiso   1.00
C136   C     0.49784   0.38371   0.25032   0.00000  Uiso   1.00
C137   C     0.52746   0.09412   0.21550   0.00000  Uiso   1.00
C138   C     0.50851   0.40922   0.29352   0.00000  Uiso   1.00
C139   C     0.52766   0.04757   0.21604   0.00000  Uiso   1.00
C140   C     0.51265   0.45522   0.29146   0.00000  Uiso   1.00
C141   C     0.49751   0.02475   0.24600   0.00000  Uiso   1.00
C142   C     0.49785   0.47627   0.24721   0.00000  Uiso   1.00
Cu143  Cu    0.50000   0.24999   0.29822   0.00000  Uiso   1.00
Cu144  Cu    0.50000   0.25000   0.20179   0.00000  Uiso   1.00
H145   H     0.45020   0.11184   0.30253   0.00000  Uiso   1.00
H146   H     0.47570   0.38599   0.17267   0.00000  Uiso   1.00
N147   N     0.50000   0.25001   0.12935   0.00000  Uiso   1.00
N148   N     0.50000   0.24999   0.37066   0.00000  Uiso   1.00
O149   O     0.50000   0.18572   0.29072   0.00000  Uiso   1.00
O150   O     0.50000   0.31427   0.20929   0.00000  Uiso   1.00
O151   O     0.50000   0.18573   0.20928   0.00000  Uiso   1.00
O152   O     0.50000   0.31427   0.29072   0.00000  Uiso   1.00
O153   O     0.42495   0.24999   0.28132   0.00000  Uiso   1.00
O154   O     0.57505   0.25000   0.21868   0.00000  Uiso   1.00
O155   O     0.42495   0.25000   0.19989   0.00000  Uiso   1.00
O156   O     0.57505   0.25000   0.30012   0.00000  Uiso   1.00
Cl157  Cl    0.65397   0.20331   0.18656   0.00000  Uiso   1.00
Cl158  Cl    0.34624   0.29891   0.31014   0.00000  Uiso   1.00
O159   O     0.43944   0.02608   0.30627   0.00000  Uiso   1.00
C160   C     0.38735   0.02696   0.28600   0.00000  Uiso   1.00
H161   H     0.38114   0.01198   0.24884   0.00000  Uiso   1.00
H162   H     0.37273   0.06116   0.28564   0.00000  Uiso   1.00
H163   H     0.36460   0.00702   0.30871   0.00000  Uiso   1.00
O164   O     0.46698   0.47175   0.16128   0.00000  Uiso   1.00
C165   C     0.41437   0.46251   0.14586   0.00000  Uiso   1.00
H166   H     0.39061   0.46958   0.17502   0.00000  Uiso   1.00
H167   H     0.40789   0.42778   0.13248   0.00000  Uiso   1.00
H168   H     0.40113   0.48420   0.11519   0.00000  Uiso   1.00
O169   O     0.55824   0.11792   0.18808   0.00000  Uiso   1.00
C170   C     0.54522   0.10778   0.13808   0.00000  Uiso   1.00
H171   H     0.54755   0.13870   0.11769   0.00000  Uiso   1.00
H172   H     0.50571   0.09343   0.12784   0.00000  Uiso   1.00
H173   H     0.57363   0.08491   0.12623   0.00000  Uiso   1.00
O174   O     0.51663   0.38958   0.33806   0.00000  Uiso   1.00
C175   C     0.47004   0.39010   0.35766   0.00000  Uiso   1.00
H176   H     0.45902   0.42436   0.36592   0.00000  Uiso   1.00
H177   H     0.47536   0.37225   0.39206   0.00000  Uiso   1.00
H178   H     0.43835   0.37280   0.33327   0.00000  Uiso   1.00
O179   O     0.55520   0.02441   0.18550   0.00000  Uiso   1.00
C180   C     0.60585   0.01975   0.20867   0.00000  Uiso   1.00
H181   H     0.60710   0.49498   0.23764   0.00000  Uiso   1.00
H182   H     0.62360   0.05177   0.22340   0.00000  Uiso   1.00
H183   H     0.62943   0.00721   0.18160   0.00000  Uiso   1.00
O184   O     0.52685   0.47940   0.33403   0.00000  Uiso   1.00
C185   C     0.58023   0.48797   0.33983   0.00000  Uiso   1.00
H186   H     0.58952   0.01445   0.31526   0.00000  Uiso   1.00
H187   H     0.60238   0.45779   0.33425   0.00000  Uiso   1.00
H188   H     0.59276   0.00017   0.37748   0.00000  Uiso   1.00
O189   O     0.59196   0.26277   0.04373   0.00000  Uiso   1.00
C190   C     0.61394   0.22056   0.04376   0.00000  Uiso   1.00
H191   H     0.59881   0.19631   0.06827   0.00000  Uiso   1.00
H192   H     0.65555   0.22424   0.05657   0.00000  Uiso   1.00
H193   H     0.60865   0.20662   0.00623   0.00000  Uiso   1.00
O194   O     0.45757   0.17673   0.46146   0.00000  Uiso   1.00
C195   C     0.49633   0.14520   0.46894   0.00000  Uiso   1.00
H196   H     0.52878   0.15731   0.49626   0.00000  Uiso   1.00
H197   H     0.51037   0.13573   0.43441   0.00000  Uiso   1.00
H198   H     0.47998   0.11500   0.48337   0.00000  Uiso   1.00
O199   O     0.58384   0.28337   0.13938   0.00000  Uiso   1.00
C200   C     0.58546   0.32928   0.13205   0.00000  Uiso   1.00
H201   H     0.54825   0.34479   0.13607   0.00000  Uiso   1.00
H202   H     0.59654   0.33677   0.09598   0.00000  Uiso   1.00
H203   H     0.61514   0.34458   0.15997   0.00000  Uiso   1.00
O204   O     0.44540   0.18614   0.36070   0.00000  Uiso   1.00
C205   C     0.39264   0.18909   0.36468   0.00000  Uiso   1.00
H206   H     0.37018   0.17551   0.33075   0.00000  Uiso   1.00
H207   H     0.38028   0.22367   0.36939   0.00000  Uiso   1.00
H208   H     0.38276   0.16870   0.39486   0.00000  Uiso   1.00
O209   O     0.41598   0.21658   0.11650   0.00000  Uiso   1.00
C210   C     0.41520   0.17031   0.10952   0.00000  Uiso   1.00
H211   H     0.40791   0.16067   0.07045   0.00000  Uiso   1.00
H212   H     0.38349   0.15580   0.12678   0.00000  Uiso   1.00
H213   H     0.45137   0.15575   0.12692   0.00000  Uiso   1.00
O214   O     0.55463   0.31380   0.37994   0.00000  Uiso   1.00
C215   C     0.60731   0.31017   0.39762   0.00000  Uiso   1.00
H216   H     0.62877   0.33552   0.37996   0.00000  Uiso   1.00
H217   H     0.62154   0.27700   0.38910   0.00000  Uiso   1.00
H218   H     0.61627   0.31729   0.43708   0.00000  Uiso   1.00
O219   O     0.40903   0.22945   0.01803   0.00000  Uiso   1.00
C220   C     0.38663   0.26981   0.00341   0.00000  Uiso   1.00
H221   H     0.40908   0.28735   0.47856   0.00000  Uiso   1.00
H222   H     0.38167   0.29141   0.03510   0.00000  Uiso   1.00
H223   H     0.34806   0.26269   0.48279   0.00000  Uiso   1.00
O224   O     0.54222   0.32143   0.47732   0.00000  Uiso   1.00
C225   C     0.50220   0.34673   0.49166   0.00000  Uiso   1.00
H226   H     0.51514   0.38187   0.49473   0.00000  Uiso   1.00
H227   H     0.46611   0.34483   0.46548   0.00000  Uiso   1.00
H228   H     0.49404   0.33685   0.02796   0.00000  Uiso   1.00
C229   C     0.83394   0.16512   0.24956   0.00000  Uiso   1.00
C230   C     0.83275   0.33515   0.25029   0.00000  Uiso   1.00
C231   C     0.87817   0.25879   0.05974   0.00000  Uiso   1.00
C232   C     0.81086   0.21379   0.44199   0.00000  Uiso   1.00
C233   C     0.87540   0.26499   0.10980   0.00000  Uiso   1.00
C234   C     0.80666   0.21745   0.39078   0.00000  Uiso   1.00
C235   C     0.79116   0.23424   0.09828   0.00000  Uiso   1.00
C236   C     0.86016   0.28180   0.40025   0.00000  Uiso   1.00
C237   C     0.78856   0.23826   0.04732   0.00000  Uiso   1.00
C238   C     0.85559   0.28445   0.45049   0.00000  Uiso   1.00
C239   C     0.83353   0.24804   0.02707   0.00000  Uiso   1.00
C240   C     0.83356   0.24859   0.47266   0.00000  Uiso   1.00
C241   C     0.73473   0.24906   0.23775   0.00000  Uiso   1.00
C242   C     0.93199   0.25087   0.26212   0.00000  Uiso   1.00
C243   C     0.68004   0.24191   0.23253   0.00000  Uiso   1.00
C244   C     0.98667   0.25825   0.26672   0.00000  Uiso   1.00
C245   C     0.80164   0.04820   0.27611   0.00000  Uiso   1.00
C246   C     0.81539   0.45101   0.20468   0.00000  Uiso   1.00
C247   C     0.80479   0.09409   0.27807   0.00000  Uiso   1.00
C248   C     0.81820   0.40502   0.20616   0.00000  Uiso   1.00
C249   C     0.83381   0.11701   0.24801   0.00000  Uiso   1.00
C250   C     0.83117   0.38371   0.25032   0.00000  Uiso   1.00
C251   C     0.86080   0.09412   0.21550   0.00000  Uiso   1.00
C252   C     0.84184   0.40922   0.29352   0.00000  Uiso   1.00
C253   C     0.86099   0.04757   0.21604   0.00000  Uiso   1.00
C254   C     0.84598   0.45522   0.29146   0.00000  Uiso   1.00
C255   C     0.83085   0.02475   0.24600   0.00000  Uiso   1.00
C256   C     0.83118   0.47627   0.24721   0.00000  Uiso   1.00
Cu257  Cu    0.83333   0.24999   0.29822   0.00000  Uiso   1.00
Cu258  Cu    0.83333   0.25000   0.20179   0.00000  Uiso   1.00
H259   H     0.78354   0.11184   0.30253   0.00000  Uiso   1.00
H260   H     0.80903   0.38599   0.17267   0.00000  Uiso   1.00
N261   N     0.83333   0.25001   0.12935   0.00000  Uiso   1.00
N262   N     0.83333   0.24999   0.37066   0.00000  Uiso   1.00
O263   O     0.83334   0.18572   0.29072   0.00000  Uiso   1.00
O264   O     0.83333   0.31427   0.20929   0.00000  Uiso   1.00
O265   O     0.83334   0.18573   0.20928   0.00000  Uiso   1.00
O266   O     0.83333   0.31427   0.29072   0.00000  Uiso   1.00
O267   O     0.75828   0.24999   0.28132   0.00000  Uiso   1.00
O268   O     0.90839   0.25000   0.21868   0.00000  Uiso   1.00
O269   O     0.75828   0.25000   0.19989   0.00000  Uiso   1.00
O270   O     0.90839   0.25000   0.30012   0.00000  Uiso   1.00
Cl271  Cl    0.98731   0.20331   0.18656   0.00000  Uiso   1.00
Cl272  Cl    0.67957   0.29891   0.31014   0.00000  Uiso   1.00
O273   O     0.77278   0.02608   0.30627   0.00000  Uiso   1.00
C274   C     0.72068   0.02696   0.28600   0.00000  Uiso   1.00
H275   H     0.71448   0.01198   0.24884   0.00000  Uiso   1.00
H276   H     0.70606   0.06116   0.28564   0.00000  Uiso   1.00
H277   H     0.69793   0.00702   0.30871   0.00000  Uiso   1.00
O278   O     0.80031   0.47175   0.16128   0.00000  Uiso   1.00
C279   C     0.74771   0.46251   0.14586   0.00000  Uiso   1.00
H280   H     0.72394   0.46958   0.17502   0.00000  Uiso   1.00
H281   H     0.74123   0.42778   0.13248   0.00000  Uiso   1.00
H282   H     0.73446   0.48420   0.11519   0.00000  Uiso   1.00
O283   O     0.89157   0.11792   0.18808   0.00000  Uiso   1.00
C284   C     0.87855   0.10778   0.13808   0.00000  Uiso   1.00
H285   H     0.88089   0.13870   0.11769   0.00000  Uiso   1.00
H286   H     0.83904   0.09343   0.12784   0.00000  Uiso   1.00
H287   H     0.90697   0.08491   0.12623   0.00000  Uiso   1.00
O288   O     0.84996   0.38958   0.33806   0.00000  Uiso   1.00
C289   C     0.80337   0.39010   0.35766   0.00000  Uiso   1.00
H290   H     0.79235   0.42436   0.36592   0.00000  Uiso   1.00
H291   H     0.80870   0.37225   0.39206   0.00000  Uiso   1.00
H292   H     0.77168   0.37280   0.33327   0.00000  Uiso   1.00
O293   O     0.88853   0.02441   0.18550   0.00000  Uiso   1.00
C294   C     0.93918   0.01975   0.20867   0.00000  Uiso   1.00
H295   H     0.94043   0.49498   0.23764   0.00000  Uiso   1.00
H296   H     0.95693   0.05177   0.22340   0.00000  Uiso   1.00
H297   H     0.96276   0.00721   0.18160   0.00000  Uiso   1.00
O298   O     0.86018   0.47940   0.33403   0.00000  Uiso   1.00
C299   C     0.91356   0.48797   0.33983   0.00000  Uiso   1.00
H300   H     0.92285   0.01445   0.31526   0.00000  Uiso   1.00
H301   H     0.93572   0.45779   0.33425   0.00000  Uiso   1.00
H302   H     0.92609   0.00017   0.37748   0.00000  Uiso   1.00
O303   O     0.92529   0.26277   0.04373   0.00000  Uiso   1.00
C304   C     0.94727   0.22056   0.04376   0.00000  Uiso   1.00
H305   H     0.93214   0.19631   0.06827   0.00000  Uiso   1.00
H306   H     0.98889   0.22424   0.05657   0.00000  Uiso   1.00
H307   H     0.94199   0.20662   0.00623   0.00000  Uiso   1.00
O308   O     0.79090   0.17673   0.46146   0.00000  Uiso   1.00
C309   C     0.82966   0.14520   0.46894   0.00000  Uiso   1.00
H310   H     0.86211   0.15731   0.49626   0.00000  Uiso   1.00
H311   H     0.84370   0.13573   0.43441   0.00000  Uiso   1.00
H312   H     0.81331   0.11500   0.48337   0.00000  Uiso   1.00
O313   O     0.91717   0.28337   0.13938   0.00000  Uiso   1.00
C314   C     0.91879   0.32928   0.13205   0.00000  Uiso   1.00
H315   H     0.88158   0.34479   0.13607   0.00000  Uiso   1.00
H316   H     0.92987   0.33677   0.09598   0.00000  Uiso   1.00
H317   H     0.94847   0.34458   0.15997   0.00000  Uiso   1.00
O318   O     0.77873   0.18614   0.36070   0.00000  Uiso   1.00
C319   C     0.72597   0.18909   0.36468   0.00000  Uiso   1.00
H320   H     0.70351   0.17551   0.33075   0.00000  Uiso   1.00
H321   H     0.71361   0.22367   0.36939   0.00000  Uiso   1.00
H322   H     0.71609   0.16870   0.39486   0.00000  Uiso   1.00
O323   O     0.74931   0.21658   0.11650   0.00000  Uiso   1.00
C324   C     0.74853   0.17031   0.10952   0.00000  Uiso   1.00
H325   H     0.74125   0.16067   0.07045   0.00000  Uiso   1.00
H326   H     0.71682   0.15580   0.12678   0.00000  Uiso   1.00
H327   H     0.78470   0.15575   0.12692   0.00000  Uiso   1.00
O328   O     0.88796   0.31380   0.37994   0.00000  Uiso   1.00
C329   C     0.94064   0.31017   0.39762   0.00000  Uiso   1.00
H330   H     0.96210   0.33552   0.37996   0.00000  Uiso   1.00
H331   H     0.95487   0.27700   0.38910   0.00000  Uiso   1.00
H332   H     0.94961   0.31729   0.43708   0.00000  Uiso   1.00
O333   O     0.74236   0.22945   0.01803   0.00000  Uiso   1.00
C334   C     0.71997   0.26981   0.00341   0.00000  Uiso   1.00
H335   H     0.74241   0.28735   0.47856   0.00000  Uiso   1.00
H336   H     0.71500   0.29141   0.03510   0.00000  Uiso   1.00
H337   H     0.68139   0.26269   0.48279   0.00000  Uiso   1.00
O338   O     0.87555   0.32143   0.47732   0.00000  Uiso   1.00
C339   C     0.83553   0.34673   0.49166   0.00000  Uiso   1.00
H340   H     0.84848   0.38187   0.49473   0.00000  Uiso   1.00
H341   H     0.79945   0.34483   0.46548   0.00000  Uiso   1.00
H342   H     0.82737   0.33685   0.02796   0.00000  Uiso   1.00
C343   C     0.16727   0.66512   0.24956   0.00000  Uiso   1.00
C344   C     0.16608   0.83515   0.25029   0.00000  Uiso   1.00
C345   C     0.21151   0.75879   0.05974   0.00000  Uiso   1.00
C346   C     0.14420   0.71379   0.44199   0.00000  Uiso   1.00
C347   C     0.20873   0.76499   0.10980   0.00000  Uiso   1.00
C348   C     0.14000   0.71745   0.39078   0.00000  Uiso   1.00
C349   C     0.12449   0.73424   0.09828   0.00000  Uiso   1.00
C350   C     0.19349   0.78180   0.40025   0.00000  Uiso   1.00
C351   C     0.12189   0.73826   0.04732   0.00000  Uiso   1.00
C352   C     0.18892   0.78445   0.45049   0.00000  Uiso   1.00
C353   C     0.16686   0.74804   0.02707   0.00000  Uiso   1.00
C354   C     0.16689   0.74859   0.47266   0.00000  Uiso   1.00
C355   C     0.06806   0.74906   0.23775   0.00000  Uiso   1.00
C356   C     0.26532   0.75087   0.26212   0.00000  Uiso   1.00
C357   C     0.01338   0.74191   0.23253   0.00000  Uiso   1.00
C358   C     0.32000   0.75825   0.26672   0.00000  Uiso   1.00
C359   C     0.13498   0.54820   0.27611   0.00000  Uiso   1.00
C360   C     0.14873   0.95101   0.20468   0.00000  Uiso   1.00
C361   C     0.13813   0.59409   0.27807   0.00000  Uiso   1.00
C362   C     0.15154   0.90502   0.20616   0.00000  Uiso   1.00
C363   C     0.16714   0.61701   0.24801   0.00000  Uiso   1.00
C364   C     0.16451   0.88371   0.25032   0.00000  Uiso   1.00
C365   C     0.19413   0.59412   0.21550   0.00000  Uiso   1.00
C366   C     0.17517   0.90922   0.29352   0.00000  Uiso   1.00
C367   C     0.19433   0.54757   0.21604   0.00000  Uiso   1.00
C368   C     0.17932   0.95522   0.29146   0.00000  Uiso   1.00
C369   C     0.16418   0.52475   0.24600   0.00000  Uiso   1.00
C370   C     0.16452   0.97627   0.24721   0.00000  Uiso   1.00
Cu371  Cu    0.16667   0.74999   0.29822   0.00000  Uiso   1.00
Cu372  Cu    0.16667   0.75000   0.20179   0.00000  Uiso   1.00
H373   H     0.11687   0.61184   0.30253   0.00000  Uiso   1.00
H374   H     0.14236   0.88599   0.17267   0.00000  Uiso   1.00
N375   N     0.16667   0.75001   0.12935   0.00000  Uiso   1.00
N376   N     0.16667   0.74999   0.37066   0.00000  Uiso   1.00
O377   O     0.16667   0.68572   0.29072   0.00000  Uiso   1.00
O378   O     0.16666   0.81427   0.20929   0.00000  Uiso   1.00
O379   O     0.16667   0.68573   0.20928   0.00000  Uiso   1.00
O380   O     0.16666   0.81427   0.29072   0.00000  Uiso   1.00
O381   O     0.09161   0.74999   0.28132   0.00000  Uiso   1.00
O382   O     0.24172   0.75000   0.21868   0.00000  Uiso   1.00
O383   O     0.09161   0.75000   0.19989   0.00000  Uiso   1.00
O384   O     0.24172   0.75000   0.30012   0.00000  Uiso   1.00
Cl385  Cl    0.32064   0.70331   0.18656   0.00000  Uiso   1.00
Cl386  Cl    0.01291   0.79891   0.31014   0.00000  Uiso   1.00
O387   O     0.10611   0.52608   0.30627   0.00000  Uiso   1.00
C388   C     0.05402   0.52696   0.28600   0.00000  Uiso   1.00
H389   H     0.04781   0.51198   0.24884   0.00000  Uiso   1.00
H390   H     0.03939   0.56116   0.28564   0.00000  Uiso   1.00
H391   H     0.03127   0.50702   0.30871   0.00000  Uiso   1.00
O392   O     0.13364   0.97175   0.16128   0.00000  Uiso   1.00
C393   C     0.08104   0.96251   0.14586   0.00000  Uiso   1.00
H394   H     0.05727   0.96958   0.17502   0.00000  Uiso   1.00
H395   H     0.07456   0.92778   0.13248   0.00000  Uiso   1.00
H396   H     0.06779   0.98420   0.11519   0.00000  Uiso   1.00
O397   O     0.22490   0.61792   0.18808   0.00000  Uiso   1.00
C398   C     0.21188   0.60778   0.13808   0.00000  Uiso   1.00
H399   H     0.21422   0.63870   0.11769   0.00000  Uiso   1.00
H400   H     0.17237   0.59343   0.12784   0.00000  Uiso   1.00
H401   H     0.24030   0.58491   0.12623   0.00000  Uiso   1.00
O402   O     0.18329   0.88958   0.33806   0.00000  Uiso   1.00
C403   C     0.13670   0.89010   0.35766   0.00000  Uiso   1.00
H404   H     0.12568   0.92436   0.36592   0.00000  Uiso   1.00
H405   H     0.14203   0.87225   0.39206   0.00000  Uiso   1.00
H406   H     0.10501   0.87280   0.33327   0.00000  Uiso   1.00
O407   O     0.22186   0.52441   0.18550   0.00000  Uiso   1.00
C408   C     0.27252   0.51975   0.20867   0.00000  Uiso   1.00
H409   H     0.27376   0.99498   0.23764   0.00000  Uiso   1.00
H410   H     0.29027   0.55177   0.22340   0.00000  Uiso   1.00
H411   H     0.29609   0.50721   0.18160   0.00000  Uiso   1.00
O412   O     0.19352   0.97940   0.33403   0.00000  Uiso   1.00
C413   C     0.24690   0.98797   0.33983   0.00000  Uiso   1.00
H414   H     0.25618   0.51445   0.31526   0.00000  Uiso   1.00
H415   H     0.26905   0.95779   0.33425   0.00000  Uiso   1.00
H416   H     0.25943   0.50017   0.37748   0.00000  Uiso   1.00
O417   O     0.25863   0.76277   0.04373   0.00000  Uiso   1.00
C418   C     0.28061   0.72056   0.04376   0.00000  Uiso   1.00
H419   H     0.26547   0.69631   0.06827   0.00000  Uiso   1.00
H420   H     0.32222   0.72424   0.05657   0.00000  Uiso   1.00
H421   H     0.27532   0.70662   0.00623   0.00000  Uiso   1.00
O422   O     0.12424   0.67673   0.46146   0.00000  Uiso   1.00
C423   C     0.16299   0.64520   0.46894   0.00000  Uiso   1.00
H424   H     0.19544   0.65731   0.49626   0.00000  Uiso   1.00
H425   H     0.17703   0.63573   0.43441   0.00000  Uiso   1.00
H426   H     0.14665   0.61500   0.48337   0.00000  Uiso   1.00
O427   O     0.25050   0.78337   0.13938   0.00000  Uiso   1.00
C428   C     0.25213   0.82928   0.13205   0.00000  Uiso   1.00
H429   H     0.21492   0.84479   0.13607   0.00000  Uiso   1.00
H430   H     0.26321   0.83677   0.09598   0.00000  Uiso   1.00
H431   H     0.28180   0.84458   0.15997   0.00000  Uiso   1.00
O432   O     0.11207   0.68614   0.36070   0.00000  Uiso   1.00
C433   C     0.05931   0.68909   0.36468   0.00000  Uiso   1.00
H434   H     0.03684   0.67551   0.33075   0.00000  Uiso   1.00
H435   H     0.04694   0.72367   0.36939   0.00000  Uiso   1.00
H436   H     0.04943   0.66870   0.39486   0.00000  Uiso   1.00
O437   O     0.08265   0.71658   0.11650   0.00000  Uiso   1.00
C438   C     0.08187   0.67031   0.10952   0.00000  Uiso   1.00
H439   H     0.07458   0.66067   0.07045   0.00000  Uiso   1.00
H440   H     0.05015   0.65580   0.12678   0.00000  Uiso   1.00
H441   H     0.11803   0.65575   0.12692   0.00000  Uiso   1.00
O442   O     0.22129   0.81380   0.37994   0.00000  Uiso   1.00
C443   C     0.27397   0.81017   0.39762   0.00000  Uiso   1.00
H444   H     0.29544   0.83552   0.37996   0.00000  Uiso   1.00
H445   H     0.28821   0.77700   0.38910   0.00000  Uiso   1.00
H446   H     0.28294   0.81729   0.43708   0.00000  Uiso   1.00
O447   O     0.07570   0.72945   0.01803   0.00000  Uiso   1.00
C448   C     0.05330   0.76981   0.00341   0.00000  Uiso   1.00
H449   H     0.07575   0.78735   0.47856   0.00000  Uiso   1.00
H450   H     0.04833   0.79141   0.03510   0.00000  Uiso   1.00
H451   H     0.01473   0.76269   0.48279   0.00000  Uiso   1.00
O452   O     0.20888   0.82143   0.47732   0.00000  Uiso   1.00
C453   C     0.16886   0.84673   0.49166   0.00000  Uiso   1.00
H454   H     0.18181   0.88187   0.49473   0.00000  Uiso   1.00
H455   H     0.13278   0.84483   0.46548   0.00000  Uiso   1.00
H456   H     0.16070   0.83685   0.02796   0.00000  Uiso   1.00
C457   C     0.50060   0.66512   0.24956   0.00000  Uiso   1.00
C458   C     0.49942   0.83515   0.25029   0.00000  Uiso   1.00
C459   C     0.54484   0.75879   0.05974   0.00000  Uiso   1.00
C460   C     0.47753   0.71379   0.44199   0.00000  Uiso   1.00
C461   C     0.54206   0.76499   0.10980   0.00000  Uiso   1.00
C462   C     0.47333   0.71745   0.39078   0.00000  Uiso   1.00
C463   C     0.45783   0.73424   0.09828   0.00000  Uiso   1.00
C464   C     0.52682   0.78180   0.40025   0.00000  Uiso   1.00
C465   C     0.45523   0.73826   0.04732   0.00000  Uiso   1.00
C466   C     0.52226   0.78445   0.45049   0.00000  Uiso   1.00
C467   C     0.50020   0.74804   0.02707   0.00000  Uiso   1.00
C468   C     0.50022   0.74859   0.47266   0.00000  Uiso   1.00
C469   C     0.40139   0.74906   0.23775   0.00000  Uiso   1.00
C470   C     0.59865   0.75087   0.26212   0.00000  Uiso   1.00
C471   C     0.34671   0.74191   0.23253   0.00000  Uiso   1.00
C472   C     0.65333   0.75825   0.26672   0.00000  Uiso   1.00
C473   C     0.46831   0.54820   0.27611   0.00000  Uiso   1.00
C474   C     0.48206   0.95101   0.20468   0.00000  Uiso   1.00
C475   C     0.47146   0.59409   0.27807   0.00000  Uiso   1.00
C476   C     0.48487   0.90502   0.20616   0.00000  Uiso   1.00
C477   C     0.50048   0.61701   0.24801   0.00000  Uiso   1.00
C478   C     0.49784   0.88371   0.25032   0.00000  Uiso   1.00
C479   C     0.52746   0.59412   0.21550   0.00000  Uiso   1.00
C480   C     0.50851   0.90922   0.29352   0.00000  Uiso   1.00
C481   C     0.52766   0.54757   0.21604   0.00000  Uiso   1.00
C482   C     0.51265   0.95522   0.29146   0.00000  Uiso   1.00
C483   C     0.49751   0.52475   0.24600   0.00000  Uiso   1.00
C484   C     0.49785   0.97627   0.24721   0.00000  Uiso   1.00
Cu485  Cu    0.50000   0.74999   0.29822   0.00000  Uiso   1.00
Cu486  Cu    0.50000   0.75000   0.20179   0.00000  Uiso   1.00
H487   H     0.45020   0.61184   0.30253   0.00000  Uiso   1.00
H488   H     0.47570   0.88599   0.17267   0.00000  Uiso   1.00
N489   N     0.50000   0.75001   0.12935   0.00000  Uiso   1.00
N490   N     0.50000   0.74999   0.37066   0.00000  Uiso   1.00
O491   O     0.50000   0.68572   0.29072   0.00000  Uiso   1.00
O492   O     0.50000   0.81427   0.20929   0.00000  Uiso   1.00
O493   O     0.50000   0.68573   0.20928   0.00000  Uiso   1.00
O494   O     0.50000   0.81427   0.29072   0.00000  Uiso   1.00
O495   O     0.42495   0.74999   0.28132   0.00000  Uiso   1.00
O496   O     0.57505   0.75000   0.21868   0.00000  Uiso   1.00
O497   O     0.42495   0.75000   0.19989   0.00000  Uiso   1.00
O498   O     0.57505   0.75000   0.30012   0.00000  Uiso   1.00
Cl499  Cl    0.65397   0.70331   0.18656   0.00000  Uiso   1.00
Cl500  Cl    0.34624   0.79891   0.31014   0.00000  Uiso   1.00
O501   O     0.43944   0.52608   0.30627   0.00000  Uiso   1.00
C502   C     0.38735   0.52696   0.28600   0.00000  Uiso   1.00
H503   H     0.38114   0.51198   0.24884   0.00000  Uiso   1.00
H504   H     0.37273   0.56116   0.28564   0.00000  Uiso   1.00
H505   H     0.36460   0.50702   0.30871   0.00000  Uiso   1.00
O506   O     0.46698   0.97175   0.16128   0.00000  Uiso   1.00
C507   C     0.41437   0.96251   0.14586   0.00000  Uiso   1.00
H508   H     0.39061   0.96958   0.17502   0.00000  Uiso   1.00
H509   H     0.40789   0.92778   0.13248   0.00000  Uiso   1.00
H510   H     0.40113   0.98420   0.11519   0.00000  Uiso   1.00
O511   O     0.55824   0.61792   0.18808   0.00000  Uiso   1.00
C512   C     0.54522   0.60778   0.13808   0.00000  Uiso   1.00
H513   H     0.54755   0.63870   0.11769   0.00000  Uiso   1.00
H514   H     0.50571   0.59343   0.12784   0.00000  Uiso   1.00
H515   H     0.57363   0.58491   0.12623   0.00000  Uiso   1.00
O516   O     0.51663   0.88958   0.33806   0.00000  Uiso   1.00
C517   C     0.47004   0.89010   0.35766   0.00000  Uiso   1.00
H518   H     0.45902   0.92436   0.36592   0.00000  Uiso   1.00
H519   H     0.47536   0.87225   0.39206   0.00000  Uiso   1.00
H520   H     0.43835   0.87280   0.33327   0.00000  Uiso   1.00
O521   O     0.55520   0.52441   0.18550   0.00000  Uiso   1.00
C522   C     0.60585   0.51975   0.20867   0.00000  Uiso   1.00
H523   H     0.60710   0.99498   0.23764   0.00000  Uiso   1.00
H524   H     0.62360   0.55177   0.22340   0.00000  Uiso   1.00
H525   H     0.62943   0.50721   0.18160   0.00000  Uiso   1.00
O526   O     0.52685   0.97940   0.33403   0.00000  Uiso   1.00
C527   C     0.58023   0.98797   0.33983   0.00000  Uiso   1.00
H528   H     0.58952   0.51445   0.31526   0.00000  Uiso   1.00
H529   H     0.60238   0.95779   0.33425   0.00000  Uiso   1.00
H530   H     0.59276   0.50017   0.37748   0.00000  Uiso   1.00
O531   O     0.59196   0.76277   0.04373   0.00000  Uiso   1.00
C532   C     0.61394   0.72056   0.04376   0.00000  Uiso   1.00
H533   H     0.59881   0.69631   0.06827   0.00000  Uiso   1.00
H534   H     0.65555   0.72424   0.05657   0.00000  Uiso   1.00
H535   H     0.60865   0.70662   0.00623   0.00000  Uiso   1.00
O536   O     0.45757   0.67673   0.46146   0.00000  Uiso   1.00
C537   C     0.49633   0.64520   0.46894   0.00000  Uiso   1.00
H538   H     0.52878   0.65731   0.49626   0.00000  Uiso   1.00
H539   H     0.51037   0.63573   0.43441   0.00000  Uiso   1.00
H540   H     0.47998   0.61500   0.48337   0.00000  Uiso   1.00
O541   O     0.58384   0.78337   0.13938   0.00000  Uiso   1.00
C542   C     0.58546   0.82928   0.13205   0.00000  Uiso   1.00
H543   H     0.54825   0.84479   0.13607   0.00000  Uiso   1.00
H544   H     0.59654   0.83677   0.09598   0.00000  Uiso   1.00
H545   H     0.61514   0.84458   0.15997   0.00000  Uiso   1.00
O546   O     0.44540   0.68614   0.36070   0.00000  Uiso   1.00
C547   C     0.39264   0.68909   0.36468   0.00000  Uiso   1.00
H548   H     0.37018   0.67551   0.33075   0.00000  Uiso   1.00
H549   H     0.38028   0.72367   0.36939   0.00000  Uiso   1.00
H550   H     0.38276   0.66870   0.39486   0.00000  Uiso   1.00
O551   O     0.41598   0.71658   0.11650   0.00000  Uiso   1.00
C552   C     0.41520   0.67031   0.10952   0.00000  Uiso   1.00
H553   H     0.40791   0.66067   0.07045   0.00000  Uiso   1.00
H554   H     0.38349   0.65580   0.12678   0.00000  Uiso   1.00
H555   H     0.45137   0.65575   0.12692   0.00000  Uiso   1.00
O556   O     0.55463   0.81380   0.37994   0.00000  Uiso   1.00
C557   C     0.60731   0.81017   0.39762   0.00000  Uiso   1.00
H558   H     0.62877   0.83552   0.37996   0.00000  Uiso   1.00
H559   H     0.62154   0.77700   0.38910   0.00000  Uiso   1.00
H560   H     0.61627   0.81729   0.43708   0.00000  Uiso   1.00
O561   O     0.40903   0.72945   0.01803   0.00000  Uiso   1.00
C562   C     0.38663   0.76981   0.00341   0.00000  Uiso   1.00
H563   H     0.40908   0.78735   0.47856   0.00000  Uiso   1.00
H564   H     0.38167   0.79141   0.03510   0.00000  Uiso   1.00
H565   H     0.34806   0.76269   0.48279   0.00000  Uiso   1.00
O566   O     0.54222   0.82143   0.47732   0.00000  Uiso   1.00
C567   C     0.50220   0.84673   0.49166   0.00000  Uiso   1.00
H568   H     0.51514   0.88187   0.49473   0.00000  Uiso   1.00
H569   H     0.46611   0.84483   0.46548   0.00000  Uiso   1.00
H570   H     0.49404   0.83685   0.02796   0.00000  Uiso   1.00
C571   C     0.83394   0.66512   0.24956   0.00000  Uiso   1.00
C572   C     0.83275   0.83515   0.25029   0.00000  Uiso   1.00
C573   C     0.87817   0.75879   0.05974   0.00000  Uiso   1.00
C574   C     0.81086   0.71379   0.44199   0.00000  Uiso   1.00
C575   C     0.87540   0.76499   0.10980   0.00000  Uiso   1.00
C576   C     0.80666   0.71745   0.39078   0.00000  Uiso   1.00
C577   C     0.79116   0.73424   0.09828   0.00000  Uiso   1.00
C578   C     0.86016   0.78180   0.40025   0.00000  Uiso   1.00
C579   C     0.78856   0.73826   0.04732   0.00000  Uiso   1.00
C580   C     0.85559   0.78445   0.45049   0.00000  Uiso   1.00
C581   C     0.83353   0.74804   0.02707   0.00000  Uiso   1.00
C582   C     0.83356   0.74859   0.47266   0.00000  Uiso   1.00
C583   C     0.73473   0.74906   0.23775   0.00000  Uiso   1.00
C584   C     0.93199   0.75087   0.26212   0.00000  Uiso   1.00
C585   C     0.68004   0.74191   0.23253   0.00000  Uiso   1.00
C586   C     0.98667   0.75825   0.26672   0.00000  Uiso   1.00
C587   C     0.80164   0.54820   0.27611   0.00000  Uiso   1.00
C588   C     0.81539   0.95101   0.20468   0.00000  Uiso   1.00
C589   C     0.80479   0.59409   0.27807   0.00000  Uiso   1.00
C590   C     0.81820   0.90502   0.20616   0.00000  Uiso   1.00
C591   C     0.83381   0.61701   0.24801   0.00000  Uiso   1.00
C592   C     0.83117   0.88371   0.25032   0.00000  Uiso   1.00
C593   C     0.86080   0.59412   0.21550   0.00000  Uiso   1.00
C594   C     0.84184   0.90922   0.29352   0.00000  Uiso   1.00
C595   C     0.86099   0.54757   0.21604   0.00000  Uiso   1.00
C596   C     0.84598   0.95522   0.29146   0.00000  Uiso   1.00
C597   C     0.83085   0.52475   0.24600   0.00000  Uiso   1.00
C598   C     0.83118   0.97627   0.24721   0.00000  Uiso   1.00
Cu599  Cu    0.83333   0.74999   0.29822   0.00000  Uiso   1.00
Cu600  Cu    0.83333   0.75000   0.20179   0.00000  Uiso   1.00
H601   H     0.78354   0.61184   0.30253   0.00000  Uiso   1.00
H602   H     0.80903   0.88599   0.17267   0.00000  Uiso   1.00
N603   N     0.83333   0.75001   0.12935   0.00000  Uiso   1.00
N604   N     0.83333   0.74999   0.37066   0.00000  Uiso   1.00
O605   O     0.83334   0.68572   0.29072   0.00000  Uiso   1.00
O606   O     0.83333   0.81427   0.20929   0.00000  Uiso   1.00
O607   O     0.83334   0.68573   0.20928   0.00000  Uiso   1.00
O608   O     0.83333   0.81427   0.29072   0.00000  Uiso   1.00
O609   O     0.75828   0.74999   0.28132   0.00000  Uiso   1.00
O610   O     0.90839   0.75000   0.21868   0.00000  Uiso   1.00
O611   O     0.75828   0.75000   0.19989   0.00000  Uiso   1.00
O612   O     0.90839   0.75000   0.30012   0.00000  Uiso   1.00
Cl613  Cl    0.98731   0.70331   0.18656   0.00000  Uiso   1.00
Cl614  Cl    0.67957   0.79891   0.31014   0.00000  Uiso   1.00
O615   O     0.77278   0.52608   0.30627   0.00000  Uiso   1.00
C616   C     0.72068   0.52696   0.28600   0.00000  Uiso   1.00
H617   H     0.71448   0.51198   0.24884   0.00000  Uiso   1.00
H618   H     0.70606   0.56116   0.28564   0.00000  Uiso   1.00
H619   H     0.69793   0.50702   0.30871   0.00000  Uiso   1.00
O620   O     0.80031   0.97175   0.16128   0.00000  Uiso   1.00
C621   C     0.74771   0.96251   0.14586   0.00000  Uiso   1.00
H622   H     0.72394   0.96958   0.17502   0.00000  Uiso   1.00
H623   H     0.74123   0.92778   0.13248   0.00000  Uiso   1.00
H624   H     0.73446   0.98420   0.11519   0.00000  Uiso   1.00
O625   O     0.89157   0.61792   0.18808   0.00000  Uiso   1.00
C626   C     0.87855   0.60778   0.13808   0.00000  Uiso   1.00
H627   H     0.88089   0.63870   0.11769   0.00000  Uiso   1.00
H628   H     0.83904   0.59343   0.12784   0.00000  Uiso   1.00
H629   H     0.90697   0.58491   0.12623   0.00000  Uiso   1.00
O630   O     0.84996   0.88958   0.33806   0.00000  Uiso   1.00
C631   C     0.80337   0.89010   0.35766   0.00000  Uiso   1.00
H632   H     0.79235   0.92436   0.36592   0.00000  Uiso   1.00
H633   H     0.80870   0.87225   0.39206   0.00000  Uiso   1.00
H634   H     0.77168   0.87280   0.33327   0.00000  Uiso   1.00
O635   O     0.88853   0.52441   0.18550   0.00000  Uiso   1.00
C636   C     0.93918   0.51975   0.20867   0.00000  Uiso   1.00
H637   H     0.94043   0.99498   0.23764   0.00000  Uiso   1.00
H638   H     0.95693   0.55177   0.22340   0.00000  Uiso   1.00
H639   H     0.96276   0.50721   0.18160   0.00000  Uiso   1.00
O640   O     0.86018   0.97940   0.33403   0.00000  Uiso   1.00
C641   C     0.91356   0.98797   0.33983   0.00000  Uiso   1.00
H642   H     0.92285   0.51445   0.31526   0.00000  Uiso   1.00
H643   H     0.93572   0.95779   0.33425   0.00000  Uiso   1.00
H644   H     0.92609   0.50017   0.37748   0.00000  Uiso   1.00
O645   O     0.92529   0.76277   0.04373   0.00000  Uiso   1.00
C646   C     0.94727   0.72056   0.04376   0.00000  Uiso   1.00
H647   H     0.93214   0.69631   0.06827   0.00000  Uiso   1.00
H648   H     0.98889   0.72424   0.05657   0.00000  Uiso   1.00
H649   H     0.94199   0.70662   0.00623   0.00000  Uiso   1.00
O650   O     0.79090   0.67673   0.46146   0.00000  Uiso   1.00
C651   C     0.82966   0.64520   0.46894   0.00000  Uiso   1.00
H652   H     0.86211   0.65731   0.49626   0.00000  Uiso   1.00
H653   H     0.84370   0.63573   0.43441   0.00000  Uiso   1.00
H654   H     0.81331   0.61500   0.48337   0.00000  Uiso   1.00
O655   O     0.91717   0.78337   0.13938   0.00000  Uiso   1.00
C656   C     0.91879   0.82928   0.13205   0.00000  Uiso   1.00
H657   H     0.88158   0.84479   0.13607   0.00000  Uiso   1.00
H658   H     0.92987   0.83677   0.09598   0.00000  Uiso   1.00
H659   H     0.94847   0.84458   0.15997   0.00000  Uiso   1.00
O660   O     0.77873   0.68614   0.36070   0.00000  Uiso   1.00
C661   C     0.72597   0.68909   0.36468   0.00000  Uiso   1.00
H662   H     0.70351   0.67551   0.33075   0.00000  Uiso   1.00
H663   H     0.71361   0.72367   0.36939   0.00000  Uiso   1.00
H664   H     0.71609   0.66870   0.39486   0.00000  Uiso   1.00
O665   O     0.74931   0.71658   0.11650   0.00000  Uiso   1.00
C666   C     0.74853   0.67031   0.10952   0.00000  Uiso   1.00
H667   H     0.74125   0.66067   0.07045   0.00000  Uiso   1.00
H668   H     0.71682   0.65580   0.12678   0.00000  Uiso   1.00
H669   H     0.78470   0.65575   0.12692   0.00000  Uiso   1.00
O670   O     0.88796   0.81380   0.37994   0.00000  Uiso   1.00
C671   C     0.94064   0.81017   0.39762   0.00000  Uiso   1.00
H672   H     0.96210   0.83552   0.37996   0.00000  Uiso   1.00
H673   H     0.95487   0.77700   0.38910   0.00000  Uiso   1.00
H674   H     0.94961   0.81729   0.43708   0.00000  Uiso   1.00
O675   O     0.74236   0.72945   0.01803   0.00000  Uiso   1.00
C676   C     0.71997   0.76981   0.00341   0.00000  Uiso   1.00
H677   H     0.74241   0.78735   0.47856   0.00000  Uiso   1.00
H678   H     0.71500   0.79141   0.03510   0.00000  Uiso   1.00
H679   H     0.68139   0.76269   0.48279   0.00000  Uiso   1.00
O680   O     0.87555   0.82143   0.47732   0.00000  Uiso   1.00
C681   C     0.83553   0.84673   0.49166   0.00000  Uiso   1.00
H682   H     0.84848   0.88187   0.49473   0.00000  Uiso   1.00
H683   H     0.79945   0.84483   0.46548   0.00000  Uiso   1.00
H684   H     0.82737   0.83685   0.02796   0.00000  Uiso   1.00
C685   C     0.16727   0.16512   0.74956   0.00000  Uiso   1.00
C686   C     0.16608   0.33515   0.75029   0.00000  Uiso   1.00
C687   C     0.21151   0.25879   0.55974   0.00000  Uiso   1.00
C688   C     0.14420   0.21379   0.94199   0.00000  Uiso   1.00
C689   C     0.20873   0.26499   0.60980   0.00000  Uiso   1.00
C690   C     0.14000   0.21745   0.89078   0.00000  Uiso   1.00
C691   C     0.12449   0.23424   0.59828   0.00000  Uiso   1.00
C692   C     0.19349   0.28180   0.90025   0.00000  Uiso   1.00
C693   C     0.12189   0.23826   0.54732   0.00000  Uiso   1.00
C694   C     0.18892   0.28445   0.95049   0.00000  Uiso   1.00
C695   C     0.16686   0.24804   0.52707   0.00000  Uiso   1.00
C696   C     0.16689   0.24859   0.97266   0.00000  Uiso   1.00
C697   C     0.06806   0.24906   0.73775   0.00000  Uiso   1.00
C698   C     0.26532   0.25087   0.76212   0.00000  Uiso   1.00
C699   C     0.01338   0.24191   0.73253   0.00000  Uiso   1.00
C700   C     0.32000   0.25825   0.76672   0.00000  Uiso   1.00
C701   C     0.13498   0.04820   0.77611   0.00000  Uiso   1.00
C702   C     0.14873   0.45101   0.70468   0.00000  Uiso   1.00
C703   C     0.13813   0.09409   0.77807   0.00000  Uiso   1.00
C704   C     0.15154   0.40502   0.70616   0.00000  Uiso   1.00
C705   C     0.16714   0.11701   0.74801   0.00000  Uiso   1.00
C706   C     0.16451   0.38371   0.75032   0.00000  Uiso   1.00
C707   C     0.19413   0.09412   0.71550   0.00000  Uiso   1.00
C708   C     0.17517   0.40922   0.79352   0.00000  Uiso   1.00
C709   C     0.19433   0.04757   0.71604   0.00000  Uiso   1.00
C710   C     0.17932   0.45522   0.79146   0.00000  Uiso   1.00
C711   C     0.16418   0.02475   0.74600   0.00000  Uiso   1.00
C712   C     0.16452   0.47627   0.74721   0.00000  Uiso   1.00
Cu713  Cu    0.16667   0.24999   0.79822   0.00000  Uiso   1.00
Cu714  Cu    0.16667   0.25000   0.70179   0.00000  Uiso   1.00
H715   H     0.11687   0.11184   0.80253   0.00000  Uiso   1.00
H716   H     0.14236   0.38599   0.67267   0.00000  Uiso   1.00
N717   N     0.16667   0.25001   0.62935   0.00000  Uiso   1.00
N718   N     0.16667   0.24999   0.87066   0.00000  Uiso   1.00
O719   O     0.16667   0.18572   0.79072   0.00000  Uiso   1.00
O720   O     0.16666   0.31427   0.70929   0.00000  Uiso   1.00
O721   O     0.16667   0.18573   0.70928   0.00000  Uiso   1.00
O722   O     0.16666   0.31427   0.79072   0.00000  Uiso   1.00
O723   O     0.09161   0.24999   0.78132   0.00000  Uiso   1.00
O724   O     0.24172   0.25000   0.71868   0.00000  Uiso   1.00
O725   O     0.09161   0.25000   0.69989   0.00000  Uiso   1.00
O726   O     0.24172   0.25000   0.80012   0.00000  Uiso   1.00
Cl727  Cl    0.32064   0.20331   0.68656   0.00000  Uiso   1.00
Cl728  Cl    0.01291   0.29891   0.81014   0.00000  Uiso   1.00
O729   O     0.10611   0.02608   0.80627   0.00000  Uiso   1.00
C730   C     0.05402   0.02696   0.78600   0.00000  Uiso   1.00
H731   H     0.04781   0.01198   0.74884   0.00000  Uiso   1.00
H732   H     0.03939   0.06116   0.78564   0.00000  Uiso   1.00
H733   H     0.03127   0.00702   0.80871   0.00000  Uiso   1.00
O734   O     0.13364   0.47175   0.66128   0.00000  Uiso   1.00
C735   C     0.08104   0.46251   0.64586   0.00000  Uiso   1.00
H736   H     0.05727   0.46958   0.67502   0.00000  Uiso   1.00
H737   H     0.07456   0.42778   0.63248   0.00000  Uiso   1.00
H738   H     0.06779   0.48420   0.61519   0.00000  Uiso   1.00
O739   O     0.22490   0.11792   0.68808   0.00000  Uiso   1.00
C740   C     0.21188   0.10778   0.63808   0.00000  Uiso   1.00
H741   H     0.21422   0.13870   0.61769   0.00000  Uiso   1.00
H742   H     0.17237   0.09343   0.62784   0.00000  Uiso   1.00
H743   H     0.24030   0.08491   0.62623   0.00000  Uiso   1.00
O744   O     0.18329   0.38958   0.83806   0.00000  Uiso   1.00
C745   C     0.13670   0.39010   0.85766   0.00000  Uiso   1.00
H746   H     0.12568   0.42436   0.86592   0.00000  Uiso   1.00
H747   H     0.14203   0.37225   0.89206   0.00000  Uiso   1.00
H748   H     0.10501   0.37280   0.83327   0.00000  Uiso   1.00
O749   O     0.22186   0.02441   0.68550   0.00000  Uiso   1.00
C750   C     0.27252   0.01975   0.70867   0.00000  Uiso   1.00
H751   H     0.27376   0.49498   0.73764   0.00000  Uiso   1.00
H752   H     0.29027   0.05177   0.72340   0.00000  Uiso   1.00
H753   H     0.29609   0.00721   0.68160   0.00000  Uiso   1.00
O754   O     0.19352   0.47940   0.83403   0.00000  Uiso   1.00
C755   C     0.24690   0.48797   0.83983   0.00000  Uiso   1.00
H756   H     0.25618   0.01445   0.81526   0.00000  Uiso   1.00
H757   H     0.26905   0.45779   0.83425   0.00000  Uiso   1.00
H758   H     0.25943   0.00017   0.87748   0.00000  Uiso   1.00
O759   O     0.25863   0.26277   0.54373   0.00000  Uiso   1.00
C760   C     0.28061   0.22056   0.54376   0.00000  Uiso   1.00
H761   H     0.26547   0.19631   0.56827   0.00000  Uiso   1.00
H762   H     0.32222   0.22424   0.55657   0.00000  Uiso   1.00
H763   H     0.27532   0.20662   0.50623   0.00000  Uiso   1.00
O764   O     0.12424   0.17673   0.96146   0.00000  Uiso   1.00
C765   C     0.16299   0.14520   0.96894   0.00000  Uiso   1.00
H766   H     0.19544   0.15731   0.99626   0.00000  Uiso   1.00
H767   H     0.17703   0.13573   0.93441   0.00000  Uiso   1.00
H768   H     0.14665   0.11500   0.98337   0.00000  Uiso   1.00
O769   O     0.25050   0.28337   0.63938   0.00000  Uiso   1.00
C770   C     0.25213   0.32928   0.63205   0.00000  Uiso   1.00
H771   H     0.21492   0.34479   0.63607   0.00000  Uiso   1.00
H772   H     0.26321   0.33677   0.59598   0.00000  Uiso   1.00
H773   H     0.28180   0.34458   0.65997   0.00000  Uiso   1.00
O774   O     0.11207   0.18614   0.86070   0.00000  Uiso   1.00
C775   C     0.05931   0.18909   0.86468   0.00000  Uiso   1.00
H776   H     0.03684   0.17551   0.83075   0.00000  Uiso   1.00
H777   H     0.04694   0.22367   0.86939   0.00000  Uiso   1.00
H778   H     0.04943   0.16870   0.89486   0.00000  Uiso   1.00
O779   O     0.08265   0.21658   0.61650   0.00000  Uiso   1.00
C780   C     0.08187   0.17031   0.60952   0.00000  Uiso   1.00
H781   H     0.07458   0.16067   0.57045   0.00000  Uiso   1.00
H782   H     0.05015   0.15580   0.62678   0.00000  Uiso   1.00
H783   H     0.11803   0.15575   0.62692   0.00000  Uiso   1.00
O784   O     0.22129   0.31380   0.87994   0.00000  Uiso   1.00
C785   C     0.27397   0.31017   0.89762   0.00000  Uiso   1.00
H786   H     0.29544   0.33552   0.87996   0.00000  Uiso   1.00
H787   H     0.28821   0.27700   0.88910   0.00000  Uiso   1.00
H788   H     0.28294   0.31729   0.93708   0.00000  Uiso   1.00
O789   O     0.07570   0.22945   0.51803   0.00000  Uiso   1.00
C790   C     0.05330   0.26981   0.50341   0.00000  Uiso   1.00
H791   H     0.07575   0.28735   0.97856   0.00000  Uiso   1.00
H792   H     0.04833   0.29141   0.53510   0.00000  Uiso   1.00
H793   H     0.01473   0.26269   0.98279   0.00000  Uiso   1.00
O794   O     0.20888   0.32143   0.97732   0.00000  Uiso   1.00
C795   C     0.16886   0.34673   0.99166   0.00000  Uiso   1.00
H796   H     0.18181   0.38187   0.99473   0.00000  Uiso   1.00
H797   H     0.13278   0.34483   0.96548   0.00000  Uiso   1.00
H798   H     0.16070   0.33685   0.52796   0.00000  Uiso   1.00
C799   C     0.50060   0.16512   0.74956   0.00000  Uiso   1.00
C800   C     0.49942   0.33515   0.75029   0.00000  Uiso   1.00
C801   C     0.54484   0.25879   0.55974   0.00000  Uiso   1.00
C802   C     0.47753   0.21379   0.94199   0.00000  Uiso   1.00
C803   C     0.54206   0.26499   0.60980   0.00000  Uiso   1.00
C804   C     0.47333   0.21745   0.89078   0.00000  Uiso   1.00
C805   C     0.45783   0.23424   0.59828   0.00000  Uiso   1.00
C806   C     0.52682   0.28180   0.90025   0.00000  Uiso   1.00
C807   C     0.45523   0.23826   0.54732   0.00000  Uiso   1.00
C808   C     0.52226   0.28445   0.95049   0.00000  Uiso   1.00
C809   C     0.50020   0.24804   0.52707   0.00000  Uiso   1.00
C810   C     0.50022   0.24859   0.97266   0.00000  Uiso   1.00
C811   C     0.40139   0.24906   0.73775   0.00000  Uiso   1.00
C812   C     0.59865   0.25087   0.76212   0.00000  Uiso   1.00
C813   C     0.34671   0.24191   0.73253   0.00000  Uiso   1.00
C814   C     0.65333   0.25825   0.76672   0.00000  Uiso   1.00
C815   C     0.46831   0.04820   0.77611   0.00000  Uiso   1.00
C816   C     0.48206   0.45101   0.70468   0.00000  Uiso   1.00
C817   C     0.47146   0.09409   0.77807   0.00000  Uiso   1.00
C818   C     0.48487   0.40502   0.70616   0.00000  Uiso   1.00
C819   C     0.50048   0.11701   0.74801   0.00000  Uiso   1.00
C820   C     0.49784   0.38371   0.75032   0.00000  Uiso   1.00
C821   C     0.52746   0.09412   0.71550   0.00000  Uiso   1.00
C822   C     0.50851   0.40922   0.79352   0.00000  Uiso   1.00
C823   C     0.52766   0.04757   0.71604   0.00000  Uiso   1.00
C824   C     0.51265   0.45522   0.79146   0.00000  Uiso   1.00
C825   C     0.49751   0.02475   0.74600   0.00000  Uiso   1.00
C826   C     0.49785   0.47627   0.74721   0.00000  Uiso   1.00
Cu827  Cu    0.50000   0.24999   0.79822   0.00000  Uiso   1.00
Cu828  Cu    0.50000   0.25000   0.70179   0.00000  Uiso   1.00
H829   H     0.45020   0.11184   0.80253   0.00000  Uiso   1.00
H830   H     0.47570   0.38599   0.67267   0.00000  Uiso   1.00
N831   N     0.50000   0.25001   0.62935   0.00000  Uiso   1.00
N832   N     0.50000   0.24999   0.87066   0.00000  Uiso   1.00
O833   O     0.50000   0.18572   0.79072   0.00000  Uiso   1.00
O834   O     0.50000   0.31427   0.70929   0.00000  Uiso   1.00
O835   O     0.50000   0.18573   0.70928   0.00000  Uiso   1.00
O836   O     0.50000   0.31427   0.79072   0.00000  Uiso   1.00
O837   O     0.42495   0.24999   0.78132   0.00000  Uiso   1.00
O838   O     0.57505   0.25000   0.71868   0.00000  Uiso   1.00
O839   O     0.42495   0.25000   0.69989   0.00000  Uiso   1.00
O840   O     0.57505   0.25000   0.80012   0.00000  Uiso   1.00
Cl841  Cl    0.65397   0.20331   0.68656   0.00000  Uiso   1.00
Cl842  Cl    0.34624   0.29891   0.81014   0.00000  Uiso   1.00
O843   O     0.43944   0.02608   0.80627   0.00000  Uiso   1.00
C844   C     0.38735   0.02696   0.78600   0.00000  Uiso   1.00
H845   H     0.38114   0.01198   0.74884   0.00000  Uiso   1.00
H846   H     0.37273   0.06116   0.78564   0.00000  Uiso   1.00
H847   H     0.36460   0.00702   0.80871   0.00000  Uiso   1.00
O848   O     0.46698   0.47175   0.66128   0.00000  Uiso   1.00
C849   C     0.41437   0.46251   0.64586   0.00000  Uiso   1.00
H850   H     0.39061   0.46958   0.67502   0.00000  Uiso   1.00
H851   H     0.40789   0.42778   0.63248   0.00000  Uiso   1.00
H852   H     0.40113   0.48420   0.61519   0.00000  Uiso   1.00
O853   O     0.55824   0.11792   0.68808   0.00000  Uiso   1.00
C854   C     0.54522   0.10778   0.63808   0.00000  Uiso   1.00
H855   H     0.54755   0.13870   0.61769   0.00000  Uiso   1.00
H856   H     0.50571   0.09343   0.62784   0.00000  Uiso   1.00
H857   H     0.57363   0.08491   0.62623   0.00000  Uiso   1.00
O858   O     0.51663   0.38958   0.83806   0.00000  Uiso   1.00
C859   C     0.47004   0.39010   0.85766   0.00000  Uiso   1.00
H860   H     0.45902   0.42436   0.86592   0.00000  Uiso   1.00
H861   H     0.47536   0.37225   0.89206   0.00000  Uiso   1.00
H862   H     0.43835   0.37280   0.83327   0.00000  Uiso   1.00
O863   O     0.55520   0.02441   0.68550   0.00000  Uiso   1.00
C864   C     0.60585   0.01975   0.70867   0.00000  Uiso   1.00
H865   H     0.60710   0.49498   0.73764   0.00000  Uiso   1.00
H866   H     0.62360   0.05177   0.72340   0.00000  Uiso   1.00
H867   H     0.62943   0.00721   0.68160   0.00000  Uiso   1.00
O868   O     0.52685   0.47940   0.83403   0.00000  Uiso   1.00
C869   C     0.58023   0.48797   0.83983   0.00000  Uiso   1.00
H870   H     0.58952   0.01445   0.81526   0.00000  Uiso   1.00
H871   H     0.60238   0.45779   0.83425   0.00000  Uiso   1.00
H872   H     0.59276   0.00017   0.87748   0.00000  Uiso   1.00
O873   O     0.59196   0.26277   0.54373   0.00000  Uiso   1.00
C874   C     0.61394   0.22056   0.54376   0.00000  Uiso   1.00
H875   H     0.59881   0.19631   0.56827   0.00000  Uiso   1.00
H876   H     0.65555   0.22424   0.55657   0.00000  Uiso   1.00
H877   H     0.60865   0.20662   0.50623   0.00000  Uiso   1.00
O878   O     0.45757   0.17673   0.96146   0.00000  Uiso   1.00
C879   C     0.49633   0.14520   0.96894   0.00000  Uiso   1.00
H880   H     0.52878   0.15731   0.99626   0.00000  Uiso   1.00
H881   H     0.51037   0.13573   0.93441   0.00000  Uiso   1.00
H882   H     0.47998   0.11500   0.98337   0.00000  Uiso   1.00
O883   O     0.58384   0.28337   0.63938   0.00000  Uiso   1.00
C884   C     0.58546   0.32928   0.63205   0.00000  Uiso   1.00
H885   H     0.54825   0.34479   0.63607   0.00000  Uiso   1.00
H886   H     0.59654   0.33677   0.59598   0.00000  Uiso   1.00
H887   H     0.61514   0.34458   0.65997   0.00000  Uiso   1.00
O888   O     0.44540   0.18614   0.86070   0.00000  Uiso   1.00
C889   C     0.39264   0.18909   0.86468   0.00000  Uiso   1.00
H890   H     0.37018   0.17551   0.83075   0.00000  Uiso   1.00
H891   H     0.38028   0.22367   0.86939   0.00000  Uiso   1.00
H892   H     0.38276   0.16870   0.89486   0.00000  Uiso   1.00
O893   O     0.41598   0.21658   0.61650   0.00000  Uiso   1.00
C894   C     0.41520   0.17031   0.60952   0.00000  Uiso   1.00
H895   H     0.40791   0.16067   0.57045   0.00000  Uiso   1.00
H896   H     0.38349   0.15580   0.62678   0.00000  Uiso   1.00
H897   H     0.45137   0.15575   0.62692   0.00000  Uiso   1.00
O898   O     0.55463   0.31380   0.87994   0.00000  Uiso   1.00
C899   C     0.60731   0.31017   0.89762   0.00000  Uiso   1.00
H900   H     0.62877   0.33552   0.87996   0.00000  Uiso   1.00
H901   H     0.62154   0.27700   0.88910   0.00000  Uiso   1.00
H902   H     0.61627   0.31729   0.93708   0.00000  Uiso   1.00
O903   O     0.40903   0.22945   0.51803   0.00000  Uiso   1.00
C904   C     0.38663   0.26981   0.50341   0.00000  Uiso   1.00
H905   H     0.40908   0.28735   0.97856   0.00000  Uiso   1.00
H906   H     0.38167   0.29141   0.53510   0.00000  Uiso   1.00
H907   H     0.34806   0.26269   0.98279   0.00000  Uiso   1.00
O908   O     0.54222   0.32143   0.97732   0.00000  Uiso   1.00
C909   C     0.50220   0.34673   0.99166   0.00000  Uiso   1.00
H910   H     0.51514   0.38187   0.99473   0.00000  Uiso   1.00
H911   H     0.46611   0.34483   0.96548   0.00000  Uiso   1.00
H912   H     0.49404   0.33685   0.52796   0.00000  Uiso   1.00
C913   C     0.83394   0.16512   0.74956   0.00000  Uiso   1.00
C914   C     0.83275   0.33515   0.75029   0.00000  Uiso   1.00
C915   C     0.87817   0.25879   0.55974   0.00000  Uiso   1.00
C916   C     0.81086   0.21379   0.94199   0.00000  Uiso   1.00
C917   C     0.87540   0.26499   0.60980   0.00000  Uiso   1.00
C918   C     0.80666   0.21745   0.89078   0.00000  Uiso   1.00
C919   C     0.79116   0.23424   0.59828   0.00000  Uiso   1.00
C920   C     0.86016   0.28180   0.90025   0.00000  Uiso   1.00
C921   C     0.78856   0.23826   0.54732   0.00000  Uiso   1.00
C922   C     0.85559   0.28445   0.95049   0.00000  Uiso   1.00
C923   C     0.83353   0.24804   0.52707   0.00000  Uiso   1.00
C924   C     0.83356   0.24859   0.97266   0.00000  Uiso   1.00
C925   C     0.73473   0.24906   0.73775   0.00000  Uiso   1.00
C926   C     0.93199   0.25087   0.76212   0.00000  Uiso   1.00
C927   C     0.68004   0.24191   0.73253   0.00000  Uiso   1.00
C928   C     0.98667   0.25825   0.76672   0.00000  Uiso   1.00
C929   C     0.80164   0.04820   0.77611   0.00000  Uiso   1.00
C930   C     0.81539   0.45101   0.70468   0.00000  Uiso   1.00
C931   C     0.80479   0.09409   0.77807   0.00000  Uiso   1.00
C932   C     0.81820   0.40502   0.70616   0.00000  Uiso   1.00
C933   C     0.83381   0.11701   0.74801   0.00000  Uiso   1.00
C934   C     0.83117   0.38371   0.75032   0.00000  Uiso   1.00
C935   C     0.86080   0.09412   0.71550   0.00000  Uiso   1.00
C936   C     0.84184   0.40922   0.79352   0.00000  Uiso   1.00
C937   C     0.86099   0.04757   0.71604   0.00000  Uiso   1.00
C938   C     0.84598   0.45522   0.79146   0.00000  Uiso   1.00
C939   C     0.83085   0.02475   0.74600   0.00000  Uiso   1.00
C940   C     0.83118   0.47627   0.74721   0.00000  Uiso   1.00
Cu941  Cu    0.83333   0.24999   0.79822   0.00000  Uiso   1.00
Cu942  Cu    0.83333   0.25000   0.70179   0.00000  Uiso   1.00
H943   H     0.78354   0.11184   0.80253   0.00000  Uiso   1.00
H944   H     0.80903   0.38599   0.67267   0.00000  Uiso   1.00
N945   N     0.83333   0.25001   0.62935   0.00000  Uiso   1.00
N946   N     0.83333   0.24999   0.87066   0.00000  Uiso   1.00
O947   O     0.83334   0.18572   0.79072   0.00000  Uiso   1.00
O948   O     0.83333   0.31427   0.70929   0.00000  Uiso   1.00
O949   O     0.83334   0.18573   0.70928   0.00000  Uiso   1.00
O950   O     0.83333   0.31427   0.79072   0.00000  Uiso   1.00
O951   O     0.75828   0.24999   0.78132   0.00000  Uiso   1.00
O952   O     0.90839   0.25000   0.71868   0.00000  Uiso   1.00
O953   O     0.75828   0.25000   0.69989   0.00000  Uiso   1.00
O954   O     0.90839   0.25000   0.80012   0.00000  Uiso   1.00
Cl955  Cl    0.98731   0.20331   0.68656   0.00000  Uiso   1.00
Cl956  Cl    0.67957   0.29891   0.81014   0.00000  Uiso   1.00
O957   O     0.77278   0.02608   0.80627   0.00000  Uiso   1.00
C958   C     0.72068   0.02696   0.78600   0.00000  Uiso   1.00
H959   H     0.71448   0.01198   0.74884   0.00000  Uiso   1.00
H960   H     0.70606   0.06116   0.78564   0.00000  Uiso   1.00
H961   H     0.69793   0.00702   0.80871   0.00000  Uiso   1.00
O962   O     0.80031   0.47175   0.66128   0.00000  Uiso   1.00
C963   C     0.74771   0.46251   0.64586   0.00000  Uiso   1.00
H964   H     0.72394   0.46958   0.67502   0.00000  Uiso   1.00
H965   H     0.74123   0.42778   0.63248   0.00000  Uiso   1.00
H966   H     0.73446   0.48420   0.61519   0.00000  Uiso   1.00
O967   O     0.89157   0.11792   0.68808   0.00000  Uiso   1.00
C968   C     0.87855   0.10778   0.63808   0.00000  Uiso   1.00
H969   H     0.88089   0.13870   0.61769   0.00000  Uiso   1.00
H970   H     0.83904   0.09343   0.62784   0.00000  Uiso   1.00
H971   H     0.90697   0.08491   0.62623   0.00000  Uiso   1.00
O972   O     0.84996   0.38958   0.83806   0.00000  Uiso   1.00
C973   C     0.80337   0.39010   0.85766   0.00000  Uiso   1.00
H974   H     0.79235   0.42436   0.86592   0.00000  Uiso   1.00
H975   H     0.80870   0.37225   0.89206   0.00000  Uiso   1.00
H976   H     0.77168   0.37280   0.83327   0.00000  Uiso   1.00
O977   O     0.88853   0.02441   0.68550   0.00000  Uiso   1.00
C978   C     0.93918   0.01975   0.70867   0.00000  Uiso   1.00
H979   H     0.94043   0.49498   0.73764   0.00000  Uiso   1.00
H980   H     0.95693   0.05177   0.72340   0.00000  Uiso   1.00
H981   H     0.96276   0.00721   0.68160   0.00000  Uiso   1.00
O982   O     0.86018   0.47940   0.83403   0.00000  Uiso   1.00
C983   C     0.91356   0.48797   0.83983   0.00000  Uiso   1.00
H984   H     0.92285   0.01445   0.81526   0.00000  Uiso   1.00
H985   H     0.93572   0.45779   0.83425   0.00000  Uiso   1.00
H986   H     0.92609   0.00017   0.87748   0.00000  Uiso   1.00
O987   O     0.92529   0.26277   0.54373   0.00000  Uiso   1.00
C988   C     0.94727   0.22056   0.54376   0.00000  Uiso   1.00
H989   H     0.93214   0.19631   0.56827   0.00000  Uiso   1.00
H990   H     0.98889   0.22424   0.55657   0.00000  Uiso   1.00
H991   H     0.94199   0.20662   0.50623   0.00000  Uiso   1.00
O992   O     0.79090   0.17673   0.96146   0.00000  Uiso   1.00
C993   C     0.82966   0.14520   0.96894   0.00000  Uiso   1.00
H994   H     0.86211   0.15731   0.99626   0.00000  Uiso   1.00
H995   H     0.84370   0.13573   0.93441   0.00000  Uiso   1.00
H996   H     0.81331   0.11500   0.98337   0.00000  Uiso   1.00
O997   O     0.91717   0.28337   0.63938   0.00000  Uiso   1.00
C998   C     0.91879   0.32928   0.63205   0.00000  Uiso   1.00
H999   H     0.88158   0.34479   0.63607   0.00000  Uiso   1.00
H1000  H     0.92987   0.33677   0.59598   0.00000  Uiso   1.00
H1001  H     0.94847   0.34458   0.65997   0.00000  Uiso   1.00
O1002  O     0.77873   0.18614   0.86070   0.00000  Uiso   1.00
C1003  C     0.72597   0.18909   0.86468   0.00000  Uiso   1.00
H1004  H     0.70351   0.17551   0.83075   0.00000  Uiso   1.00
H1005  H     0.71361   0.22367   0.86939   0.00000  Uiso   1.00
H1006  H     0.71609   0.16870   0.89486   0.00000  Uiso   1.00
O1007  O     0.74931   0.21658   0.61650   0.00000  Uiso   1.00
C1008  C     0.74853   0.17031   0.60952   0.00000  Uiso   1.00
H1009  H     0.74125   0.16067   0.57045   0.00000  Uiso   1.00
H1010  H     0.71682   0.15580   0.62678   0.00000  Uiso   1.00
H1011  H     0.78470   0.15575   0.62692   0.00000  Uiso   1.00
O1012  O     0.88796   0.31380   0.87994   0.00000  Uiso   1.00
C1013  C     0.94064   0.31017   0.89762   0.00000  Uiso   1.00
H1014  H     0.96210   0.33552   0.87996   0.00000  Uiso   1.00
H1015  H     0.95487   0.27700   0.88910   0.00000  Uiso   1.00
H1016  H     0.94961   0.31729   0.93708   0.00000  Uiso   1.00
O1017  O     0.74236   0.22945   0.51803   0.00000  Uiso   1.00
C1018  C     0.71997   0.26981   0.50341   0.00000  Uiso   1.00
H1019  H     0.74241   0.28735   0.97856   0.00000  Uiso   1.00
H1020  H     0.71500   0.29141   0.53510   0.00000  Uiso   1.00
H1021  H     0.68139   0.26269   0.98279   0.00000  Uiso   1.00
O1022  O     0.87555   0.32143   0.97732   0.00000  Uiso   1.00
C1023  C     0.83553   0.34673   0.99166   0.00000  Uiso   1.00
H1024  H     0.84848   0.38187   0.99473   0.00000  Uiso   1.00
H1025  H     0.79945   0.34483   0.96548   0.00000  Uiso   1.00
H1026  H     0.82737   0.33685   0.52796   0.00000  Uiso   1.00
C1027  C     0.16727   0.66512   0.74956   0.00000  Uiso   1.00
C1028  C     0.16608   0.83515   0.75029   0.00000  Uiso   1.00
C1029  C     0.21151   0.75879   0.55974   0.00000  Uiso   1.00
C1030  C     0.14420   0.71379   0.94199   0.00000  Uiso   1.00
C1031  C     0.20873   0.76499   0.60980   0.00000  Uiso   1.00
C1032  C     0.14000   0.71745   0.89078   0.00000  Uiso   1.00
C1033  C     0.12449   0.73424   0.59828   0.00000  Uiso   1.00
C1034  C     0.19349   0.78180   0.90025   0.00000  Uiso   1.00
C1035  C     0.12189   0.73826   0.54732   0.00000  Uiso   1.00
C1036  C     0.18892   0.78445   0.95049   0.00000  Uiso   1.00
C1037  C     0.16686   0.74804   0.52707   0.00000  Uiso   1.00
C1038  C     0.16689   0.74859   0.97266   0.00000  Uiso   1.00
C1039  C     0.06806   0.74906   0.73775   0.00000  Uiso   1.00
C1040  C     0.26532   0.75087   0.76212   0.00000  Uiso   1.00
C1041  C     0.01338   0.74191   0.73253   0.00000  Uiso   1.00
C1042  C     0.32000   0.75825   0.76672   0.00000  Uiso   1.00
C1043  C     0.13498   0.54820   0.77611   0.00000  Uiso   1.00
C1044  C     0.14873   0.95101   0.70468   0.00000  Uiso   1.00
C1045  C     0.13813   0.59409   0.77807   0.00000  Uiso   1.00
C1046  C     0.15154   0.90502   0.70616   0.00000  Uiso   1.00
C1047  C     0.16714   0.61701   0.74801   0.00000  Uiso   1.00
C1048  C     0.16451   0.88371   0.75032   0.00000  Uiso   1.00
C1049  C     0.19413   0.59412   0.71550   0.00000  Uiso   1.00
C1050  C     0.17517   0.90922   0.79352   0.00000  Uiso   1.00
C1051  C     0.19433   0.54757   0.71604   0.00000  Uiso   1.00
C1052  C     0.17932   0.95522   0.79146   0.00000  Uiso   1.00
C1053  C     0.16418   0.52475   0.74600   0.00000  Uiso   1.00
C1054  C     0.16452   0.97627   0.74721   0.00000  Uiso   1.00
Cu1055 Cu    0.16667   0.74999   0.79822   0.00000  Uiso   1.00
Cu1056 Cu    0.16667   0.75000   0.70179   0.00000  Uiso   1.00
H1057  H     0.11687   0.61184   0.80253   0.00000  Uiso   1.00
H1058  H     0.14236   0.88599   0.67267   0.00000  Uiso   1.00
N1059  N     0.16667   0.75001   0.62935   0.00000  Uiso   1.00
N1060  N     0.16667   0.74999   0.87066   0.00000  Uiso   1.00
O1061  O     0.16667   0.68572   0.79072   0.00000  Uiso   1.00
O1062  O     0.16666   0.81427   0.70929   0.00000  Uiso   1.00
O1063  O     0.16667   0.68573   0.70928   0.00000  Uiso   1.00
O1064  O     0.16666   0.81427   0.79072   0.00000  Uiso   1.00
O1065  O     0.09161   0.74999   0.78132   0.00000  Uiso   1.00
O1066  O     0.24172   0.75000   0.71868   0.00000  Uiso   1.00
O1067  O     0.09161   0.75000   0.69989   0.00000  Uiso   1.00
O1068  O     0.24172   0.75000   0.80012   0.00000  Uiso   1.00
Cl1069 Cl    0.32064   0.70331   0.68656   0.00000  Uiso   1.00
Cl1070 Cl    0.01291   0.79891   0.81014   0.00000  Uiso   1.00
O1071  O     0.10611   0.52608   0.80627   0.00000  Uiso   1.00
C1072  C     0.05402   0.52696   0.78600   0.00000  Uiso   1.00
H1073  H     0.04781   0.51198   0.74884   0.00000  Uiso   1.00
H1074  H     0.03939   0.56116   0.78564   0.00000  Uiso   1.00
H1075  H     0.03127   0.50702   0.80871   0.00000  Uiso   1.00
O1076  O     0.13364   0.97175   0.66128   0.00000  Uiso   1.00
C1077  C     0.08104   0.96251   0.64586   0.00000  Uiso   1.00
H1078  H     0.05727   0.96958   0.67502   0.00000  Uiso   1.00
H1079  H     0.07456   0.92778   0.63248   0.00000  Uiso   1.00
H1080  H     0.06779   0.98420   0.61519   0.00000  Uiso   1.00
O1081  O     0.22490   0.61792   0.68808   0.00000  Uiso   1.00
C1082  C     0.21188   0.60778   0.63808   0.00000  Uiso   1.00
H1083  H     0.21422   0.63870   0.61769   0.00000  Uiso   1.00
H1084  H     0.17237   0.59343   0.62784   0.00000  Uiso   1.00
H1085  H     0.24030   0.58491   0.62623   0.00000  Uiso   1.00
O1086  O     0.18329   0.88958   0.83806   0.00000  Uiso   1.00
C1087  C     0.13670   0.89010   0.85766   0.00000  Uiso   1.00
H1088  H     0.12568   0.92436   0.86592   0.00000  Uiso   1.00
H1089  H     0.14203   0.87225   0.89206   0.00000  Uiso   1.00
H1090  H     0.10501   0.87280   0.83327   0.00000  Uiso   1.00
O1091  O     0.22186   0.52441   0.68550   0.00000  Uiso   1.00
C1092  C     0.27252   0.51975   0.70867   0.00000  Uiso   1.00
H1093  H     0.27376   0.99498   0.73764   0.00000  Uiso   1.00
H1094  H     0.29027   0.55177   0.72340   0.00000  Uiso   1.00
H1095  H     0.29609   0.50721   0.68160   0.00000  Uiso   1.00
O1096  O     0.19352   0.97940   0.83403   0.00000  Uiso   1.00
C1097  C     0.24690   0.98797   0.83983   0.00000  Uiso   1.00
H1098  H     0.25618   0.51445   0.81526   0.00000  Uiso   1.00
H1099  H     0.26905   0.95779   0.83425   0.00000  Uiso   1.00
H1100  H     0.25943   0.50017   0.87748   0.00000  Uiso   1.00
O1101  O     0.25863   0.76277   0.54373   0.00000  Uiso   1.00
C1102  C     0.28061   0.72056   0.54376   0.00000  Uiso   1.00
H1103  H     0.26547   0.69631   0.56827   0.00000  Uiso   1.00
H1104  H     0.32222   0.72424   0.55657   0.00000  Uiso   1.00
H1105  H     0.27532   0.70662   0.50623   0.00000  Uiso   1.00
O1106  O     0.12424   0.67673   0.96146   0.00000  Uiso   1.00
C1107  C     0.16299   0.64520   0.96894   0.00000  Uiso   1.00
H1108  H     0.19544   0.65731   0.99626   0.00000  Uiso   1.00
H1109  H     0.17703   0.63573   0.93441   0.00000  Uiso   1.00
H1110  H     0.14665   0.61500   0.98337   0.00000  Uiso   1.00
O1111  O     0.25050   0.78337   0.63938   0.00000  Uiso   1.00
C1112  C     0.25213   0.82928   0.63205   0.00000  Uiso   1.00
H1113  H     0.21492   0.84479   0.63607   0.00000  Uiso   1.00
H1114  H     0.26321   0.83677   0.59598   0.00000  Uiso   1.00
H1115  H     0.28180   0.84458   0.65997   0.00000  Uiso   1.00
O1116  O     0.11207   0.68614   0.86070   0.00000  Uiso   1.00
C1117  C     0.05931   0.68909   0.86468   0.00000  Uiso   1.00
H1118  H     0.03684   0.67551   0.83075   0.00000  Uiso   1.00
H1119  H     0.04694   0.72367   0.86939   0.00000  Uiso   1.00
H1120  H     0.04943   0.66870   0.89486   0.00000  Uiso   1.00
O1121  O     0.08265   0.71658   0.61650   0.00000  Uiso   1.00
C1122  C     0.08187   0.67031   0.60952   0.00000  Uiso   1.00
H1123  H     0.07458   0.66067   0.57045   0.00000  Uiso   1.00
H1124  H     0.05015   0.65580   0.62678   0.00000  Uiso   1.00
H1125  H     0.11803   0.65575   0.62692   0.00000  Uiso   1.00
O1126  O     0.22129   0.81380   0.87994   0.00000  Uiso   1.00
C1127  C     0.27397   0.81017   0.89762   0.00000  Uiso   1.00
H1128  H     0.29544   0.83552   0.87996   0.00000  Uiso   1.00
H1129  H     0.28821   0.77700   0.88910   0.00000  Uiso   1.00
H1130  H     0.28294   0.81729   0.93708   0.00000  Uiso   1.00
O1131  O     0.07570   0.72945   0.51803   0.00000  Uiso   1.00
C1132  C     0.05330   0.76981   0.50341   0.00000  Uiso   1.00
H1133  H     0.07575   0.78735   0.97856   0.00000  Uiso   1.00
H1134  H     0.04833   0.79141   0.53510   0.00000  Uiso   1.00
H1135  H     0.01473   0.76269   0.98279   0.00000  Uiso   1.00
O1136  O     0.20888   0.82143   0.97732   0.00000  Uiso   1.00
C1137  C     0.16886   0.84673   0.99166   0.00000  Uiso   1.00
H1138  H     0.18181   0.88187   0.99473   0.00000  Uiso   1.00
H1139  H     0.13278   0.84483   0.96548   0.00000  Uiso   1.00
H1140  H     0.16070   0.83685   0.52796   0.00000  Uiso   1.00
C1141  C     0.50060   0.66512   0.74956   0.00000  Uiso   1.00
C1142  C     0.49942   0.83515   0.75029   0.00000  Uiso   1.00
C1143  C     0.54484   0.75879   0.55974   0.00000  Uiso   1.00
C1144  C     0.47753   0.71379   0.94199   0.00000  Uiso   1.00
C1145  C     0.54206   0.76499   0.60980   0.00000  Uiso   1.00
C1146  C     0.47333   0.71745   0.89078   0.00000  Uiso   1.00
C1147  C     0.45783   0.73424   0.59828   0.00000  Uiso   1.00
C1148  C     0.52682   0.78180   0.90025   0.00000  Uiso   1.00
C1149  C     0.45523   0.73826   0.54732   0.00000  Uiso   1.00
C1150  C     0.52226   0.78445   0.95049   0.00000  Uiso   1.00
C1151  C     0.50020   0.74804   0.52707   0.00000  Uiso   1.00
C1152  C     0.50022   0.74859   0.97266   0.00000  Uiso   1.00
C1153  C     0.40139   0.74906   0.73775   0.00000  Uiso   1.00
C1154  C     0.59865   0.75087   0.76212   0.00000  Uiso   1.00
C1155  C     0.34671   0.74191   0.73253   0.00000  Uiso   1.00
C1156  C     0.65333   0.75825   0.76672   0.00000  Uiso   1.00
C1157  C     0.46831   0.54820   0.77611   0.00000  Uiso   1.00
C1158  C     0.48206   0.95101   0.70468   0.00000  Uiso   1.00
C1159  C     0.47146   0.59409   0.77807   0.00000  Uiso   1.00
C1160  C     0.48487   0.90502   0.70616   0.00000  Uiso   1.00
C1161  C     0.50048   0.61701   0.74801   0.00000  Uiso   1.00
C1162  C     0.49784   0.88371   0.75032   0.00000  Uiso   1.00
C1163  C     0.52746   0.59412   0.71550   0.00000  Uiso   1.00
C1164  C     0.50851   0.90922   0.79352   0.00000  Uiso   1.00
C1165  C     0.52766   0.54757   0.71604   0.00000  Uiso   1.00
C1166  C     0.51265   0.95522   0.79146   0.00000  Uiso   1.00
C1167  C     0.49751   0.52475   0.74600   0.00000  Uiso   1.00
C1168  C     0.49785   0.97627   0.74721   0.00000  Uiso   1.00
Cu1169 Cu    0.50000   0.74999   0.79822   0.00000  Uiso   1.00
Cu1170 Cu    0.50000   0.75000   0.70179   0.00000  Uiso   1.00
H1171  H     0.45020   0.61184   0.80253   0.00000  Uiso   1.00
H1172  H     0.47570   0.88599   0.67267   0.00000  Uiso   1.00
N1173  N     0.50000   0.75001   0.62935   0.00000  Uiso   1.00
N1174  N     0.50000   0.74999   0.87066   0.00000  Uiso   1.00
O1175  O     0.50000   0.68572   0.79072   0.00000  Uiso   1.00
O1176  O     0.50000   0.81427   0.70929   0.00000  Uiso   1.00
O1177  O     0.50000   0.68573   0.70928   0.00000  Uiso   1.00
O1178  O     0.50000   0.81427   0.79072   0.00000  Uiso   1.00
O1179  O     0.42495   0.74999   0.78132   0.00000  Uiso   1.00
O1180  O     0.57505   0.75000   0.71868   0.00000  Uiso   1.00
O1181  O     0.42495   0.75000   0.69989   0.00000  Uiso   1.00
O1182  O     0.57505   0.75000   0.80012   0.00000  Uiso   1.00
Cl1183 Cl    0.65397   0.70331   0.68656   0.00000  Uiso   1.00
Cl1184 Cl    0.34624   0.79891   0.81014   0.00000  Uiso   1.00
O1185  O     0.43944   0.52608   0.80627   0.00000  Uiso   1.00
C1186  C     0.38735   0.52696   0.78600   0.00000  Uiso   1.00
H1187  H     0.38114   0.51198   0.74884   0.00000  Uiso   1.00
H1188  H     0.37273   0.56116   0.78564   0.00000  Uiso   1.00
H1189  H     0.36460   0.50702   0.80871   0.00000  Uiso   1.00
O1190  O     0.46698   0.97175   0.66128   0.00000  Uiso   1.00
C1191  C     0.41437   0.96251   0.64586   0.00000  Uiso   1.00
H1192  H     0.39061   0.96958   0.67502   0.00000  Uiso   1.00
H1193  H     0.40789   0.92778   0.63248   0.00000  Uiso   1.00
H1194  H     0.40113   0.98420   0.61519   0.00000  Uiso   1.00
O1195  O     0.55824   0.61792   0.68808   0.00000  Uiso   1.00
C1196  C     0.54522   0.60778   0.63808   0.00000  Uiso   1.00
H1197  H     0.54755   0.63870   0.61769   0.00000  Uiso   1.00
H1198  H     0.50571   0.59343   0.62784   0.00000  Uiso   1.00
H1199  H     0.57363   0.58491   0.62623   0.00000  Uiso   1.00
O1200  O     0.51663   0.88958   0.83806   0.00000  Uiso   1.00
C1201  C     0.47004   0.89010   0.85766   0.00000  Uiso   1.00
H1202  H     0.45902   0.92436   0.86592   0.00000  Uiso   1.00
H1203  H     0.47536   0.87225   0.89206   0.00000  Uiso   1.00
H1204  H     0.43835   0.87280   0.83327   0.00000  Uiso   1.00
O1205  O     0.55520   0.52441   0.68550   0.00000  Uiso   1.00
C1206  C     0.60585   0.51975   0.70867   0.00000  Uiso   1.00
H1207  H     0.60710   0.99498   0.73764   0.00000  Uiso   1.00
H1208  H     0.62360   0.55177   0.72340   0.00000  Uiso   1.00
H1209  H     0.62943   0.50721   0.68160   0.00000  Uiso   1.00
O1210  O     0.52685   0.97940   0.83403   0.00000  Uiso   1.00
C1211  C     0.58023   0.98797   0.83983   0.00000  Uiso   1.00
H1212  H     0.58952   0.51445   0.81526   0.00000  Uiso   1.00
H1213  H     0.60238   0.95779   0.83425   0.00000  Uiso   1.00
H1214  H     0.59276   0.50017   0.87748   0.00000  Uiso   1.00
O1215  O     0.59196   0.76277   0.54373   0.00000  Uiso   1.00
C1216  C     0.61394   0.72056   0.54376   0.00000  Uiso   1.00
H1217  H     0.59881   0.69631   0.56827   0.00000  Uiso   1.00
H1218  H     0.65555   0.72424   0.55657   0.00000  Uiso   1.00
H1219  H     0.60865   0.70662   0.50623   0.00000  Uiso   1.00
O1220  O     0.45757   0.67673   0.96146   0.00000  Uiso   1.00
C1221  C     0.49633   0.64520   0.96894   0.00000  Uiso   1.00
H1222  H     0.52878   0.65731   0.99626   0.00000  Uiso   1.00
H1223  H     0.51037   0.63573   0.93441   0.00000  Uiso   1.00
H1224  H     0.47998   0.61500   0.98337   0.00000  Uiso   1.00
O1225  O     0.58384   0.78337   0.63938   0.00000  Uiso   1.00
C1226  C     0.58546   0.82928   0.63205   0.00000  Uiso   1.00
H1227  H     0.54825   0.84479   0.63607   0.00000  Uiso   1.00
H1228  H     0.59654   0.83677   0.59598   0.00000  Uiso   1.00
H1229  H     0.61514   0.84458   0.65997   0.00000  Uiso   1.00
O1230  O     0.44540   0.68614   0.86070   0.00000  Uiso   1.00
C1231  C     0.39264   0.68909   0.86468   0.00000  Uiso   1.00
H1232  H     0.37018   0.67551   0.83075   0.00000  Uiso   1.00
H1233  H     0.38028   0.72367   0.86939   0.00000  Uiso   1.00
H1234  H     0.38276   0.66870   0.89486   0.00000  Uiso   1.00
O1235  O     0.41598   0.71658   0.61650   0.00000  Uiso   1.00
C1236  C     0.41520   0.67031   0.60952   0.00000  Uiso   1.00
H1237  H     0.40791   0.66067   0.57045   0.00000  Uiso   1.00
H1238  H     0.38349   0.65580   0.62678   0.00000  Uiso   1.00
H1239  H     0.45137   0.65575   0.62692   0.00000  Uiso   1.00
O1240  O     0.55463   0.81380   0.87994   0.00000  Uiso   1.00
C1241  C     0.60731   0.81017   0.89762   0.00000  Uiso   1.00
H1242  H     0.62877   0.83552   0.87996   0.00000  Uiso   1.00
H1243  H     0.62154   0.77700   0.88910   0.00000  Uiso   1.00
H1244  H     0.61627   0.81729   0.93708   0.00000  Uiso   1.00
O1245  O     0.40903   0.72945   0.51803   0.00000  Uiso   1.00
C1246  C     0.38663   0.76981   0.50341   0.00000  Uiso   1.00
H1247  H     0.40908   0.78735   0.97856   0.00000  Uiso   1.00
H1248  H     0.38167   0.79141   0.53510   0.00000  Uiso   1.00
H1249  H     0.34806   0.76269   0.98279   0.00000  Uiso   1.00
O1250  O     0.54222   0.82143   0.97732   0.00000  Uiso   1.00
C1251  C     0.50220   0.84673   0.99166   0.00000  Uiso   1.00
H1252  H     0.51514   0.88187   0.99473   0.00000  Uiso   1.00
H1253  H     0.46611   0.84483   0.96548   0.00000  Uiso   1.00
H1254  H     0.49404   0.83685   0.52796   0.00000  Uiso   1.00
C1255  C     0.83394   0.66512   0.74956   0.00000  Uiso   1.00
C1256  C     0.83275   0.83515   0.75029   0.00000  Uiso   1.00
C1257  C     0.87817   0.75879   0.55974   0.00000  Uiso   1.00
C1258  C     0.81086   0.71379   0.94199   0.00000  Uiso   1.00
C1259  C     0.87540   0.76499   0.60980   0.00000  Uiso   1.00
C1260  C     0.80666   0.71745   0.89078   0.00000  Uiso   1.00
C1261  C     0.79116   0.73424   0.59828   0.00000  Uiso   1.00
C1262  C     0.86016   0.78180   0.90025   0.00000  Uiso   1.00
C1263  C     0.78856   0.73826   0.54732   0.00000  Uiso   1.00
C1264  C     0.85559   0.78445   0.95049   0.00000  Uiso   1.00
C1265  C     0.83353   0.74804   0.52707   0.00000  Uiso   1.00
C1266  C     0.83356   0.74859   0.97266   0.00000  Uiso   1.00
C1267  C     0.73473   0.74906   0.73775   0.00000  Uiso   1.00
C1268  C     0.93199   0.75087   0.76212   0.00000  Uiso   1.00
C1269  C     0.68004   0.74191   0.73253   0.00000  Uiso   1.00
C1270  C     0.98667   0.75825   0.76672   0.00000  Uiso   1.00
C1271  C     0.80164   0.54820   0.77611   0.00000  Uiso   1.00
C1272  C     0.81539   0.95101   0.70468   0.00000  Uiso   1.00
C1273  C     0.80479   0.59409   0.77807   0.00000  Uiso   1.00
C1274  C     0.81820   0.90502   0.70616   0.00000  Uiso   1.00
C1275  C     0.83381   0.61701   0.74801   0.00000  Uiso   1.00
C1276  C     0.83117   0.88371   0.75032   0.00000  Uiso   1.00
C1277  C     0.86080   0.59412   0.71550   0.00000  Uiso   1.00
C1278  C     0.84184   0.90922   0.79352   0.00000  Uiso   1.00
C1279  C     0.86099   0.54757   0.71604   0.00000  Uiso   1.00
C1280  C     0.84598   0.95522   0.79146   0.00000  Uiso   1.00
C1281  C     0.83085   0.52475   0.74600   0.00000  Uiso   1.00
C1282  C     0.83118   0.97627   0.74721   0.00000  Uiso   1.00
Cu1283 Cu    0.83333   0.74999   0.79822   0.00000  Uiso   1.00
Cu1284 Cu    0.83333   0.75000   0.70179   0.00000  Uiso   1.00
H1285  H     0.78354   0.61184   0.80253   0.00000  Uiso   1.00
H1286  H     0.80903   0.88599   0.67267   0.00000  Uiso   1.00
N1287  N     0.83333   0.75001   0.62935   0.00000  Uiso   1.00
N1288  N     0.83333   0.74999   0.87066   0.00000  Uiso   1.00
O1289  O     0.83334   0.68572   0.79072   0.00000  Uiso   1.00
O1290  O     0.83333   0.81427   0.70929   0.00000  Uiso   1.00
O1291  O     0.83334   0.68573   0.70928   0.00000  Uiso   1.00
O1292  O     0.83333   0.81427   0.79072   0.00000  Uiso   1.00
O1293  O     0.75828   0.74999   0.78132   0.00000  Uiso   1.00
O1294  O     0.90839   0.75000   0.71868   0.00000  Uiso   1.00
O1295  O     0.75828   0.75000   0.69989   0.00000  Uiso   1.00
O1296  O     0.90839   0.75000   0.80012   0.00000  Uiso   1.00
Cl1297 Cl    0.98731   0.70331   0.68656   0.00000  Uiso   1.00
Cl1298 Cl    0.67957   0.79891   0.81014   0.00000  Uiso   1.00
O1299  O     0.77278   0.52608   0.80627   0.00000  Uiso   1.00
C1300  C     0.72068   0.52696   0.78600   0.00000  Uiso   1.00
H1301  H     0.71448   0.51198   0.74884   0.00000  Uiso   1.00
H1302  H     0.70606   0.56116   0.78564   0.00000  Uiso   1.00
H1303  H     0.69793   0.50702   0.80871   0.00000  Uiso   1.00
O1304  O     0.80031   0.97175   0.66128   0.00000  Uiso   1.00
C1305  C     0.74771   0.96251   0.64586   0.00000  Uiso   1.00
H1306  H     0.72394   0.96958   0.67502   0.00000  Uiso   1.00
H1307  H     0.74123   0.92778   0.63248   0.00000  Uiso   1.00
H1308  H     0.73446   0.98420   0.61519   0.00000  Uiso   1.00
O1309  O     0.89157   0.61792   0.68808   0.00000  Uiso   1.00
C1310  C     0.87855   0.60778   0.63808   0.00000  Uiso   1.00
H1311  H     0.88089   0.63870   0.61769   0.00000  Uiso   1.00
H1312  H     0.83904   0.59343   0.62784   0.00000  Uiso   1.00
H1313  H     0.90697   0.58491   0.62623   0.00000  Uiso   1.00
O1314  O     0.84996   0.88958   0.83806   0.00000  Uiso   1.00
C1315  C     0.80337   0.89010   0.85766   0.00000  Uiso   1.00
H1316  H     0.79235   0.92436   0.86592   0.00000  Uiso   1.00
H1317  H     0.80870   0.87225   0.89206   0.00000  Uiso   1.00
H1318  H     0.77168   0.87280   0.83327   0.00000  Uiso   1.00
O1319  O     0.88853   0.52441   0.68550   0.00000  Uiso   1.00
C1320  C     0.93918   0.51975   0.70867   0.00000  Uiso   1.00
H1321  H     0.94043   0.99498   0.73764   0.00000  Uiso   1.00
H1322  H     0.95693   0.55177   0.72340   0.00000  Uiso   1.00
H1323  H     0.96276   0.50721   0.68160   0.00000  Uiso   1.00
O1324  O     0.86018   0.97940   0.83403   0.00000  Uiso   1.00
C1325  C     0.91356   0.98797   0.83983   0.00000  Uiso   1.00
H1326  H     0.92285   0.51445   0.81526   0.00000  Uiso   1.00
H1327  H     0.93572   0.95779   0.83425   0.00000  Uiso   1.00
H1328  H     0.92609   0.50017   0.87748   0.00000  Uiso   1.00
O1329  O     0.92529   0.76277   0.54373   0.00000  Uiso   1.00
C1330  C     0.94727   0.72056   0.54376   0.00000  Uiso   1.00
H1331  H     0.93214   0.69631   0.56827   0.00000  Uiso   1.00
H1332  H     0.98889   0.72424   0.55657   0.00000  Uiso   1.00
H1333  H     0.94199   0.70662   0.50623   0.00000  Uiso   1.00
O1334  O     0.79090   0.67673   0.96146   0.00000  Uiso   1.00
C1335  C     0.82966   0.64520   0.96894   0.00000  Uiso   1.00
H1336  H     0.86211   0.65731   0.99626   0.00000  Uiso   1.00
H1337  H     0.84370   0.63573   0.93441   0.00000  Uiso   1.00
H1338  H     0.81331   0.61500   0.98337   0.00000  Uiso   1.00
O1339  O     0.91717   0.78337   0.63938   0.00000  Uiso   1.00
C1340  C     0.91879   0.82928   0.63205   0.00000  Uiso   1.00
H1341  H     0.88158   0.84479   0.63607   0.00000  Uiso   1.00
H1342  H     0.92987   0.83677   0.59598   0.00000  Uiso   1.00
H1343  H     0.94847   0.84458   0.65997   0.00000  Uiso   1.00
O1344  O     0.77873   0.68614   0.86070   0.00000  Uiso   1.00
C1345  C     0.72597   0.68909   0.86468   0.00000  Uiso   1.00
H1346  H     0.70351   0.67551   0.83075   0.00000  Uiso   1.00
H1347  H     0.71361   0.72367   0.86939   0.00000  Uiso   1.00
H1348  H     0.71609   0.66870   0.89486   0.00000  Uiso   1.00
O1349  O     0.74931   0.71658   0.61650   0.00000  Uiso   1.00
C1350  C     0.74853   0.67031   0.60952   0.00000  Uiso   1.00
H1351  H     0.74125   0.66067   0.57045   0.00000  Uiso   1.00
H1352  H     0.71682   0.65580   0.62678   0.00000  Uiso   1.00
H1353  H     0.78470   0.65575   0.62692   0.00000  Uiso   1.00
O1354  O     0.88796   0.81380   0.87994   0.00000  Uiso   1.00
C1355  C     0.94064   0.81017   0.89762   0.00000  Uiso   1.00
H1356  H     0.96210   0.83552   0.87996   0.00000  Uiso   1.00
H1357  H     0.95487   0.77700   0.88910   0.00000  Uiso   1.00
H1358  H     0.94961   0.81729   0.93708   0.00000  Uiso   1.00
O1359  O     0.74236   0.72945   0.51803   0.00000  Uiso   1.00
C1360  C     0.71997   0.76981   0.50341   0.00000  Uiso   1.00
H1361  H     0.74241   0.78735   0.97856   0.00000  Uiso   1.00
H1362  H     0.71500   0.79141   0.53510   0.00000  Uiso   1.00
H1363  H     0.68139   0.76269   0.98279   0.00000  Uiso   1.00
O1364  O     0.87555   0.82143   0.97732   0.00000  Uiso   1.00
C1365  C     0.83553   0.84673   0.99166   0.00000  Uiso   1.00
H1366  H     0.84848   0.88187   0.99473   0.00000  Uiso   1.00
H1367  H     0.79945   0.84483   0.96548   0.00000  Uiso   1.00
H1368  H     0.82737   0.83685   0.52796   0.00000  Uiso   1.00
loop_
_geom_bond_atom_site_label_1
_geom_bond_atom_site_label_2
_geom_bond_distance
_geom_bond_site_symmetry_2
_ccdc_geom_bond_type
C1     C21     1.458   .     S
C1     O35     1.298   .     A
C1     O37     1.293   .     A
C2     C22     1.473   .     S
C2     O38     1.301   .     A
C2     O36     1.298   .     A
C3     O75     1.380   .     S
C3     C5      1.417   .     A
C3     C11     1.409   .     A
C4     O80     1.382   .     S
C4     C12     1.413   .     A
C4     C6      1.423   .     A
C5     N33     1.374   .     A
C5     O85     1.378   .     S
C6     N34     1.372   .     A
C6     O90     1.382   .     S
C7     N33     1.379   .     A
C7     C9      1.420   .     A
C7     O95     1.379   .     S
C8     N34     1.373   .     A
C8     O100    1.380   .     S
C8     C10     1.423   .     A
C9     O105    1.383   .     S
C9     C11     1.410   .     A
C10    C12     1.414   .     A
C10    O110    1.387   .     S
C11    C696    1.518   1_554 S
C12    C695    1.518   .     S
C13    O41     1.298   .     A
C13    C15     1.437   .     S
C13    O39     1.283   .     A
C14    O42     1.302   .     A
C14    C16     1.439   .     S
C14    O40     1.280   .     A
C15    C244    1.354   1_455 S
C15    Cl271   1.773   1_455 S
C16    C129    1.354   .     S
C16    Cl158   1.770   .     S
C17    O45     1.383   .     S
C17    C27     1.408   .     A
C17    C19     1.391   .     A
C18    C28     1.407   .     A
C18    O50     1.385   .     S
C18    C20     1.398   .     A
C19    H31     1.083   .     S
C19    C21     1.396   .     A
C20    C22     1.403   .     A
C20    H32     1.083   .     S
C21    C23     1.409   .     A
C22    C24     1.410   .     A
C23    O55     1.390   .     S
C23    C25     1.411   .     A
C24    C26     1.399   .     A
C24    O60     1.378   .     S
C25    C27     1.411   .     A
C25    O65     1.384   .     S
C26    O70     1.384   .     S
C26    C28     1.408   .     A
C27    C370    1.470   1_545 S
C28    C369    1.470   .     S
Cu29   O42     1.968   .     S
Cu29   O38     1.963   .     S
Cu29   N34     2.019   .     S
Cu29   Cu30    2.688   .     S
Cu29   O39     1.965   .     S
Cu29   O35     1.955   .     S
Cu30   O41     1.968   .     S
Cu30   O37     1.963   .     S
Cu30   O40     1.965   .     S
Cu30   N33     2.019   .     S
Cu30   O36     1.955   .     S
Cl43   C129    1.773   .     S
Cl44   C244    1.770   1_455 S
O45    C46     1.408   .     S
C46    H49     1.109   .     S
C46    H48     1.113   .     S
C46    H47     1.112   .     S
O50    C51     1.411   .     S
C51    H52     1.114   .     S
C51    H53     1.112   .     S
C51    H54     1.109   .     S
O55    C56     1.414   .     S
C56    H57     1.110   .     S
C56    H59     1.110   .     S
C56    H58     1.115   .     S
O60    C61     1.411   .     S
C61    H63     1.103   .     S
C61    H64     1.114   .     S
C61    H62     1.112   .     S
O65    C66     1.408   .     S
C66    H68     1.114   .     S
C66    H69     1.109   .     S
C66    H409    1.110   1_545 S
H67    C408    1.110   .     S
O70    C71     1.409   .     S
C71    H73     1.115   .     S
C71    H414    1.110   .     S
C71    H416    1.109   .     S
H72    C413    1.110   1_545 S
H74    C413    1.109   1_545 S
O75    C76     1.414   .     S
C76    H79     1.110   .     S
C76    H77     1.118   .     S
C76    H78     1.106   .     S
O80    C81     1.409   .     S
C81    H82     1.112   .     S
C81    H83     1.114   .     S
C81    H84     1.109   .     S
O85    C86     1.410   .     S
C86    H88     1.112   .     S
C86    H87     1.114   .     S
C86    H89     1.109   .     S
O90    C91     1.413   .     S
C91    H92     1.110   .     S
C91    H93     1.114   .     S
C91    H94     1.110   .     S
O95    C96     1.411   .     S
C96    H99     1.109   .     S
C96    H98     1.108   .     S
C96    H97     1.112   .     S
O100   C101    1.411   .     S
C101   H102    1.107   .     S
C101   H103    1.113   .     S
C101   H104    1.108   .     S
O105   C106    1.410   .     S
C106   H108    1.114   .     S
C106   H791    1.108   1_554 S
C106   H793    1.108   1_554 S
H107   C790    1.108   .     S
H109   C790    1.108   .     S
O110   C111    1.413   .     S
C111   H112    1.109   .     S
C111   H113    1.113   .     S
C111   H798    1.109   .     S
H114   C795    1.109   1_554 S
C115   C135    1.458   .     S
C115   O149    1.298   .     A
C115   O151    1.293   .     A
C116   C136    1.473   .     S
C116   O152    1.301   .     A
C116   O150    1.298   .     A
C117   O189    1.380   .     S
C117   C119    1.417   .     A
C117   C125    1.409   .     A
C118   O194    1.382   .     S
C118   C126    1.413   .     A
C118   C120    1.423   .     A
C119   N147    1.374   .     A
C119   O199    1.378   .     S
C120   N148    1.372   .     A
C120   O204    1.382   .     S
C121   N147    1.379   .     A
C121   C123    1.420   .     A
C121   O209    1.379   .     S
C122   N148    1.373   .     A
C122   O214    1.380   .     S
C122   C124    1.423   .     A
C123   O219    1.383   .     S
C123   C125    1.410   .     A
C124   C126    1.414   .     A
C124   O224    1.387   .     S
C125   C810    1.518   1_554 S
C126   C809    1.518   .     S
C127   O155    1.298   .     A
C127   C129    1.437   .     S
C127   O153    1.283   .     A
C128   O156    1.302   .     A
C128   C130    1.439   .     S
C128   O154    1.280   .     A
C130   C243    1.354   .     S
C130   Cl272   1.770   .     S
C131   O159    1.383   .     S
C131   C141    1.408   .     A
C131   C133    1.391   .     A
C132   C142    1.407   .     A
C132   O164    1.385   .     S
C132   C134    1.398   .     A
C133   H145    1.083   .     S
C133   C135    1.396   .     A
C134   C136    1.403   .     A
C134   H146    1.083   .     S
C135   C137    1.409   .     A
C136   C138    1.410   .     A
C137   O169    1.390   .     S
C137   C139    1.411   .     A
C138   C140    1.399   .     A
C138   O174    1.378   .     S
C139   C141    1.411   .     A
C139   O179    1.384   .     S
C140   O184    1.384   .     S
C140   C142    1.408   .     A
C141   C484    1.470   1_545 S
C142   C483    1.470   .     S
Cu143  O156    1.968   .     S
Cu143  O152    1.963   .     S
Cu143  N148    2.019   .     S
Cu143  Cu144   2.688   .     S
Cu143  O153    1.965   .     S
Cu143  O149    1.955   .     S
Cu144  O155    1.968   .     S
Cu144  O151    1.963   .     S
Cu144  O154    1.965   .     S
Cu144  N147    2.019   .     S
Cu144  O150    1.955   .     S
Cl157  C243    1.773   .     S
O159   C160    1.408   .     S
C160   H163    1.109   .     S
C160   H162    1.113   .     S
C160   H161    1.112   .     S
O164   C165    1.411   .     S
C165   H166    1.114   .     S
C165   H167    1.112   .     S
C165   H168    1.109   .     S
O169   C170    1.414   .     S
C170   H171    1.110   .     S
C170   H173    1.110   .     S
C170   H172    1.115   .     S
O174   C175    1.411   .     S
C175   H177    1.103   .     S
C175   H178    1.114   .     S
C175   H176    1.112   .     S
O179   C180    1.408   .     S
C180   H182    1.114   .     S
C180   H183    1.109   .     S
C180   H523    1.110   1_545 S
H181   C522    1.110   .     S
O184   C185    1.409   .     S
C185   H187    1.115   .     S
C185   H528    1.110   .     S
C185   H530    1.109   .     S
H186   C527    1.110   1_545 S
H188   C527    1.109   1_545 S
O189   C190    1.414   .     S
C190   H193    1.110   .     S
C190   H191    1.118   .     S
C190   H192    1.106   .     S
O194   C195    1.409   .     S
C195   H196    1.112   .     S
C195   H197    1.114   .     S
C195   H198    1.109   .     S
O199   C200    1.410   .     S
C200   H202    1.112   .     S
C200   H201    1.114   .     S
C200   H203    1.109   .     S
O204   C205    1.413   .     S
C205   H206    1.110   .     S
C205   H207    1.114   .     S
C205   H208    1.110   .     S
O209   C210    1.411   .     S
C210   H213    1.109   .     S
C210   H212    1.108   .     S
C210   H211    1.112   .     S
O214   C215    1.411   .     S
C215   H216    1.107   .     S
C215   H217    1.113   .     S
C215   H218    1.108   .     S
O219   C220    1.410   .     S
C220   H222    1.114   .     S
C220   H905    1.108   1_554 S
C220   H907    1.108   1_554 S
H221   C904    1.108   .     S
H223   C904    1.108   .     S
O224   C225    1.413   .     S
C225   H226    1.109   .     S
C225   H227    1.113   .     S
C225   H912    1.109   .     S
H228   C909    1.109   1_554 S
C229   C249    1.458   .     S
C229   O263    1.298   .     A
C229   O265    1.293   .     A
C230   C250    1.473   .     S
C230   O266    1.301   .     A
C230   O264    1.298   .     A
C231   O303    1.380   .     S
C231   C233    1.417   .     A
C231   C239    1.409   .     A
C232   O308    1.382   .     S
C232   C240    1.413   .     A
C232   C234    1.423   .     A
C233   N261    1.374   .     A
C233   O313    1.378   .     S
C234   N262    1.372   .     A
C234   O318    1.382   .     S
C235   N261    1.379   .     A
C235   C237    1.420   .     A
C235   O323    1.379   .     S
C236   N262    1.373   .     A
C236   O328    1.380   .     S
C236   C238    1.423   .     A
C237   O333    1.383   .     S
C237   C239    1.410   .     A
C238   C240    1.414   .     A
C238   O338    1.387   .     S
C239   C924    1.518   1_554 S
C240   C923    1.518   .     S
C241   O269    1.298   .     A
C241   C243    1.437   .     S
C241   O267    1.283   .     A
C242   O270    1.302   .     A
C242   C244    1.439   .     S
C242   O268    1.280   .     A
C244   C15     1.354   1_655 S
C244   Cl44    1.770   1_655 S
C245   O273    1.383   .     S
C245   C255    1.408   .     A
C245   C247    1.391   .     A
C246   C256    1.407   .     A
C246   O278    1.385   .     S
C246   C248    1.398   .     A
C247   H259    1.083   .     S
C247   C249    1.396   .     A
C248   C250    1.403   .     A
C248   H260    1.083   .     S
C249   C251    1.409   .     A
C250   C252    1.410   .     A
C251   O283    1.390   .     S
C251   C253    1.411   .     A
C252   C254    1.399   .     A
C252   O288    1.378   .     S
C253   C255    1.411   .     A
C253   O293    1.384   .     S
C254   O298    1.384   .     S
C254   C256    1.408   .     A
C255   C598    1.470   1_545 S
C256   C597    1.470   .     S
Cu257  O270    1.968   .     S
Cu257  O266    1.963   .     S
Cu257  N262    2.019   .     S
Cu257  Cu258   2.688   .     S
Cu257  O267    1.965   .     S
Cu257  O263    1.955   .     S
Cu258  O269    1.968   .     S
Cu258  O265    1.963   .     S
Cu258  O268    1.965   .     S
Cu258  N261    2.019   .     S
Cu258  O264    1.955   .     S
Cl271  C15     1.773   1_655 S
O273   C274    1.408   .     S
C274   H277    1.109   .     S
C274   H276    1.113   .     S
C274   H275    1.112   .     S
O278   C279    1.411   .     S
C279   H280    1.114   .     S
C279   H281    1.112   .     S
C279   H282    1.109   .     S
O283   C284    1.414   .     S
C284   H285    1.110   .     S
C284   H287    1.110   .     S
C284   H286    1.115   .     S
O288   C289    1.411   .     S
C289   H291    1.103   .     S
C289   H292    1.114   .     S
C289   H290    1.112   .     S
O293   C294    1.408   .     S
C294   H296    1.114   .     S
C294   H297    1.109   .     S
C294   H637    1.110   1_545 S
H295   C636    1.110   .     S
O298   C299    1.409   .     S
C299   H301    1.115   .     S
C299   H642    1.110   .     S
C299   H644    1.109   .     S
H300   C641    1.110   1_545 S
H302   C641    1.109   1_545 S
O303   C304    1.414   .     S
C304   H307    1.110   .     S
C304   H305    1.118   .     S
C304   H306    1.106   .     S
O308   C309    1.409   .     S
C309   H310    1.112   .     S
C309   H311    1.114   .     S
C309   H312    1.109   .     S
O313   C314    1.410   .     S
C314   H316    1.112   .     S
C314   H315    1.114   .     S
C314   H317    1.109   .     S
O318   C319    1.413   .     S
C319   H320    1.110   .     S
C319   H321    1.114   .     S
C319   H322    1.110   .     S
O323   C324    1.411   .     S
C324   H327    1.109   .     S
C324   H326    1.108   .     S
C324   H325    1.112   .     S
O328   C329    1.411   .     S
C329   H330    1.107   .     S
C329   H331    1.113   .     S
C329   H332    1.108   .     S
O333   C334    1.410   .     S
C334   H336    1.114   .     S
C334   H1019   1.108   1_554 S
C334   H1021   1.108   1_554 S
H335   C1018   1.108   .     S
H337   C1018   1.108   .     S
O338   C339    1.413   .     S
C339   H340    1.109   .     S
C339   H341    1.113   .     S
C339   H1026   1.109   .     S
H342   C1023   1.109   1_554 S
C343   C363    1.458   .     S
C343   O377    1.298   .     A
C343   O379    1.293   .     A
C344   C364    1.473   .     S
C344   O380    1.301   .     A
C344   O378    1.298   .     A
C345   O417    1.380   .     S
C345   C347    1.417   .     A
C345   C353    1.409   .     A
C346   O422    1.382   .     S
C346   C354    1.413   .     A
C346   C348    1.423   .     A
C347   N375    1.374   .     A
C347   O427    1.378   .     S
C348   N376    1.372   .     A
C348   O432    1.382   .     S
C349   N375    1.379   .     A
C349   C351    1.420   .     A
C349   O437    1.379   .     S
C350   N376    1.373   .     A
C350   O442    1.380   .     S
C350   C352    1.423   .     A
C351   O447    1.383   .     S
C351   C353    1.410   .     A
C352   C354    1.414   .     A
C352   O452    1.387   .     S
C353   C1038   1.518   1_554 S
C354   C1037   1.518   .     S
C355   O383    1.298   .     A
C355   C357    1.437   .     S
C355   O381    1.283   .     A
C356   O384    1.302   .     A
C356   C358    1.439   .     S
C356   O382    1.280   .     A
C357   C586    1.354   1_455 S
C357   Cl613   1.773   1_455 S
C358   C471    1.354   .     S
C358   Cl500   1.770   .     S
C359   O387    1.383   .     S
C359   C369    1.408   .     A
C359   C361    1.391   .     A
C360   C370    1.407   .     A
C360   O392    1.385   .     S
C360   C362    1.398   .     A
C361   H373    1.083   .     S
C361   C363    1.396   .     A
C362   C364    1.403   .     A
C362   H374    1.083   .     S
C363   C365    1.409   .     A
C364   C366    1.410   .     A
C365   O397    1.390   .     S
C365   C367    1.411   .     A
C366   C368    1.399   .     A
C366   O402    1.378   .     S
C367   C369    1.411   .     A
C367   O407    1.384   .     S
C368   O412    1.384   .     S
C368   C370    1.408   .     A
C370   C27     1.470   1_565 S
Cu371  O384    1.968   .     S
Cu371  O380    1.963   .     S
Cu371  N376    2.019   .     S
Cu371  Cu372   2.688   .     S
Cu371  O381    1.965   .     S
Cu371  O377    1.955   .     S
Cu372  O383    1.968   .     S
Cu372  O379    1.963   .     S
Cu372  O382    1.965   .     S
Cu372  N375    2.019   .     S
Cu372  O378    1.955   .     S
Cl385  C471    1.773   .     S
Cl386  C586    1.770   1_455 S
O387   C388    1.408   .     S
C388   H391    1.109   .     S
C388   H390    1.113   .     S
C388   H389    1.112   .     S
O392   C393    1.411   .     S
C393   H394    1.114   .     S
C393   H395    1.112   .     S
C393   H396    1.109   .     S
O397   C398    1.414   .     S
C398   H399    1.110   .     S
C398   H401    1.110   .     S
C398   H400    1.115   .     S
O402   C403    1.411   .     S
C403   H405    1.103   .     S
C403   H406    1.114   .     S
C403   H404    1.112   .     S
O407   C408    1.408   .     S
C408   H410    1.114   .     S
C408   H411    1.109   .     S
H409   C66     1.110   1_565 S
O412   C413    1.409   .     S
C413   H415    1.115   .     S
C413   H72     1.110   1_565 S
C413   H74     1.109   1_565 S
O417   C418    1.414   .     S
C418   H421    1.110   .     S
C418   H419    1.118   .     S
C418   H420    1.106   .     S
O422   C423    1.409   .     S
C423   H424    1.112   .     S
C423   H425    1.114   .     S
C423   H426    1.109   .     S
O427   C428    1.410   .     S
C428   H430    1.112   .     S
C428   H429    1.114   .     S
C428   H431    1.109   .     S
O432   C433    1.413   .     S
C433   H434    1.110   .     S
C433   H435    1.114   .     S
C433   H436    1.110   .     S
O437   C438    1.411   .     S
C438   H441    1.109   .     S
C438   H440    1.108   .     S
C438   H439    1.112   .     S
O442   C443    1.411   .     S
C443   H444    1.107   .     S
C443   H445    1.113   .     S
C443   H446    1.108   .     S
O447   C448    1.410   .     S
C448   H450    1.114   .     S
C448   H1133   1.108   1_554 S
C448   H1135   1.108   1_554 S
H449   C1132   1.108   .     S
H451   C1132   1.108   .     S
O452   C453    1.413   .     S
C453   H454    1.109   .     S
C453   H455    1.113   .     S
C453   H1140   1.109   .     S
H456   C1137   1.109   1_554 S
C457   C477    1.458   .     S
C457   O491    1.298   .     A
C457   O493    1.293   .     A
C458   C478    1.473   .     S
C458   O494    1.301   .     A
C458   O492    1.298   .     A
C459   O531    1.380   .     S
C459   C461    1.417   .     A
C459   C467    1.409   .     A
C460   O536    1.382   .     S
C460   C468    1.413   .     A
C460   C462    1.423   .     A
C461   N489    1.374   .     A
C461   O541    1.378   .     S
C462   N490    1.372   .     A
C462   O546    1.382   .     S
C463   N489    1.379   .     A
C463   C465    1.420   .     A
C463   O551    1.379   .     S
C464   N490    1.373   .     A
C464   O556    1.380   .     S
C464   C466    1.423   .     A
C465   O561    1.383   .     S
C465   C467    1.410   .     A
C466   C468    1.414   .     A
C466   O566    1.387   .     S
C467   C1152   1.518   1_554 S
C468   C1151   1.518   .     S
C469   O497    1.298   .     A
C469   C471    1.437   .     S
C469   O495    1.283   .     A
C470   O498    1.302   .     A
C470   C472    1.439   .     S
C470   O496    1.280   .     A
C472   C585    1.354   .     S
C472   Cl614   1.770   .     S
C473   O501    1.383   .     S
C473   C483    1.408   .     A
C473   C475    1.391   .     A
C474   C484    1.407   .     A
C474   O506    1.385   .     S
C474   C476    1.398   .     A
C475   H487    1.083   .     S
C475   C477    1.396   .     A
C476   C478    1.403   .     A
C476   H488    1.083   .     S
C477   C479    1.409   .     A
C478   C480    1.410   .     A
C479   O511    1.390   .     S
C479   C481    1.411   .     A
C480   C482    1.399   .     A
C480   O516    1.378   .     S
C481   C483    1.411   .     A
C481   O521    1.384   .     S
C482   O526    1.384   .     S
C482   C484    1.408   .     A
C484   C141    1.470   1_565 S
Cu485  O498    1.968   .     S
Cu485  O494    1.963   .     S
Cu485  N490    2.019   .     S
Cu485  Cu486   2.688   .     S
Cu485  O495    1.965   .     S
Cu485  O491    1.955   .     S
Cu486  O497    1.968   .     S
Cu486  O493    1.963   .     S
Cu486  O496    1.965   .     S
Cu486  N489    2.019   .     S
Cu486  O492    1.955   .     S
Cl499  C585    1.773   .     S
O501   C502    1.408   .     S
C502   H505    1.109   .     S
C502   H504    1.113   .     S
C502   H503    1.112   .     S
O506   C507    1.411   .     S
C507   H508    1.114   .     S
C507   H509    1.112   .     S
C507   H510    1.109   .     S
O511   C512    1.414   .     S
C512   H513    1.110   .     S
C512   H515    1.110   .     S
C512   H514    1.115   .     S
O516   C517    1.411   .     S
C517   H519    1.103   .     S
C517   H520    1.114   .     S
C517   H518    1.112   .     S
O521   C522    1.408   .     S
C522   H524    1.114   .     S
C522   H525    1.109   .     S
H523   C180    1.110   1_565 S
O526   C527    1.409   .     S
C527   H529    1.115   .     S
C527   H186    1.110   1_565 S
C527   H188    1.109   1_565 S
O531   C532    1.414   .     S
C532   H535    1.110   .     S
C532   H533    1.118   .     S
C532   H534    1.106   .     S
O536   C537    1.409   .     S
C537   H538    1.112   .     S
C537   H539    1.114   .     S
C537   H540    1.109   .     S
O541   C542    1.410   .     S
C542   H544    1.112   .     S
C542   H543    1.114   .     S
C542   H545    1.109   .     S
O546   C547    1.413   .     S
C547   H548    1.110   .     S
C547   H549    1.114   .     S
C547   H550    1.110   .     S
O551   C552    1.411   .     S
C552   H555    1.109   .     S
C552   H554    1.108   .     S
C552   H553    1.112   .     S
O556   C557    1.411   .     S
C557   H558    1.107   .     S
C557   H559    1.113   .     S
C557   H560    1.108   .     S
O561   C562    1.410   .     S
C562   H564    1.114   .     S
C562   H1247   1.108   1_554 S
C562   H1249   1.108   1_554 S
H563   C1246   1.108   .     S
H565   C1246   1.108   .     S
O566   C567    1.413   .     S
C567   H568    1.109   .     S
C567   H569    1.113   .     S
C567   H1254   1.109   .     S
H570   C1251   1.109   1_554 S
C571   C591    1.458   .     S
C571   O605    1.298   .     A
C571   O607    1.293   .     A
C572   C592    1.473   .     S
C572   O608    1.301   .     A
C572   O606    1.298   .     A
C573   O645    1.380   .     S
C573   C575    1.417   .     A
C573   C581    1.409   .     A
C574   O650    1.382   .     S
C574   C582    1.413   .     A
C574   C576    1.423   .     A
C575   N603    1.374   .     A
C575   O655    1.378   .     S
C576   N604    1.372   .     A
C576   O660    1.382   .     S
C577   N603    1.379   .     A
C577   C579    1.420   .     A
C577   O665    1.379   .     S
C578   N604    1.373   .     A
C578   O670    1.380   .     S
C578   C580    1.423   .     A
C579   O675    1.383   .     S
C579   C581    1.410   .     A
C580   C582    1.414   .     A
C580   O680    1.387   .     S
C581   C1266   1.518   1_554 S
C582   C1265   1.518   .     S
C583   O611    1.298   .     A
C583   C585    1.437   .     S
C583   O609    1.283   .     A
C584   O612    1.302   .     A
C584   C586    1.439   .     S
C584   O610    1.280   .     A
C586   C357    1.354   1_655 S
C586   Cl386   1.770   1_655 S
C587   O615    1.383   .     S
C587   C597    1.408   .     A
C587   C589    1.391   .     A
C588   C598    1.407   .     A
C588   O620    1.385   .     S
C588   C590    1.398   .     A
C589   H601    1.083   .     S
C589   C591    1.396   .     A
C590   C592    1.403   .     A
C590   H602    1.083   .     S
C591   C593    1.409   .     A
C592   C594    1.410   .     A
C593   O625    1.390   .     S
C593   C595    1.411   .     A
C594   C596    1.399   .     A
C594   O630    1.378   .     S
C595   C597    1.411   .     A
C595   O635    1.384   .     S
C596   O640    1.384   .     S
C596   C598    1.408   .     A
C598   C255    1.470   1_565 S
Cu599  O612    1.968   .     S
Cu599  O608    1.963   .     S
Cu599  N604    2.019   .     S
Cu599  Cu600   2.688   .     S
Cu599  O609    1.965   .     S
Cu599  O605    1.955   .     S
Cu600  O611    1.968   .     S
Cu600  O607    1.963   .     S
Cu600  O610    1.965   .     S
Cu600  N603    2.019   .     S
Cu600  O606    1.955   .     S
Cl613  C357    1.773   1_655 S
O615   C616    1.408   .     S
C616   H619    1.109   .     S
C616   H618    1.113   .     S
C616   H617    1.112   .     S
O620   C621    1.411   .     S
C621   H622    1.114   .     S
C621   H623    1.112   .     S
C621   H624    1.109   .     S
O625   C626    1.414   .     S
C626   H627    1.110   .     S
C626   H629    1.110   .     S
C626   H628    1.115   .     S
O630   C631    1.411   .     S
C631   H633    1.103   .     S
C631   H634    1.114   .     S
C631   H632    1.112   .     S
O635   C636    1.408   .     S
C636   H638    1.114   .     S
C636   H639    1.109   .     S
H637   C294    1.110   1_565 S
O640   C641    1.409   .     S
C641   H643    1.115   .     S
C641   H300    1.110   1_565 S
C641   H302    1.109   1_565 S
O645   C646    1.414   .     S
C646   H649    1.110   .     S
C646   H647    1.118   .     S
C646   H648    1.106   .     S
O650   C651    1.409   .     S
C651   H652    1.112   .     S
C651   H653    1.114   .     S
C651   H654    1.109   .     S
O655   C656    1.410   .     S
C656   H658    1.112   .     S
C656   H657    1.114   .     S
C656   H659    1.109   .     S
O660   C661    1.413   .     S
C661   H662    1.110   .     S
C661   H663    1.114   .     S
C661   H664    1.110   .     S
O665   C666    1.411   .     S
C666   H669    1.109   .     S
C666   H668    1.108   .     S
C666   H667    1.112   .     S
O670   C671    1.411   .     S
C671   H672    1.107   .     S
C671   H673    1.113   .     S
C671   H674    1.108   .     S
O675   C676    1.410   .     S
C676   H678    1.114   .     S
C676   H1361   1.108   1_554 S
C676   H1363   1.108   1_554 S
H677   C1360   1.108   .     S
H679   C1360   1.108   .     S
O680   C681    1.413   .     S
C681   H682    1.109   .     S
C681   H683    1.113   .     S
C681   H1368   1.109   .     S
H684   C1365   1.109   1_554 S
C685   C705    1.458   .     S
C685   O719    1.298   .     A
C685   O721    1.293   .     A
C686   C706    1.473   .     S
C686   O722    1.301   .     A
C686   O720    1.298   .     A
C687   O759    1.380   .     S
C687   C689    1.417   .     A
C687   C695    1.409   .     A
C688   O764    1.382   .     S
C688   C696    1.413   .     A
C688   C690    1.423   .     A
C689   N717    1.374   .     A
C689   O769    1.378   .     S
C690   N718    1.372   .     A
C690   O774    1.382   .     S
C691   N717    1.379   .     A
C691   C693    1.420   .     A
C691   O779    1.379   .     S
C692   N718    1.373   .     A
C692   O784    1.380   .     S
C692   C694    1.423   .     A
C693   O789    1.383   .     S
C693   C695    1.410   .     A
C694   C696    1.414   .     A
C694   O794    1.387   .     S
C696   C11     1.518   1_556 S
C697   O725    1.298   .     A
C697   C699    1.437   .     S
C697   O723    1.283   .     A
C698   O726    1.302   .     A
C698   C700    1.439   .     S
C698   O724    1.280   .     A
C699   C928    1.354   1_455 S
C699   Cl955   1.773   1_455 S
C700   C813    1.354   .     S
C700   Cl842   1.770   .     S
C701   O729    1.383   .     S
C701   C711    1.408   .     A
C701   C703    1.391   .     A
C702   C712    1.407   .     A
C702   O734    1.385   .     S
C702   C704    1.398   .     A
C703   H715    1.083   .     S
C703   C705    1.396   .     A
C704   C706    1.403   .     A
C704   H716    1.083   .     S
C705   C707    1.409   .     A
C706   C708    1.410   .     A
C707   O739    1.390   .     S
C707   C709    1.411   .     A
C708   C710    1.399   .     A
C708   O744    1.378   .     S
C709   C711    1.411   .     A
C709   O749    1.384   .     S
C710   O754    1.384   .     S
C710   C712    1.408   .     A
C711   C1054   1.470   1_545 S
C712   C1053   1.470   .     S
Cu713  O726    1.968   .     S
Cu713  O722    1.963   .     S
Cu713  N718    2.019   .     S
Cu713  Cu714   2.688   .     S
Cu713  O723    1.965   .     S
Cu713  O719    1.955   .     S
Cu714  O725    1.968   .     S
Cu714  O721    1.963   .     S
Cu714  O724    1.965   .     S
Cu714  N717    2.019   .     S
Cu714  O720    1.955   .     S
Cl727  C813    1.773   .     S
Cl728  C928    1.770   1_455 S
O729   C730    1.408   .     S
C730   H733    1.109   .     S
C730   H732    1.113   .     S
C730   H731    1.112   .     S
O734   C735    1.411   .     S
C735   H736    1.114   .     S
C735   H737    1.112   .     S
C735   H738    1.109   .     S
O739   C740    1.414   .     S
C740   H741    1.110   .     S
C740   H743    1.110   .     S
C740   H742    1.115   .     S
O744   C745    1.411   .     S
C745   H747    1.103   .     S
C745   H748    1.114   .     S
C745   H746    1.112   .     S
O749   C750    1.408   .     S
C750   H752    1.114   .     S
C750   H753    1.109   .     S
C750   H1093   1.110   1_545 S
H751   C1092   1.110   .     S
O754   C755    1.409   .     S
C755   H757    1.115   .     S
C755   H1098   1.110   .     S
C755   H1100   1.109   .     S
H756   C1097   1.110   1_545 S
H758   C1097   1.109   1_545 S
O759   C760    1.414   .     S
C760   H763    1.110   .     S
C760   H761    1.118   .     S
C760   H762    1.106   .     S
O764   C765    1.409   .     S
C765   H766    1.112   .     S
C765   H767    1.114   .     S
C765   H768    1.109   .     S
O769   C770    1.410   .     S
C770   H772    1.112   .     S
C770   H771    1.114   .     S
C770   H773    1.109   .     S
O774   C775    1.413   .     S
C775   H776    1.110   .     S
C775   H777    1.114   .     S
C775   H778    1.110   .     S
O779   C780    1.411   .     S
C780   H783    1.109   .     S
C780   H782    1.108   .     S
C780   H781    1.112   .     S
O784   C785    1.411   .     S
C785   H786    1.107   .     S
C785   H787    1.113   .     S
C785   H788    1.108   .     S
O789   C790    1.410   .     S
C790   H792    1.114   .     S
H791   C106    1.108   1_556 S
H793   C106    1.108   1_556 S
O794   C795    1.413   .     S
C795   H796    1.109   .     S
C795   H797    1.113   .     S
C795   H114    1.109   1_556 S
C799   C819    1.458   .     S
C799   O833    1.298   .     A
C799   O835    1.293   .     A
C800   C820    1.473   .     S
C800   O836    1.301   .     A
C800   O834    1.298   .     A
C801   O873    1.380   .     S
C801   C803    1.417   .     A
C801   C809    1.409   .     A
C802   O878    1.382   .     S
C802   C810    1.413   .     A
C802   C804    1.423   .     A
C803   N831    1.374   .     A
C803   O883    1.378   .     S
C804   N832    1.372   .     A
C804   O888    1.382   .     S
C805   N831    1.379   .     A
C805   C807    1.420   .     A
C805   O893    1.379   .     S
C806   N832    1.373   .     A
C806   O898    1.380   .     S
C806   C808    1.423   .     A
C807   O903    1.383   .     S
C807   C809    1.410   .     A
C808   C810    1.414   .     A
C808   O908    1.387   .     S
C810   C125    1.518   1_556 S
C811   O839    1.298   .     A
C811   C813    1.437   .     S
C811   O837    1.283   .     A
C812   O840    1.302   .     A
C812   C814    1.439   .     S
C812   O838    1.280   .     A
C814   C927    1.354   .     S
C814   Cl956   1.770   .     S
C815   O843    1.383   .     S
C815   C825    1.408   .     A
C815   C817    1.391   .     A
C816   C826    1.407   .     A
C816   O848    1.385   .     S
C816   C818    1.398   .     A
C817   H829    1.083   .     S
C817   C819    1.396   .     A
C818   C820    1.403   .     A
C818   H830    1.083   .     S
C819   C821    1.409   .     A
C820   C822    1.410   .     A
C821   O853    1.390   .     S
C821   C823    1.411   .     A
C822   C824    1.399   .     A
C822   O858    1.378   .     S
C823   C825    1.411   .     A
C823   O863    1.384   .     S
C824   O868    1.384   .     S
C824   C826    1.408   .     A
C825   C1168   1.470   1_545 S
C826   C1167   1.470   .     S
Cu827  O840    1.968   .     S
Cu827  O836    1.963   .     S
Cu827  N832    2.019   .     S
Cu827  Cu828   2.688   .     S
Cu827  O837    1.965   .     S
Cu827  O833    1.955   .     S
Cu828  O839    1.968   .     S
Cu828  O835    1.963   .     S
Cu828  O838    1.965   .     S
Cu828  N831    2.019   .     S
Cu828  O834    1.955   .     S
Cl841  C927    1.773   .     S
O843   C844    1.408   .     S
C844   H847    1.109   .     S
C844   H846    1.113   .     S
C844   H845    1.112   .     S
O848   C849    1.411   .     S
C849   H850    1.114   .     S
C849   H851    1.112   .     S
C849   H852    1.109   .     S
O853   C854    1.414   .     S
C854   H855    1.110   .     S
C854   H857    1.110   .     S
C854   H856    1.115   .     S
O858   C859    1.411   .     S
C859   H861    1.103   .     S
C859   H862    1.114   .     S
C859   H860    1.112   .     S
O863   C864    1.408   .     S
C864   H866    1.114   .     S
C864   H867    1.109   .     S
C864   H1207   1.110   1_545 S
H865   C1206   1.110   .     S
O868   C869    1.409   .     S
C869   H871    1.115   .     S
C869   H1212   1.110   .     S
C869   H1214   1.109   .     S
H870   C1211   1.110   1_545 S
H872   C1211   1.109   1_545 S
O873   C874    1.414   .     S
C874   H877    1.110   .     S
C874   H875    1.118   .     S
C874   H876    1.106   .     S
O878   C879    1.409   .     S
C879   H880    1.112   .     S
C879   H881    1.114   .     S
C879   H882    1.109   .     S
O883   C884    1.410   .     S
C884   H886    1.112   .     S
C884   H885    1.114   .     S
C884   H887    1.109   .     S
O888   C889    1.413   .     S
C889   H890    1.110   .     S
C889   H891    1.114   .     S
C889   H892    1.110   .     S
O893   C894    1.411   .     S
C894   H897    1.109   .     S
C894   H896    1.108   .     S
C894   H895    1.112   .     S
O898   C899    1.411   .     S
C899   H900    1.107   .     S
C899   H901    1.113   .     S
C899   H902    1.108   .     S
O903   C904    1.410   .     S
C904   H906    1.114   .     S
H905   C220    1.108   1_556 S
H907   C220    1.108   1_556 S
O908   C909    1.413   .     S
C909   H910    1.109   .     S
C909   H911    1.113   .     S
C909   H228    1.109   1_556 S
C913   C933    1.458   .     S
C913   O947    1.298   .     A
C913   O949    1.293   .     A
C914   C934    1.473   .     S
C914   O950    1.301   .     A
C914   O948    1.298   .     A
C915   O987    1.380   .     S
C915   C917    1.417   .     A
C915   C923    1.409   .     A
C916   O992    1.382   .     S
C916   C924    1.413   .     A
C916   C918    1.423   .     A
C917   N945    1.374   .     A
C917   O997    1.378   .     S
C918   N946    1.372   .     A
C918   O1002   1.382   .     S
C919   N945    1.379   .     A
C919   C921    1.420   .     A
C919   O1007   1.379   .     S
C920   N946    1.373   .     A
C920   O1012   1.380   .     S
C920   C922    1.423   .     A
C921   O1017   1.383   .     S
C921   C923    1.410   .     A
C922   C924    1.414   .     A
C922   O1022   1.387   .     S
C924   C239    1.518   1_556 S
C925   O953    1.298   .     A
C925   C927    1.437   .     S
C925   O951    1.283   .     A
C926   O954    1.302   .     A
C926   C928    1.439   .     S
C926   O952    1.280   .     A
C928   C699    1.354   1_655 S
C928   Cl728   1.770   1_655 S
C929   O957    1.383   .     S
C929   C939    1.408   .     A
C929   C931    1.391   .     A
C930   C940    1.407   .     A
C930   O962    1.385   .     S
C930   C932    1.398   .     A
C931   H943    1.083   .     S
C931   C933    1.396   .     A
C932   C934    1.403   .     A
C932   H944    1.083   .     S
C933   C935    1.409   .     A
C934   C936    1.410   .     A
C935   O967    1.390   .     S
C935   C937    1.411   .     A
C936   C938    1.399   .     A
C936   O972    1.378   .     S
C937   C939    1.411   .     A
C937   O977    1.384   .     S
C938   O982    1.384   .     S
C938   C940    1.408   .     A
C939   C1282   1.470   1_545 S
C940   C1281   1.470   .     S
Cu941  O954    1.968   .     S
Cu941  O950    1.963   .     S
Cu941  N946    2.019   .     S
Cu941  Cu942   2.688   .     S
Cu941  O951    1.965   .     S
Cu941  O947    1.955   .     S
Cu942  O953    1.968   .     S
Cu942  O949    1.963   .     S
Cu942  O952    1.965   .     S
Cu942  N945    2.019   .     S
Cu942  O948    1.955   .     S
Cl955  C699    1.773   1_655 S
O957   C958    1.408   .     S
C958   H961    1.109   .     S
C958   H960    1.113   .     S
C958   H959    1.112   .     S
O962   C963    1.411   .     S
C963   H964    1.114   .     S
C963   H965    1.112   .     S
C963   H966    1.109   .     S
O967   C968    1.414   .     S
C968   H969    1.110   .     S
C968   H971    1.110   .     S
C968   H970    1.115   .     S
O972   C973    1.411   .     S
C973   H975    1.103   .     S
C973   H976    1.114   .     S
C973   H974    1.112   .     S
O977   C978    1.408   .     S
C978   H980    1.114   .     S
C978   H981    1.109   .     S
C978   H1321   1.110   1_545 S
H979   C1320   1.110   .     S
O982   C983    1.409   .     S
C983   H985    1.115   .     S
C983   H1326   1.110   .     S
C983   H1328   1.109   .     S
H984   C1325   1.110   1_545 S
H986   C1325   1.109   1_545 S
O987   C988    1.414   .     S
C988   H991    1.110   .     S
C988   H989    1.118   .     S
C988   H990    1.106   .     S
O992   C993    1.409   .     S
C993   H994    1.112   .     S
C993   H995    1.114   .     S
C993   H996    1.109   .     S
O997   C998    1.410   .     S
C998   H1000   1.112   .     S
C998   H999    1.114   .     S
C998   H1001   1.109   .     S
O1002  C1003   1.413   .     S
C1003  H1004   1.110   .     S
C1003  H1005   1.114   .     S
C1003  H1006   1.110   .     S
O1007  C1008   1.411   .     S
C1008  H1011   1.109   .     S
C1008  H1010   1.108   .     S
C1008  H1009   1.112   .     S
O1012  C1013   1.411   .     S
C1013  H1014   1.107   .     S
C1013  H1015   1.113   .     S
C1013  H1016   1.108   .     S
O1017  C1018   1.410   .     S
C1018  H1020   1.114   .     S
H1019  C334    1.108   1_556 S
H1021  C334    1.108   1_556 S
O1022  C1023   1.413   .     S
C1023  H1024   1.109   .     S
C1023  H1025   1.113   .     S
C1023  H342    1.109   1_556 S
C1027  C1047   1.458   .     S
C1027  O1061   1.298   .     A
C1027  O1063   1.293   .     A
C1028  C1048   1.473   .     S
C1028  O1064   1.301   .     A
C1028  O1062   1.298   .     A
C1029  O1101   1.380   .     S
C1029  C1031   1.417   .     A
C1029  C1037   1.409   .     A
C1030  O1106   1.382   .     S
C1030  C1038   1.413   .     A
C1030  C1032   1.423   .     A
C1031  N1059   1.374   .     A
C1031  O1111   1.378   .     S
C1032  N1060   1.372   .     A
C1032  O1116   1.382   .     S
C1033  N1059   1.379   .     A
C1033  C1035   1.420   .     A
C1033  O1121   1.379   .     S
C1034  N1060   1.373   .     A
C1034  O1126   1.380   .     S
C1034  C1036   1.423   .     A
C1035  O1131   1.383   .     S
C1035  C1037   1.410   .     A
C1036  C1038   1.414   .     A
C1036  O1136   1.387   .     S
C1038  C353    1.518   1_556 S
C1039  O1067   1.298   .     A
C1039  C1041   1.437   .     S
C1039  O1065   1.283   .     A
C1040  O1068   1.302   .     A
C1040  C1042   1.439   .     S
C1040  O1066   1.280   .     A
C1041  C1270   1.354   1_455 S
C1041  Cl1297  1.773   1_455 S
C1042  C1155   1.354   .     S
C1042  Cl1184  1.770   .     S
C1043  O1071   1.383   .     S
C1043  C1053   1.408   .     A
C1043  C1045   1.391   .     A
C1044  C1054   1.407   .     A
C1044  O1076   1.385   .     S
C1044  C1046   1.398   .     A
C1045  H1057   1.083   .     S
C1045  C1047   1.396   .     A
C1046  C1048   1.403   .     A
C1046  H1058   1.083   .     S
C1047  C1049   1.409   .     A
C1048  C1050   1.410   .     A
C1049  O1081   1.390   .     S
C1049  C1051   1.411   .     A
C1050  C1052   1.399   .     A
C1050  O1086   1.378   .     S
C1051  C1053   1.411   .     A
C1051  O1091   1.384   .     S
C1052  O1096   1.384   .     S
C1052  C1054   1.408   .     A
C1054  C711    1.470   1_565 S
Cu1055 O1068   1.968   .     S
Cu1055 O1064   1.963   .     S
Cu1055 N1060   2.019   .     S
Cu1055 Cu1056  2.688   .     S
Cu1055 O1065   1.965   .     S
Cu1055 O1061   1.955   .     S
Cu1056 O1067   1.968   .     S
Cu1056 O1063   1.963   .     S
Cu1056 O1066   1.965   .     S
Cu1056 N1059   2.019   .     S
Cu1056 O1062   1.955   .     S
Cl1069 C1155   1.773   .     S
Cl1070 C1270   1.770   1_455 S
O1071  C1072   1.408   .     S
C1072  H1075   1.109   .     S
C1072  H1074   1.113   .     S
C1072  H1073   1.112   .     S
O1076  C1077   1.411   .     S
C1077  H1078   1.114   .     S
C1077  H1079   1.112   .     S
C1077  H1080   1.109   .     S
O1081  C1082   1.414   .     S
C1082  H1083   1.110   .     S
C1082  H1085   1.110   .     S
C1082  H1084   1.115   .     S
O1086  C1087   1.411   .     S
C1087  H1089   1.103   .     S
C1087  H1090   1.114   .     S
C1087  H1088   1.112   .     S
O1091  C1092   1.408   .     S
C1092  H1094   1.114   .     S
C1092  H1095   1.109   .     S
H1093  C750    1.110   1_565 S
O1096  C1097   1.409   .     S
C1097  H1099   1.115   .     S
C1097  H756    1.110   1_565 S
C1097  H758    1.109   1_565 S
O1101  C1102   1.414   .     S
C1102  H1105   1.110   .     S
C1102  H1103   1.118   .     S
C1102  H1104   1.106   .     S
O1106  C1107   1.409   .     S
C1107  H1108   1.112   .     S
C1107  H1109   1.114   .     S
C1107  H1110   1.109   .     S
O1111  C1112   1.410   .     S
C1112  H1114   1.112   .     S
C1112  H1113   1.114   .     S
C1112  H1115   1.109   .     S
O1116  C1117   1.413   .     S
C1117  H1118   1.110   .     S
C1117  H1119   1.114   .     S
C1117  H1120   1.110   .     S
O1121  C1122   1.411   .     S
C1122  H1125   1.109   .     S
C1122  H1124   1.108   .     S
C1122  H1123   1.112   .     S
O1126  C1127   1.411   .     S
C1127  H1128   1.107   .     S
C1127  H1129   1.113   .     S
C1127  H1130   1.108   .     S
O1131  C1132   1.410   .     S
C1132  H1134   1.114   .     S
H1133  C448    1.108   1_556 S
H1135  C448    1.108   1_556 S
O1136  C1137   1.413   .     S
C1137  H1138   1.109   .     S
C1137  H1139   1.113   .     S
C1137  H456    1.109   1_556 S
C1141  C1161   1.458   .     S
C1141  O1175   1.298   .     A
C1141  O1177   1.293   .     A
C1142  C1162   1.473   .     S
C1142  O1178   1.301   .     A
C1142  O1176   1.298   .     A
C1143  O1215   1.380   .     S
C1143  C1145   1.417   .     A
C1143  C1151   1.409   .     A
C1144  O1220   1.382   .     S
C1144  C1152   1.413   .     A
C1144  C1146   1.423   .     A
C1145  N1173   1.374   .     A
C1145  O1225   1.378   .     S
C1146  N1174   1.372   .     A
C1146  O1230   1.382   .     S
C1147  N1173   1.379   .     A
C1147  C1149   1.420   .     A
C1147  O1235   1.379   .     S
C1148  N1174   1.373   .     A
C1148  O1240   1.380   .     S
C1148  C1150   1.423   .     A
C1149  O1245   1.383   .     S
C1149  C1151   1.410   .     A
C1150  C1152   1.414   .     A
C1150  O1250   1.387   .     S
C1152  C467    1.518   1_556 S
C1153  O1181   1.298   .     A
C1153  C1155   1.437   .     S
C1153  O1179   1.283   .     A
C1154  O1182   1.302   .     A
C1154  C1156   1.439   .     S
C1154  O1180   1.280   .     A
C1156  C1269   1.354   .     S
C1156  Cl1298  1.770   .     S
C1157  O1185   1.383   .     S
C1157  C1167   1.408   .     A
C1157  C1159   1.391   .     A
C1158  C1168   1.407   .     A
C1158  O1190   1.385   .     S
C1158  C1160   1.398   .     A
C1159  H1171   1.083   .     S
C1159  C1161   1.396   .     A
C1160  C1162   1.403   .     A
C1160  H1172   1.083   .     S
C1161  C1163   1.409   .     A
C1162  C1164   1.410   .     A
C1163  O1195   1.390   .     S
C1163  C1165   1.411   .     A
C1164  C1166   1.399   .     A
C1164  O1200   1.378   .     S
C1165  C1167   1.411   .     A
C1165  O1205   1.384   .     S
C1166  O1210   1.384   .     S
C1166  C1168   1.408   .     A
C1168  C825    1.470   1_565 S
Cu1169 O1182   1.968   .     S
Cu1169 O1178   1.963   .     S
Cu1169 N1174   2.019   .     S
Cu1169 Cu1170  2.688   .     S
Cu1169 O1179   1.965   .     S
Cu1169 O1175   1.955   .     S
Cu1170 O1181   1.968   .     S
Cu1170 O1177   1.963   .     S
Cu1170 O1180   1.965   .     S
Cu1170 N1173   2.019   .     S
Cu1170 O1176   1.955   .     S
Cl1183 C1269   1.773   .     S
O1185  C1186   1.408   .     S
C1186  H1189   1.109   .     S
C1186  H1188   1.113   .     S
C1186  H1187   1.112   .     S
O1190  C1191   1.411   .     S
C1191  H1192   1.114   .     S
C1191  H1193   1.112   .     S
C1191  H1194   1.109   .     S
O1195  C1196   1.414   .     S
C1196  H1197   1.110   .     S
C1196  H1199   1.110   .     S
C1196  H1198   1.115   .     S
O1200  C1201   1.411   .     S
C1201  H1203   1.103   .     S
C1201  H1204   1.114   .     S
C1201  H1202   1.112   .     S
O1205  C1206   1.408   .     S
C1206  H1208   1.114   .     S
C1206  H1209   1.109   .     S
H1207  C864    1.110   1_565 S
O1210  C1211   1.409   .     S
C1211  H1213   1.115   .     S
C1211  H870    1.110   1_565 S
C1211  H872    1.109   1_565 S
O1215  C1216   1.414   .     S
C1216  H1219   1.110   .     S
C1216  H1217   1.118   .     S
C1216  H1218   1.106   .     S
O1220  C1221   1.409   .     S
C1221  H1222   1.112   .     S
C1221  H1223   1.114   .     S
C1221  H1224   1.109   .     S
O1225  C1226   1.410   .     S
C1226  H1228   1.112   .     S
C1226  H1227   1.114   .     S
C1226  H1229   1.109   .     S
O1230  C1231   1.413   .     S
C1231  H1232   1.110   .     S
C1231  H1233   1.114   .     S
C1231  H1234   1.110   .     S
O1235  C1236   1.411   .     S
C1236  H1239   1.109   .     S
C1236  H1238   1.108   .     S
C1236  H1237   1.112   .     S
O1240  C1241   1.411   .     S
C1241  H1242   1.107   .     S
C1241  H1243   1.113   .     S
C1241  H1244   1.108   .     S
O1245  C1246   1.410   .     S
C1246  H1248   1.114   .     S
H1247  C562    1.108   1_556 S
H1249  C562    1.108   1_556 S
O1250  C1251   1.413   .     S
C1251  H1252   1.109   .     S
C1251  H1253   1.113   .     S
C1251  H570    1.109   1_556 S
C1255  C1275   1.458   .     S
C1255  O1289   1.298   .     A
C1255  O1291   1.293   .     A
C1256  C1276   1.473   .     S
C1256  O1292   1.301   .     A
C1256  O1290   1.298   .     A
C1257  O1329   1.380   .     S
C1257  C1259   1.417   .     A
C1257  C1265   1.409   .     A
C1258  O1334   1.382   .     S
C1258  C1266   1.413   .     A
C1258  C1260   1.423   .     A
C1259  N1287   1.374   .     A
C1259  O1339   1.378   .     S
C1260  N1288   1.372   .     A
C1260  O1344   1.382   .     S
C1261  N1287   1.379   .     A
C1261  C1263   1.420   .     A
C1261  O1349   1.379   .     S
C1262  N1288   1.373   .     A
C1262  O1354   1.380   .     S
C1262  C1264   1.423   .     A
C1263  O1359   1.383   .     S
C1263  C1265   1.410   .     A
C1264  C1266   1.414   .     A
C1264  O1364   1.387   .     S
C1266  C581    1.518   1_556 S
C1267  O1295   1.298   .     A
C1267  C1269   1.437   .     S
C1267  O1293   1.283   .     A
C1268  O1296   1.302   .     A
C1268  C1270   1.439   .     S
C1268  O1294   1.280   .     A
C1270  C1041   1.354   1_655 S
C1270  Cl1070  1.770   1_655 S
C1271  O1299   1.383   .     S
C1271  C1281   1.408   .     A
C1271  C1273   1.391   .     A
C1272  C1282   1.407   .     A
C1272  O1304   1.385   .     S
C1272  C1274   1.398   .     A
C1273  H1285   1.083   .     S
C1273  C1275   1.396   .     A
C1274  C1276   1.403   .     A
C1274  H1286   1.083   .     S
C1275  C1277   1.409   .     A
C1276  C1278   1.410   .     A
C1277  O1309   1.390   .     S
C1277  C1279   1.411   .     A
C1278  C1280   1.399   .     A
C1278  O1314   1.378   .     S
C1279  C1281   1.411   .     A
C1279  O1319   1.384   .     S
C1280  O1324   1.384   .     S
C1280  C1282   1.408   .     A
C1282  C939    1.470   1_565 S
Cu1283 O1296   1.968   .     S
Cu1283 O1292   1.963   .     S
Cu1283 N1288   2.019   .     S
Cu1283 Cu1284  2.688   .     S
Cu1283 O1293   1.965   .     S
Cu1283 O1289   1.955   .     S
Cu1284 O1295   1.968   .     S
Cu1284 O1291   1.963   .     S
Cu1284 O1294   1.965   .     S
Cu1284 N1287   2.019   .     S
Cu1284 O1290   1.955   .     S
Cl1297 C1041   1.773   1_655 S
O1299  C1300   1.408   .     S
C1300  H1303   1.109   .     S
C1300  H1302   1.113   .     S
C1300  H1301   1.112   .     S
O1304  C1305   1.411   .     S
C1305  H1306   1.114   .     S
C1305  H1307   1.112   .     S
C1305  H1308   1.109   .     S
O1309  C1310   1.414   .     S
C1310  H1311   1.110   .     S
C1310  H1313   1.110   .     S
C1310  H1312   1.115   .     S
O1314  C1315   1.411   .     S
C1315  H1317   1.103   .     S
C1315  H1318   1.114   .     S
C1315  H1316   1.112   .     S
O1319  C1320   1.408   .     S
C1320  H1322   1.114   .     S
C1320  H1323   1.109   .     S
H1321  C978    1.110   1_565 S
O1324  C1325   1.409   .     S
C1325  H1327   1.115   .     S
C1325  H984    1.110   1_565 S
C1325  H986    1.109   1_565 S
O1329  C1330   1.414   .     S
C1330  H1333   1.110   .     S
C1330  H1331   1.118   .     S
C1330  H1332   1.106   .     S
O1334  C1335   1.409   .     S
C1335  H1336   1.112   .     S
C1335  H1337   1.114   .     S
C1335  H1338   1.109   .     S
O1339  C1340   1.410   .     S
C1340  H1342   1.112   .     S
C1340  H1341   1.114   .     S
C1340  H1343   1.109   .     S
O1344  C1345   1.413   .     S
C1345  H1346   1.110   .     S
C1345  H1347   1.114   .     S
C1345  H1348   1.110   .     S
O1349  C1350   1.411   .     S
C1350  H1353   1.109   .     S
C1350  H1352   1.108   .     S
C1350  H1351   1.112   .     S
O1354  C1355   1.411   .     S
C1355  H1356   1.107   .     S
C1355  H1357   1.113   .     S
C1355  H1358   1.108   .     S
O1359  C1360   1.410   .     S
C1360  H1362   1.114   .     S
H1361  C676    1.108   1_556 S
H1363  C676    1.108   1_556 S
O1364  C1365   1.413   .     S
C1365  H1366   1.109   .     S
C1365  H1367   1.113   .     S
C1365  H684    1.109   1_556 S
