data_str_m2_o1_o16_pcu_sym.141
_audit_creation_date              2020-01-03
_audit_creation_method            'Materials Studio'
_symmetry_space_group_name_H-M    'P1'
_symmetry_Int_Tables_number       1
_symmetry_cell_setting            triclinic
loop_
_symmetry_equiv_pos_as_xyz
  x,y,z
_cell_length_a                    28.8429
_cell_length_b                    32.2148
_cell_length_c                    26.6505
_cell_angle_alpha                 91.9328
_cell_angle_beta                  72.6743
_cell_angle_gamma                 90.4665
loop_
_atom_site_label
_atom_site_type_symbol
_atom_site_fract_x
_atom_site_fract_y
_atom_site_fract_z
_atom_site_U_iso_or_equiv
_atom_site_adp_type
_atom_site_occupancy
C1     C     0.16682   0.24573   0.24968   0.00000  Uiso   1.00
C2     C     0.14031   0.18359   0.49220   0.00000  Uiso   1.00
C3     C     0.15311   0.19183   0.43789   0.00000  Uiso   1.00
C4     C     0.17726   0.18640   0.01757   0.00000  Uiso   1.00
C5     C     0.22244   0.20486   0.49158   0.00000  Uiso   1.00
C6     C     0.22908   0.22233   0.44267   0.00000  Uiso   1.00
C7     C     0.19335   0.21833   0.41719   0.00000  Uiso   1.00
C8     C     0.17142   0.16964   0.06693   0.00000  Uiso   1.00
C9     C     0.25102   0.19373   0.06718   0.00000  Uiso   1.00
C10    C     0.12322   0.17566   0.40809   0.00000  Uiso   1.00
C11    C     0.19862   0.31055   0.20800   0.00000  Uiso   1.00
C12    C     0.14041   0.16970   0.35021   0.00000  Uiso   1.00
C13    C     0.19825   0.02036   0.20748   0.00000  Uiso   1.00
C14    C     0.16593   0.04274   0.24952   0.00000  Uiso   1.00
C15    C     0.13294   0.02189   0.29102   0.00000  Uiso   1.00
C16    C     0.13339   0.31217   0.29046   0.00000  Uiso   1.00
C17    C     0.16659   0.29019   0.24954   0.00000  Uiso   1.00
C18    C     0.30341   0.19961   0.27151   0.00000  Uiso   1.00
C19    C     0.01827   0.19747   0.27599   0.00000  Uiso   1.00
C20    C     0.03097   0.13444   0.22637   0.00000  Uiso   1.00
C21    C     0.31476   0.13479   0.22622   0.00000  Uiso   1.00
C22    C     0.16649   0.08752   0.24978   0.00000  Uiso   1.00
C23    C     0.19268   0.16764   0.14981   0.00000  Uiso   1.00
C24    C     0.25910   0.20802   0.01638   0.00000  Uiso   1.00
C25    C     0.20660   0.17523   0.09313   0.00000  Uiso   1.00
C26    C     0.07617   0.16212   0.43467   0.00000  Uiso   1.00
C27    C     0.05925   0.16432   0.48915   0.00000  Uiso   1.00
C28    C     0.09066   0.17512   0.01856   0.00000  Uiso   1.00
Cu29   Cu    0.11978   0.16666   0.25000   0.00000  Uiso   1.00
Cu30   Cu    0.21355   0.16667   0.25000   0.00000  Uiso   1.00
H31    H     0.27865   0.19856   0.08680   0.00000  Uiso   1.00
H32    H     0.10848   0.29583   0.32234   0.00000  Uiso   1.00
H33    H     0.26067   0.24141   0.42574   0.00000  Uiso   1.00
H34    H     0.29344   0.22273   0.49711   0.00000  Uiso   1.00
H35    H     0.13947   0.15198   0.08573   0.00000  Uiso   1.00
H36    H     0.05178   0.15074   0.41331   0.00000  Uiso   1.00
H37    H     0.02156   0.15720   0.00873   0.00000  Uiso   1.00
H38    H     0.22330   0.29296   0.17575   0.00000  Uiso   1.00
N39    N     0.04931   0.16666   0.24999   0.00000  Uiso   1.00
N40    N     0.28402   0.16669   0.25000   0.00000  Uiso   1.00
O41    O     0.12708   0.22678   0.25001   0.00000  Uiso   1.00
O42    O     0.20627   0.22679   0.25001   0.00000  Uiso   1.00
O43    O     0.10775   0.16665   0.32549   0.00000  Uiso   1.00
O44    O     0.18694   0.16666   0.32549   0.00000  Uiso   1.00
O45    O     0.12706   0.10654   0.25000   0.00000  Uiso   1.00
O46    O     0.20625   0.10655   0.25000   0.00000  Uiso   1.00
O47    O     0.14640   0.16667   0.17451   0.00000  Uiso   1.00
O48    O     0.22559   0.16668   0.17451   0.00000  Uiso   1.00
N49    N     0.22934   0.04132   0.16349   0.00000  Uiso   1.00
H50    H     0.26493   0.03123   0.15793   0.00000  Uiso   1.00
H51    H     0.21961   0.03190   0.13008   0.00000  Uiso   1.00
N52    N     0.09962   0.04369   0.33458   0.00000  Uiso   1.00
H53    H     0.11921   0.06444   0.35146   0.00000  Uiso   1.00
H54    H     0.07554   0.06060   0.32062   0.00000  Uiso   1.00
O55    O     0.27563   0.23460   0.29071   0.00000  Uiso   1.00
C56    C     0.29455   0.26852   0.25802   0.00000  Uiso   1.00
H57    H     0.28317   0.26618   0.22173   0.00000  Uiso   1.00
H58    H     0.00161   0.27032   0.24530   0.00000  Uiso   1.00
C59    C     0.27551   0.30906   0.28773   0.00000  Uiso   1.00
H60    H     0.28983   0.31336   0.32189   0.00000  Uiso   1.00
H61    H     0.28742   0.00221   0.26133   0.00000  Uiso   1.00
H62    H     0.23529   0.30878   0.30227   0.00000  Uiso   1.00
N63    N     0.03388   0.22616   0.31021   0.00000  Uiso   1.00
H64    H     0.03572   0.20951   0.34246   0.00000  Uiso   1.00
H65    H     0.00797   0.24909   0.32654   0.00000  Uiso   1.00
O66    O     0.05607   0.09718   0.21469   0.00000  Uiso   1.00
C67    C     0.07889   0.09126   0.16018   0.00000  Uiso   1.00
H68    H     0.11781   0.09927   0.15129   0.00000  Uiso   1.00
H69    H     0.06296   0.10979   0.13513   0.00000  Uiso   1.00
C70    C     0.07633   0.04549   0.14507   0.00000  Uiso   1.00
H71    H     0.03794   0.03567   0.15267   0.00000  Uiso   1.00
H72    H     0.09568   0.04022   0.10261   0.00000  Uiso   1.00
H73    H     0.09376   0.02632   0.16833   0.00000  Uiso   1.00
N74    N     0.29672   0.10122   0.20115   0.00000  Uiso   1.00
H75    H     0.31479   0.10072   0.16089   0.00000  Uiso   1.00
H76    H     0.30315   0.07338   0.21701   0.00000  Uiso   1.00
N77    N     0.07013   0.18419   0.07375   0.00000  Uiso   1.00
H78    H     0.04563   0.16067   0.08978   0.00000  Uiso   1.00
H79    H     0.04976   0.21148   0.07792   0.00000  Uiso   1.00
N80    N     0.19149   0.25022   0.38156   0.00000  Uiso   1.00
H81    H     0.16124   0.26891   0.39949   0.00000  Uiso   1.00
H82    H     0.18672   0.23795   0.34710   0.00000  Uiso   1.00
C83    C     0.50015   0.24573   0.24968   0.00000  Uiso   1.00
C84    C     0.47365   0.18359   0.49220   0.00000  Uiso   1.00
C85    C     0.48644   0.19183   0.43789   0.00000  Uiso   1.00
C86    C     0.51059   0.18640   0.01757   0.00000  Uiso   1.00
C87    C     0.55577   0.20486   0.49158   0.00000  Uiso   1.00
C88    C     0.56242   0.22233   0.44267   0.00000  Uiso   1.00
C89    C     0.52669   0.21833   0.41719   0.00000  Uiso   1.00
C90    C     0.50475   0.16964   0.06693   0.00000  Uiso   1.00
C91    C     0.58435   0.19373   0.06718   0.00000  Uiso   1.00
C92    C     0.45655   0.17566   0.40809   0.00000  Uiso   1.00
C93    C     0.53195   0.31055   0.20800   0.00000  Uiso   1.00
C94    C     0.47374   0.16970   0.35021   0.00000  Uiso   1.00
C95    C     0.53159   0.02036   0.20748   0.00000  Uiso   1.00
C96    C     0.49927   0.04274   0.24952   0.00000  Uiso   1.00
C97    C     0.46628   0.02189   0.29102   0.00000  Uiso   1.00
C98    C     0.46673   0.31217   0.29046   0.00000  Uiso   1.00
C99    C     0.49992   0.29019   0.24954   0.00000  Uiso   1.00
C100   C     0.63674   0.19961   0.27151   0.00000  Uiso   1.00
C101   C     0.35160   0.19747   0.27599   0.00000  Uiso   1.00
C102   C     0.36430   0.13444   0.22637   0.00000  Uiso   1.00
C103   C     0.64809   0.13479   0.22622   0.00000  Uiso   1.00
C104   C     0.49983   0.08752   0.24978   0.00000  Uiso   1.00
C105   C     0.52601   0.16764   0.14981   0.00000  Uiso   1.00
C106   C     0.59244   0.20802   0.01638   0.00000  Uiso   1.00
C107   C     0.53994   0.17523   0.09313   0.00000  Uiso   1.00
C108   C     0.40950   0.16212   0.43467   0.00000  Uiso   1.00
C109   C     0.39259   0.16432   0.48915   0.00000  Uiso   1.00
C110   C     0.42399   0.17512   0.01856   0.00000  Uiso   1.00
Cu111  Cu    0.45311   0.16666   0.25000   0.00000  Uiso   1.00
Cu112  Cu    0.54689   0.16667   0.25000   0.00000  Uiso   1.00
H113   H     0.61199   0.19856   0.08680   0.00000  Uiso   1.00
H114   H     0.44181   0.29583   0.32234   0.00000  Uiso   1.00
H115   H     0.59401   0.24141   0.42574   0.00000  Uiso   1.00
H116   H     0.62677   0.22273   0.49711   0.00000  Uiso   1.00
H117   H     0.47280   0.15198   0.08573   0.00000  Uiso   1.00
H118   H     0.38511   0.15074   0.41331   0.00000  Uiso   1.00
H119   H     0.35490   0.15720   0.00873   0.00000  Uiso   1.00
H120   H     0.55663   0.29296   0.17575   0.00000  Uiso   1.00
N121   N     0.38265   0.16666   0.24999   0.00000  Uiso   1.00
N122   N     0.61735   0.16669   0.25000   0.00000  Uiso   1.00
O123   O     0.46042   0.22678   0.25001   0.00000  Uiso   1.00
O124   O     0.53961   0.22679   0.25001   0.00000  Uiso   1.00
O125   O     0.44108   0.16665   0.32549   0.00000  Uiso   1.00
O126   O     0.52027   0.16666   0.32549   0.00000  Uiso   1.00
O127   O     0.46039   0.10654   0.25000   0.00000  Uiso   1.00
O128   O     0.53958   0.10655   0.25000   0.00000  Uiso   1.00
O129   O     0.47973   0.16667   0.17451   0.00000  Uiso   1.00
O130   O     0.55892   0.16668   0.17451   0.00000  Uiso   1.00
N131   N     0.56267   0.04132   0.16349   0.00000  Uiso   1.00
H132   H     0.59827   0.03123   0.15793   0.00000  Uiso   1.00
H133   H     0.55294   0.03190   0.13008   0.00000  Uiso   1.00
N134   N     0.43295   0.04369   0.33458   0.00000  Uiso   1.00
H135   H     0.45255   0.06444   0.35146   0.00000  Uiso   1.00
H136   H     0.40887   0.06060   0.32062   0.00000  Uiso   1.00
O137   O     0.60896   0.23460   0.29071   0.00000  Uiso   1.00
C138   C     0.62788   0.26852   0.25802   0.00000  Uiso   1.00
H139   H     0.61650   0.26618   0.22173   0.00000  Uiso   1.00
H140   H     0.33495   0.27032   0.24530   0.00000  Uiso   1.00
C141   C     0.60885   0.30906   0.28773   0.00000  Uiso   1.00
H142   H     0.62316   0.31336   0.32189   0.00000  Uiso   1.00
H143   H     0.62076   0.00221   0.26133   0.00000  Uiso   1.00
H144   H     0.56862   0.30878   0.30227   0.00000  Uiso   1.00
N145   N     0.36721   0.22616   0.31021   0.00000  Uiso   1.00
H146   H     0.36906   0.20951   0.34246   0.00000  Uiso   1.00
H147   H     0.34130   0.24909   0.32654   0.00000  Uiso   1.00
O148   O     0.38940   0.09718   0.21469   0.00000  Uiso   1.00
C149   C     0.41222   0.09126   0.16018   0.00000  Uiso   1.00
H150   H     0.45115   0.09927   0.15129   0.00000  Uiso   1.00
H151   H     0.39630   0.10979   0.13513   0.00000  Uiso   1.00
C152   C     0.40966   0.04549   0.14507   0.00000  Uiso   1.00
H153   H     0.37128   0.03567   0.15267   0.00000  Uiso   1.00
H154   H     0.42902   0.04022   0.10261   0.00000  Uiso   1.00
H155   H     0.42709   0.02632   0.16833   0.00000  Uiso   1.00
N156   N     0.63005   0.10122   0.20115   0.00000  Uiso   1.00
H157   H     0.64812   0.10072   0.16089   0.00000  Uiso   1.00
H158   H     0.63648   0.07338   0.21701   0.00000  Uiso   1.00
N159   N     0.40346   0.18419   0.07375   0.00000  Uiso   1.00
H160   H     0.37896   0.16067   0.08978   0.00000  Uiso   1.00
H161   H     0.38309   0.21148   0.07792   0.00000  Uiso   1.00
N162   N     0.52483   0.25022   0.38156   0.00000  Uiso   1.00
H163   H     0.49457   0.26891   0.39949   0.00000  Uiso   1.00
H164   H     0.52005   0.23795   0.34710   0.00000  Uiso   1.00
C165   C     0.83349   0.24573   0.24968   0.00000  Uiso   1.00
C166   C     0.80698   0.18359   0.49220   0.00000  Uiso   1.00
C167   C     0.81978   0.19183   0.43789   0.00000  Uiso   1.00
C168   C     0.84393   0.18640   0.01757   0.00000  Uiso   1.00
C169   C     0.88910   0.20486   0.49158   0.00000  Uiso   1.00
C170   C     0.89575   0.22233   0.44267   0.00000  Uiso   1.00
C171   C     0.86002   0.21833   0.41719   0.00000  Uiso   1.00
C172   C     0.83808   0.16964   0.06693   0.00000  Uiso   1.00
C173   C     0.91769   0.19373   0.06718   0.00000  Uiso   1.00
C174   C     0.78988   0.17566   0.40809   0.00000  Uiso   1.00
C175   C     0.86528   0.31055   0.20800   0.00000  Uiso   1.00
C176   C     0.80707   0.16970   0.35021   0.00000  Uiso   1.00
C177   C     0.86492   0.02036   0.20748   0.00000  Uiso   1.00
C178   C     0.83260   0.04274   0.24952   0.00000  Uiso   1.00
C179   C     0.79961   0.02189   0.29102   0.00000  Uiso   1.00
C180   C     0.80006   0.31217   0.29046   0.00000  Uiso   1.00
C181   C     0.83325   0.29019   0.24954   0.00000  Uiso   1.00
C182   C     0.97007   0.19961   0.27151   0.00000  Uiso   1.00
C183   C     0.68494   0.19747   0.27599   0.00000  Uiso   1.00
C184   C     0.69764   0.13444   0.22637   0.00000  Uiso   1.00
C185   C     0.98143   0.13479   0.22622   0.00000  Uiso   1.00
C186   C     0.83316   0.08752   0.24978   0.00000  Uiso   1.00
C187   C     0.85935   0.16764   0.14981   0.00000  Uiso   1.00
C188   C     0.92577   0.20802   0.01638   0.00000  Uiso   1.00
C189   C     0.87327   0.17523   0.09313   0.00000  Uiso   1.00
C190   C     0.74284   0.16212   0.43467   0.00000  Uiso   1.00
C191   C     0.72592   0.16432   0.48915   0.00000  Uiso   1.00
C192   C     0.75732   0.17512   0.01856   0.00000  Uiso   1.00
Cu193  Cu    0.78645   0.16666   0.25000   0.00000  Uiso   1.00
Cu194  Cu    0.88022   0.16667   0.25000   0.00000  Uiso   1.00
H195   H     0.94532   0.19856   0.08680   0.00000  Uiso   1.00
H196   H     0.77514   0.29583   0.32234   0.00000  Uiso   1.00
H197   H     0.92734   0.24141   0.42574   0.00000  Uiso   1.00
H198   H     0.96010   0.22273   0.49711   0.00000  Uiso   1.00
H199   H     0.80614   0.15198   0.08573   0.00000  Uiso   1.00
H200   H     0.71845   0.15074   0.41331   0.00000  Uiso   1.00
H201   H     0.68823   0.15720   0.00873   0.00000  Uiso   1.00
H202   H     0.88997   0.29296   0.17575   0.00000  Uiso   1.00
N203   N     0.71598   0.16666   0.24999   0.00000  Uiso   1.00
N204   N     0.95069   0.16669   0.25000   0.00000  Uiso   1.00
O205   O     0.79375   0.22678   0.25001   0.00000  Uiso   1.00
O206   O     0.87294   0.22679   0.25001   0.00000  Uiso   1.00
O207   O     0.77441   0.16665   0.32549   0.00000  Uiso   1.00
O208   O     0.85360   0.16666   0.32549   0.00000  Uiso   1.00
O209   O     0.79373   0.10654   0.25000   0.00000  Uiso   1.00
O210   O     0.87292   0.10655   0.25000   0.00000  Uiso   1.00
O211   O     0.81306   0.16667   0.17451   0.00000  Uiso   1.00
O212   O     0.89225   0.16668   0.17451   0.00000  Uiso   1.00
N213   N     0.89601   0.04132   0.16349   0.00000  Uiso   1.00
H214   H     0.93160   0.03123   0.15793   0.00000  Uiso   1.00
H215   H     0.88627   0.03190   0.13008   0.00000  Uiso   1.00
N216   N     0.76629   0.04369   0.33458   0.00000  Uiso   1.00
H217   H     0.78588   0.06444   0.35146   0.00000  Uiso   1.00
H218   H     0.74220   0.06060   0.32062   0.00000  Uiso   1.00
O219   O     0.94230   0.23460   0.29071   0.00000  Uiso   1.00
C220   C     0.96121   0.26852   0.25802   0.00000  Uiso   1.00
H221   H     0.94983   0.26618   0.22173   0.00000  Uiso   1.00
H222   H     0.66828   0.27032   0.24530   0.00000  Uiso   1.00
C223   C     0.94218   0.30906   0.28773   0.00000  Uiso   1.00
H224   H     0.95650   0.31336   0.32189   0.00000  Uiso   1.00
H225   H     0.95409   0.00221   0.26133   0.00000  Uiso   1.00
H226   H     0.90196   0.30878   0.30227   0.00000  Uiso   1.00
N227   N     0.70054   0.22616   0.31021   0.00000  Uiso   1.00
H228   H     0.70239   0.20951   0.34246   0.00000  Uiso   1.00
H229   H     0.67464   0.24909   0.32654   0.00000  Uiso   1.00
O230   O     0.72274   0.09718   0.21469   0.00000  Uiso   1.00
C231   C     0.74556   0.09126   0.16018   0.00000  Uiso   1.00
H232   H     0.78448   0.09927   0.15129   0.00000  Uiso   1.00
H233   H     0.72963   0.10979   0.13513   0.00000  Uiso   1.00
C234   C     0.74300   0.04549   0.14507   0.00000  Uiso   1.00
H235   H     0.70461   0.03567   0.15267   0.00000  Uiso   1.00
H236   H     0.76235   0.04022   0.10261   0.00000  Uiso   1.00
H237   H     0.76043   0.02632   0.16833   0.00000  Uiso   1.00
N238   N     0.96339   0.10122   0.20115   0.00000  Uiso   1.00
H239   H     0.98145   0.10072   0.16089   0.00000  Uiso   1.00
H240   H     0.96981   0.07338   0.21701   0.00000  Uiso   1.00
N241   N     0.73680   0.18419   0.07375   0.00000  Uiso   1.00
H242   H     0.71229   0.16067   0.08978   0.00000  Uiso   1.00
H243   H     0.71642   0.21148   0.07792   0.00000  Uiso   1.00
N244   N     0.85816   0.25022   0.38156   0.00000  Uiso   1.00
H245   H     0.82790   0.26891   0.39949   0.00000  Uiso   1.00
H246   H     0.85339   0.23795   0.34710   0.00000  Uiso   1.00
C247   C     0.16682   0.57906   0.24968   0.00000  Uiso   1.00
C248   C     0.14031   0.51693   0.49220   0.00000  Uiso   1.00
C249   C     0.15311   0.52517   0.43789   0.00000  Uiso   1.00
C250   C     0.17726   0.51973   0.01757   0.00000  Uiso   1.00
C251   C     0.22244   0.53819   0.49158   0.00000  Uiso   1.00
C252   C     0.22908   0.55567   0.44267   0.00000  Uiso   1.00
C253   C     0.19335   0.55166   0.41719   0.00000  Uiso   1.00
C254   C     0.17142   0.50298   0.06693   0.00000  Uiso   1.00
C255   C     0.25102   0.52706   0.06718   0.00000  Uiso   1.00
C256   C     0.12322   0.50899   0.40809   0.00000  Uiso   1.00
C257   C     0.19862   0.64389   0.20800   0.00000  Uiso   1.00
C258   C     0.14041   0.50303   0.35021   0.00000  Uiso   1.00
C259   C     0.19825   0.35369   0.20748   0.00000  Uiso   1.00
C260   C     0.16593   0.37607   0.24952   0.00000  Uiso   1.00
C261   C     0.13294   0.35523   0.29102   0.00000  Uiso   1.00
C262   C     0.13339   0.64551   0.29046   0.00000  Uiso   1.00
C263   C     0.16659   0.62352   0.24954   0.00000  Uiso   1.00
C264   C     0.30341   0.53294   0.27151   0.00000  Uiso   1.00
C265   C     0.01827   0.53081   0.27599   0.00000  Uiso   1.00
C266   C     0.03097   0.46778   0.22637   0.00000  Uiso   1.00
C267   C     0.31476   0.46813   0.22622   0.00000  Uiso   1.00
C268   C     0.16649   0.42085   0.24978   0.00000  Uiso   1.00
C269   C     0.19268   0.50098   0.14981   0.00000  Uiso   1.00
C270   C     0.25910   0.54136   0.01638   0.00000  Uiso   1.00
C271   C     0.20660   0.50856   0.09313   0.00000  Uiso   1.00
C272   C     0.07617   0.49546   0.43467   0.00000  Uiso   1.00
C273   C     0.05925   0.49766   0.48915   0.00000  Uiso   1.00
C274   C     0.09066   0.50846   0.01856   0.00000  Uiso   1.00
Cu275  Cu    0.11978   0.49999   0.25000   0.00000  Uiso   1.00
Cu276  Cu    0.21355   0.50001   0.25000   0.00000  Uiso   1.00
H277   H     0.27865   0.53189   0.08680   0.00000  Uiso   1.00
H278   H     0.10848   0.62916   0.32234   0.00000  Uiso   1.00
H279   H     0.26067   0.57475   0.42574   0.00000  Uiso   1.00
H280   H     0.29344   0.55607   0.49711   0.00000  Uiso   1.00
H281   H     0.13947   0.48532   0.08573   0.00000  Uiso   1.00
H282   H     0.05178   0.48408   0.41331   0.00000  Uiso   1.00
H283   H     0.02156   0.49054   0.00873   0.00000  Uiso   1.00
H284   H     0.22330   0.62630   0.17575   0.00000  Uiso   1.00
N285   N     0.04931   0.49999   0.24999   0.00000  Uiso   1.00
N286   N     0.28402   0.50002   0.25000   0.00000  Uiso   1.00
O287   O     0.12708   0.56011   0.25001   0.00000  Uiso   1.00
O288   O     0.20627   0.56012   0.25001   0.00000  Uiso   1.00
O289   O     0.10775   0.49998   0.32549   0.00000  Uiso   1.00
O290   O     0.18694   0.49999   0.32549   0.00000  Uiso   1.00
O291   O     0.12706   0.43988   0.25000   0.00000  Uiso   1.00
O292   O     0.20625   0.43989   0.25000   0.00000  Uiso   1.00
O293   O     0.14640   0.50001   0.17451   0.00000  Uiso   1.00
O294   O     0.22559   0.50002   0.17451   0.00000  Uiso   1.00
N295   N     0.22934   0.37465   0.16349   0.00000  Uiso   1.00
H296   H     0.26493   0.36456   0.15793   0.00000  Uiso   1.00
H297   H     0.21961   0.36523   0.13008   0.00000  Uiso   1.00
N298   N     0.09962   0.37702   0.33458   0.00000  Uiso   1.00
H299   H     0.11921   0.39777   0.35146   0.00000  Uiso   1.00
H300   H     0.07554   0.39393   0.32062   0.00000  Uiso   1.00
O301   O     0.27563   0.56793   0.29071   0.00000  Uiso   1.00
C302   C     0.29455   0.60185   0.25802   0.00000  Uiso   1.00
H303   H     0.28317   0.59951   0.22173   0.00000  Uiso   1.00
H304   H     0.00161   0.60365   0.24530   0.00000  Uiso   1.00
C305   C     0.27551   0.64239   0.28773   0.00000  Uiso   1.00
H306   H     0.28983   0.64669   0.32189   0.00000  Uiso   1.00
H307   H     0.28742   0.33554   0.26133   0.00000  Uiso   1.00
H308   H     0.23529   0.64211   0.30227   0.00000  Uiso   1.00
N309   N     0.03388   0.55949   0.31021   0.00000  Uiso   1.00
H310   H     0.03572   0.54284   0.34246   0.00000  Uiso   1.00
H311   H     0.00797   0.58242   0.32654   0.00000  Uiso   1.00
O312   O     0.05607   0.43051   0.21469   0.00000  Uiso   1.00
C313   C     0.07889   0.42459   0.16018   0.00000  Uiso   1.00
H314   H     0.11781   0.43260   0.15129   0.00000  Uiso   1.00
H315   H     0.06296   0.44313   0.13513   0.00000  Uiso   1.00
C316   C     0.07633   0.37883   0.14507   0.00000  Uiso   1.00
H317   H     0.03794   0.36901   0.15267   0.00000  Uiso   1.00
H318   H     0.09568   0.37355   0.10261   0.00000  Uiso   1.00
H319   H     0.09376   0.35966   0.16833   0.00000  Uiso   1.00
N320   N     0.29672   0.43455   0.20115   0.00000  Uiso   1.00
H321   H     0.31479   0.43405   0.16089   0.00000  Uiso   1.00
H322   H     0.30315   0.40671   0.21701   0.00000  Uiso   1.00
N323   N     0.07013   0.51753   0.07375   0.00000  Uiso   1.00
H324   H     0.04563   0.49400   0.08978   0.00000  Uiso   1.00
H325   H     0.04976   0.54481   0.07792   0.00000  Uiso   1.00
N326   N     0.19149   0.58356   0.38156   0.00000  Uiso   1.00
H327   H     0.16124   0.60224   0.39949   0.00000  Uiso   1.00
H328   H     0.18672   0.57129   0.34710   0.00000  Uiso   1.00
C329   C     0.50015   0.57906   0.24968   0.00000  Uiso   1.00
C330   C     0.47365   0.51693   0.49220   0.00000  Uiso   1.00
C331   C     0.48644   0.52517   0.43789   0.00000  Uiso   1.00
C332   C     0.51059   0.51973   0.01757   0.00000  Uiso   1.00
C333   C     0.55577   0.53819   0.49158   0.00000  Uiso   1.00
C334   C     0.56242   0.55567   0.44267   0.00000  Uiso   1.00
C335   C     0.52669   0.55166   0.41719   0.00000  Uiso   1.00
C336   C     0.50475   0.50298   0.06693   0.00000  Uiso   1.00
C337   C     0.58435   0.52706   0.06718   0.00000  Uiso   1.00
C338   C     0.45655   0.50899   0.40809   0.00000  Uiso   1.00
C339   C     0.53195   0.64389   0.20800   0.00000  Uiso   1.00
C340   C     0.47374   0.50303   0.35021   0.00000  Uiso   1.00
C341   C     0.53159   0.35369   0.20748   0.00000  Uiso   1.00
C342   C     0.49927   0.37607   0.24952   0.00000  Uiso   1.00
C343   C     0.46628   0.35523   0.29102   0.00000  Uiso   1.00
C344   C     0.46673   0.64551   0.29046   0.00000  Uiso   1.00
C345   C     0.49992   0.62352   0.24954   0.00000  Uiso   1.00
C346   C     0.63674   0.53294   0.27151   0.00000  Uiso   1.00
C347   C     0.35160   0.53081   0.27599   0.00000  Uiso   1.00
C348   C     0.36430   0.46778   0.22637   0.00000  Uiso   1.00
C349   C     0.64809   0.46813   0.22622   0.00000  Uiso   1.00
C350   C     0.49983   0.42085   0.24978   0.00000  Uiso   1.00
C351   C     0.52601   0.50098   0.14981   0.00000  Uiso   1.00
C352   C     0.59244   0.54136   0.01638   0.00000  Uiso   1.00
C353   C     0.53994   0.50856   0.09313   0.00000  Uiso   1.00
C354   C     0.40950   0.49546   0.43467   0.00000  Uiso   1.00
C355   C     0.39259   0.49766   0.48915   0.00000  Uiso   1.00
C356   C     0.42399   0.50846   0.01856   0.00000  Uiso   1.00
Cu357  Cu    0.45311   0.49999   0.25000   0.00000  Uiso   1.00
Cu358  Cu    0.54689   0.50001   0.25000   0.00000  Uiso   1.00
H359   H     0.61199   0.53189   0.08680   0.00000  Uiso   1.00
H360   H     0.44181   0.62916   0.32234   0.00000  Uiso   1.00
H361   H     0.59401   0.57475   0.42574   0.00000  Uiso   1.00
H362   H     0.62677   0.55607   0.49711   0.00000  Uiso   1.00
H363   H     0.47280   0.48532   0.08573   0.00000  Uiso   1.00
H364   H     0.38511   0.48408   0.41331   0.00000  Uiso   1.00
H365   H     0.35490   0.49054   0.00873   0.00000  Uiso   1.00
H366   H     0.55663   0.62630   0.17575   0.00000  Uiso   1.00
N367   N     0.38265   0.49999   0.24999   0.00000  Uiso   1.00
N368   N     0.61735   0.50002   0.25000   0.00000  Uiso   1.00
O369   O     0.46042   0.56011   0.25001   0.00000  Uiso   1.00
O370   O     0.53961   0.56012   0.25001   0.00000  Uiso   1.00
O371   O     0.44108   0.49998   0.32549   0.00000  Uiso   1.00
O372   O     0.52027   0.49999   0.32549   0.00000  Uiso   1.00
O373   O     0.46039   0.43988   0.25000   0.00000  Uiso   1.00
O374   O     0.53958   0.43989   0.25000   0.00000  Uiso   1.00
O375   O     0.47973   0.50001   0.17451   0.00000  Uiso   1.00
O376   O     0.55892   0.50002   0.17451   0.00000  Uiso   1.00
N377   N     0.56267   0.37465   0.16349   0.00000  Uiso   1.00
H378   H     0.59827   0.36456   0.15793   0.00000  Uiso   1.00
H379   H     0.55294   0.36523   0.13008   0.00000  Uiso   1.00
N380   N     0.43295   0.37702   0.33458   0.00000  Uiso   1.00
H381   H     0.45255   0.39777   0.35146   0.00000  Uiso   1.00
H382   H     0.40887   0.39393   0.32062   0.00000  Uiso   1.00
O383   O     0.60896   0.56793   0.29071   0.00000  Uiso   1.00
C384   C     0.62788   0.60185   0.25802   0.00000  Uiso   1.00
H385   H     0.61650   0.59951   0.22173   0.00000  Uiso   1.00
H386   H     0.33495   0.60365   0.24530   0.00000  Uiso   1.00
C387   C     0.60885   0.64239   0.28773   0.00000  Uiso   1.00
H388   H     0.62316   0.64669   0.32189   0.00000  Uiso   1.00
H389   H     0.62076   0.33554   0.26133   0.00000  Uiso   1.00
H390   H     0.56862   0.64211   0.30227   0.00000  Uiso   1.00
N391   N     0.36721   0.55949   0.31021   0.00000  Uiso   1.00
H392   H     0.36906   0.54284   0.34246   0.00000  Uiso   1.00
H393   H     0.34130   0.58242   0.32654   0.00000  Uiso   1.00
O394   O     0.38940   0.43051   0.21469   0.00000  Uiso   1.00
C395   C     0.41222   0.42459   0.16018   0.00000  Uiso   1.00
H396   H     0.45115   0.43260   0.15129   0.00000  Uiso   1.00
H397   H     0.39630   0.44313   0.13513   0.00000  Uiso   1.00
C398   C     0.40966   0.37883   0.14507   0.00000  Uiso   1.00
H399   H     0.37128   0.36901   0.15267   0.00000  Uiso   1.00
H400   H     0.42902   0.37355   0.10261   0.00000  Uiso   1.00
H401   H     0.42709   0.35966   0.16833   0.00000  Uiso   1.00
N402   N     0.63005   0.43455   0.20115   0.00000  Uiso   1.00
H403   H     0.64812   0.43405   0.16089   0.00000  Uiso   1.00
H404   H     0.63648   0.40671   0.21701   0.00000  Uiso   1.00
N405   N     0.40346   0.51753   0.07375   0.00000  Uiso   1.00
H406   H     0.37896   0.49400   0.08978   0.00000  Uiso   1.00
H407   H     0.38309   0.54481   0.07792   0.00000  Uiso   1.00
N408   N     0.52483   0.58356   0.38156   0.00000  Uiso   1.00
H409   H     0.49457   0.60224   0.39949   0.00000  Uiso   1.00
H410   H     0.52005   0.57129   0.34710   0.00000  Uiso   1.00
C411   C     0.83349   0.57906   0.24968   0.00000  Uiso   1.00
C412   C     0.80698   0.51693   0.49220   0.00000  Uiso   1.00
C413   C     0.81978   0.52517   0.43789   0.00000  Uiso   1.00
C414   C     0.84393   0.51973   0.01757   0.00000  Uiso   1.00
C415   C     0.88910   0.53819   0.49158   0.00000  Uiso   1.00
C416   C     0.89575   0.55567   0.44267   0.00000  Uiso   1.00
C417   C     0.86002   0.55166   0.41719   0.00000  Uiso   1.00
C418   C     0.83808   0.50298   0.06693   0.00000  Uiso   1.00
C419   C     0.91769   0.52706   0.06718   0.00000  Uiso   1.00
C420   C     0.78988   0.50899   0.40809   0.00000  Uiso   1.00
C421   C     0.86528   0.64389   0.20800   0.00000  Uiso   1.00
C422   C     0.80707   0.50303   0.35021   0.00000  Uiso   1.00
C423   C     0.86492   0.35369   0.20748   0.00000  Uiso   1.00
C424   C     0.83260   0.37607   0.24952   0.00000  Uiso   1.00
C425   C     0.79961   0.35523   0.29102   0.00000  Uiso   1.00
C426   C     0.80006   0.64551   0.29046   0.00000  Uiso   1.00
C427   C     0.83325   0.62352   0.24954   0.00000  Uiso   1.00
C428   C     0.97007   0.53294   0.27151   0.00000  Uiso   1.00
C429   C     0.68494   0.53081   0.27599   0.00000  Uiso   1.00
C430   C     0.69764   0.46778   0.22637   0.00000  Uiso   1.00
C431   C     0.98143   0.46813   0.22622   0.00000  Uiso   1.00
C432   C     0.83316   0.42085   0.24978   0.00000  Uiso   1.00
C433   C     0.85935   0.50098   0.14981   0.00000  Uiso   1.00
C434   C     0.92577   0.54136   0.01638   0.00000  Uiso   1.00
C435   C     0.87327   0.50856   0.09313   0.00000  Uiso   1.00
C436   C     0.74284   0.49546   0.43467   0.00000  Uiso   1.00
C437   C     0.72592   0.49766   0.48915   0.00000  Uiso   1.00
C438   C     0.75732   0.50846   0.01856   0.00000  Uiso   1.00
Cu439  Cu    0.78645   0.49999   0.25000   0.00000  Uiso   1.00
Cu440  Cu    0.88022   0.50001   0.25000   0.00000  Uiso   1.00
H441   H     0.94532   0.53189   0.08680   0.00000  Uiso   1.00
H442   H     0.77514   0.62916   0.32234   0.00000  Uiso   1.00
H443   H     0.92734   0.57475   0.42574   0.00000  Uiso   1.00
H444   H     0.96010   0.55607   0.49711   0.00000  Uiso   1.00
H445   H     0.80614   0.48532   0.08573   0.00000  Uiso   1.00
H446   H     0.71845   0.48408   0.41331   0.00000  Uiso   1.00
H447   H     0.68823   0.49054   0.00873   0.00000  Uiso   1.00
H448   H     0.88997   0.62630   0.17575   0.00000  Uiso   1.00
N449   N     0.71598   0.49999   0.24999   0.00000  Uiso   1.00
N450   N     0.95069   0.50002   0.25000   0.00000  Uiso   1.00
O451   O     0.79375   0.56011   0.25001   0.00000  Uiso   1.00
O452   O     0.87294   0.56012   0.25001   0.00000  Uiso   1.00
O453   O     0.77441   0.49998   0.32549   0.00000  Uiso   1.00
O454   O     0.85360   0.49999   0.32549   0.00000  Uiso   1.00
O455   O     0.79373   0.43988   0.25000   0.00000  Uiso   1.00
O456   O     0.87292   0.43989   0.25000   0.00000  Uiso   1.00
O457   O     0.81306   0.50001   0.17451   0.00000  Uiso   1.00
O458   O     0.89225   0.50002   0.17451   0.00000  Uiso   1.00
N459   N     0.89601   0.37465   0.16349   0.00000  Uiso   1.00
H460   H     0.93160   0.36456   0.15793   0.00000  Uiso   1.00
H461   H     0.88627   0.36523   0.13008   0.00000  Uiso   1.00
N462   N     0.76629   0.37702   0.33458   0.00000  Uiso   1.00
H463   H     0.78588   0.39777   0.35146   0.00000  Uiso   1.00
H464   H     0.74220   0.39393   0.32062   0.00000  Uiso   1.00
O465   O     0.94230   0.56793   0.29071   0.00000  Uiso   1.00
C466   C     0.96121   0.60185   0.25802   0.00000  Uiso   1.00
H467   H     0.94983   0.59951   0.22173   0.00000  Uiso   1.00
H468   H     0.66828   0.60365   0.24530   0.00000  Uiso   1.00
C469   C     0.94218   0.64239   0.28773   0.00000  Uiso   1.00
H470   H     0.95650   0.64669   0.32189   0.00000  Uiso   1.00
H471   H     0.95409   0.33554   0.26133   0.00000  Uiso   1.00
H472   H     0.90196   0.64211   0.30227   0.00000  Uiso   1.00
N473   N     0.70054   0.55949   0.31021   0.00000  Uiso   1.00
H474   H     0.70239   0.54284   0.34246   0.00000  Uiso   1.00
H475   H     0.67464   0.58242   0.32654   0.00000  Uiso   1.00
O476   O     0.72274   0.43051   0.21469   0.00000  Uiso   1.00
C477   C     0.74556   0.42459   0.16018   0.00000  Uiso   1.00
H478   H     0.78448   0.43260   0.15129   0.00000  Uiso   1.00
H479   H     0.72963   0.44313   0.13513   0.00000  Uiso   1.00
C480   C     0.74300   0.37883   0.14507   0.00000  Uiso   1.00
H481   H     0.70461   0.36901   0.15267   0.00000  Uiso   1.00
H482   H     0.76235   0.37355   0.10261   0.00000  Uiso   1.00
H483   H     0.76043   0.35966   0.16833   0.00000  Uiso   1.00
N484   N     0.96339   0.43455   0.20115   0.00000  Uiso   1.00
H485   H     0.98145   0.43405   0.16089   0.00000  Uiso   1.00
H486   H     0.96981   0.40671   0.21701   0.00000  Uiso   1.00
N487   N     0.73680   0.51753   0.07375   0.00000  Uiso   1.00
H488   H     0.71229   0.49400   0.08978   0.00000  Uiso   1.00
H489   H     0.71642   0.54481   0.07792   0.00000  Uiso   1.00
N490   N     0.85816   0.58356   0.38156   0.00000  Uiso   1.00
H491   H     0.82790   0.60224   0.39949   0.00000  Uiso   1.00
H492   H     0.85339   0.57129   0.34710   0.00000  Uiso   1.00
C493   C     0.16682   0.91240   0.24968   0.00000  Uiso   1.00
C494   C     0.14031   0.85026   0.49220   0.00000  Uiso   1.00
C495   C     0.15311   0.85850   0.43789   0.00000  Uiso   1.00
C496   C     0.17726   0.85307   0.01757   0.00000  Uiso   1.00
C497   C     0.22244   0.87152   0.49158   0.00000  Uiso   1.00
C498   C     0.22908   0.88900   0.44267   0.00000  Uiso   1.00
C499   C     0.19335   0.88499   0.41719   0.00000  Uiso   1.00
C500   C     0.17142   0.83631   0.06693   0.00000  Uiso   1.00
C501   C     0.25102   0.86039   0.06718   0.00000  Uiso   1.00
C502   C     0.12322   0.84232   0.40809   0.00000  Uiso   1.00
C503   C     0.19862   0.97722   0.20800   0.00000  Uiso   1.00
C504   C     0.14041   0.83636   0.35021   0.00000  Uiso   1.00
C505   C     0.19825   0.68702   0.20748   0.00000  Uiso   1.00
C506   C     0.16593   0.70940   0.24952   0.00000  Uiso   1.00
C507   C     0.13294   0.68856   0.29102   0.00000  Uiso   1.00
C508   C     0.13339   0.97884   0.29046   0.00000  Uiso   1.00
C509   C     0.16659   0.95686   0.24954   0.00000  Uiso   1.00
C510   C     0.30341   0.86628   0.27151   0.00000  Uiso   1.00
C511   C     0.01827   0.86414   0.27599   0.00000  Uiso   1.00
C512   C     0.03097   0.80111   0.22637   0.00000  Uiso   1.00
C513   C     0.31476   0.80146   0.22622   0.00000  Uiso   1.00
C514   C     0.16649   0.75418   0.24978   0.00000  Uiso   1.00
C515   C     0.19268   0.83431   0.14981   0.00000  Uiso   1.00
C516   C     0.25910   0.87469   0.01638   0.00000  Uiso   1.00
C517   C     0.20660   0.84189   0.09313   0.00000  Uiso   1.00
C518   C     0.07617   0.82879   0.43467   0.00000  Uiso   1.00
C519   C     0.05925   0.83099   0.48915   0.00000  Uiso   1.00
C520   C     0.09066   0.84179   0.01856   0.00000  Uiso   1.00
Cu521  Cu    0.11978   0.83333   0.25000   0.00000  Uiso   1.00
Cu522  Cu    0.21355   0.83334   0.25000   0.00000  Uiso   1.00
H523   H     0.27865   0.86523   0.08680   0.00000  Uiso   1.00
H524   H     0.10848   0.96250   0.32234   0.00000  Uiso   1.00
H525   H     0.26067   0.90808   0.42574   0.00000  Uiso   1.00
H526   H     0.29344   0.88940   0.49711   0.00000  Uiso   1.00
H527   H     0.13947   0.81865   0.08573   0.00000  Uiso   1.00
H528   H     0.05178   0.81741   0.41331   0.00000  Uiso   1.00
H529   H     0.02156   0.82387   0.00873   0.00000  Uiso   1.00
H530   H     0.22330   0.95963   0.17575   0.00000  Uiso   1.00
N531   N     0.04931   0.83332   0.24999   0.00000  Uiso   1.00
N532   N     0.28402   0.83335   0.25000   0.00000  Uiso   1.00
O533   O     0.12708   0.89345   0.25001   0.00000  Uiso   1.00
O534   O     0.20627   0.89346   0.25001   0.00000  Uiso   1.00
O535   O     0.10775   0.83332   0.32549   0.00000  Uiso   1.00
O536   O     0.18694   0.83333   0.32549   0.00000  Uiso   1.00
O537   O     0.12706   0.77321   0.25000   0.00000  Uiso   1.00
O538   O     0.20625   0.77322   0.25000   0.00000  Uiso   1.00
O539   O     0.14640   0.83334   0.17451   0.00000  Uiso   1.00
O540   O     0.22559   0.83335   0.17451   0.00000  Uiso   1.00
N541   N     0.22934   0.70799   0.16349   0.00000  Uiso   1.00
H542   H     0.26493   0.69789   0.15793   0.00000  Uiso   1.00
H543   H     0.21961   0.69857   0.13008   0.00000  Uiso   1.00
N544   N     0.09962   0.71035   0.33458   0.00000  Uiso   1.00
H545   H     0.11921   0.73111   0.35146   0.00000  Uiso   1.00
H546   H     0.07554   0.72727   0.32062   0.00000  Uiso   1.00
O547   O     0.27563   0.90127   0.29071   0.00000  Uiso   1.00
C548   C     0.29455   0.93518   0.25802   0.00000  Uiso   1.00
H549   H     0.28317   0.93284   0.22173   0.00000  Uiso   1.00
H550   H     0.00161   0.93699   0.24530   0.00000  Uiso   1.00
C551   C     0.27551   0.97572   0.28773   0.00000  Uiso   1.00
H552   H     0.28983   0.98002   0.32189   0.00000  Uiso   1.00
H553   H     0.28742   0.66887   0.26133   0.00000  Uiso   1.00
H554   H     0.23529   0.97544   0.30227   0.00000  Uiso   1.00
N555   N     0.03388   0.89283   0.31021   0.00000  Uiso   1.00
H556   H     0.03572   0.87618   0.34246   0.00000  Uiso   1.00
H557   H     0.00797   0.91575   0.32654   0.00000  Uiso   1.00
O558   O     0.05607   0.76385   0.21469   0.00000  Uiso   1.00
C559   C     0.07889   0.75792   0.16018   0.00000  Uiso   1.00
H560   H     0.11781   0.76593   0.15129   0.00000  Uiso   1.00
H561   H     0.06296   0.77646   0.13513   0.00000  Uiso   1.00
C562   C     0.07633   0.71216   0.14507   0.00000  Uiso   1.00
H563   H     0.03794   0.70234   0.15267   0.00000  Uiso   1.00
H564   H     0.09568   0.70688   0.10261   0.00000  Uiso   1.00
H565   H     0.09376   0.69299   0.16833   0.00000  Uiso   1.00
N566   N     0.29672   0.76789   0.20115   0.00000  Uiso   1.00
H567   H     0.31479   0.76738   0.16089   0.00000  Uiso   1.00
H568   H     0.30315   0.74005   0.21701   0.00000  Uiso   1.00
N569   N     0.07013   0.85086   0.07375   0.00000  Uiso   1.00
H570   H     0.04563   0.82733   0.08978   0.00000  Uiso   1.00
H571   H     0.04976   0.87815   0.07792   0.00000  Uiso   1.00
N572   N     0.19149   0.91689   0.38156   0.00000  Uiso   1.00
H573   H     0.16124   0.93558   0.39949   0.00000  Uiso   1.00
H574   H     0.18672   0.90462   0.34710   0.00000  Uiso   1.00
C575   C     0.50015   0.91240   0.24968   0.00000  Uiso   1.00
C576   C     0.47365   0.85026   0.49220   0.00000  Uiso   1.00
C577   C     0.48644   0.85850   0.43789   0.00000  Uiso   1.00
C578   C     0.51059   0.85307   0.01757   0.00000  Uiso   1.00
C579   C     0.55577   0.87152   0.49158   0.00000  Uiso   1.00
C580   C     0.56242   0.88900   0.44267   0.00000  Uiso   1.00
C581   C     0.52669   0.88499   0.41719   0.00000  Uiso   1.00
C582   C     0.50475   0.83631   0.06693   0.00000  Uiso   1.00
C583   C     0.58435   0.86039   0.06718   0.00000  Uiso   1.00
C584   C     0.45655   0.84232   0.40809   0.00000  Uiso   1.00
C585   C     0.53195   0.97722   0.20800   0.00000  Uiso   1.00
C586   C     0.47374   0.83636   0.35021   0.00000  Uiso   1.00
C587   C     0.53159   0.68702   0.20748   0.00000  Uiso   1.00
C588   C     0.49927   0.70940   0.24952   0.00000  Uiso   1.00
C589   C     0.46628   0.68856   0.29102   0.00000  Uiso   1.00
C590   C     0.46673   0.97884   0.29046   0.00000  Uiso   1.00
C591   C     0.49992   0.95686   0.24954   0.00000  Uiso   1.00
C592   C     0.63674   0.86628   0.27151   0.00000  Uiso   1.00
C593   C     0.35160   0.86414   0.27599   0.00000  Uiso   1.00
C594   C     0.36430   0.80111   0.22637   0.00000  Uiso   1.00
C595   C     0.64809   0.80146   0.22622   0.00000  Uiso   1.00
C596   C     0.49983   0.75418   0.24978   0.00000  Uiso   1.00
C597   C     0.52601   0.83431   0.14981   0.00000  Uiso   1.00
C598   C     0.59244   0.87469   0.01638   0.00000  Uiso   1.00
C599   C     0.53994   0.84189   0.09313   0.00000  Uiso   1.00
C600   C     0.40950   0.82879   0.43467   0.00000  Uiso   1.00
C601   C     0.39259   0.83099   0.48915   0.00000  Uiso   1.00
C602   C     0.42399   0.84179   0.01856   0.00000  Uiso   1.00
Cu603  Cu    0.45311   0.83333   0.25000   0.00000  Uiso   1.00
Cu604  Cu    0.54689   0.83334   0.25000   0.00000  Uiso   1.00
H605   H     0.61199   0.86523   0.08680   0.00000  Uiso   1.00
H606   H     0.44181   0.96250   0.32234   0.00000  Uiso   1.00
H607   H     0.59401   0.90808   0.42574   0.00000  Uiso   1.00
H608   H     0.62677   0.88940   0.49711   0.00000  Uiso   1.00
H609   H     0.47280   0.81865   0.08573   0.00000  Uiso   1.00
H610   H     0.38511   0.81741   0.41331   0.00000  Uiso   1.00
H611   H     0.35490   0.82387   0.00873   0.00000  Uiso   1.00
H612   H     0.55663   0.95963   0.17575   0.00000  Uiso   1.00
N613   N     0.38265   0.83332   0.24999   0.00000  Uiso   1.00
N614   N     0.61735   0.83335   0.25000   0.00000  Uiso   1.00
O615   O     0.46042   0.89345   0.25001   0.00000  Uiso   1.00
O616   O     0.53961   0.89346   0.25001   0.00000  Uiso   1.00
O617   O     0.44108   0.83332   0.32549   0.00000  Uiso   1.00
O618   O     0.52027   0.83333   0.32549   0.00000  Uiso   1.00
O619   O     0.46039   0.77321   0.25000   0.00000  Uiso   1.00
O620   O     0.53958   0.77322   0.25000   0.00000  Uiso   1.00
O621   O     0.47973   0.83334   0.17451   0.00000  Uiso   1.00
O622   O     0.55892   0.83335   0.17451   0.00000  Uiso   1.00
N623   N     0.56267   0.70799   0.16349   0.00000  Uiso   1.00
H624   H     0.59827   0.69789   0.15793   0.00000  Uiso   1.00
H625   H     0.55294   0.69857   0.13008   0.00000  Uiso   1.00
N626   N     0.43295   0.71035   0.33458   0.00000  Uiso   1.00
H627   H     0.45255   0.73111   0.35146   0.00000  Uiso   1.00
H628   H     0.40887   0.72727   0.32062   0.00000  Uiso   1.00
O629   O     0.60896   0.90127   0.29071   0.00000  Uiso   1.00
C630   C     0.62788   0.93518   0.25802   0.00000  Uiso   1.00
H631   H     0.61650   0.93284   0.22173   0.00000  Uiso   1.00
H632   H     0.33495   0.93699   0.24530   0.00000  Uiso   1.00
C633   C     0.60885   0.97572   0.28773   0.00000  Uiso   1.00
H634   H     0.62316   0.98002   0.32189   0.00000  Uiso   1.00
H635   H     0.62076   0.66887   0.26133   0.00000  Uiso   1.00
H636   H     0.56862   0.97544   0.30227   0.00000  Uiso   1.00
N637   N     0.36721   0.89283   0.31021   0.00000  Uiso   1.00
H638   H     0.36906   0.87618   0.34246   0.00000  Uiso   1.00
H639   H     0.34130   0.91575   0.32654   0.00000  Uiso   1.00
O640   O     0.38940   0.76385   0.21469   0.00000  Uiso   1.00
C641   C     0.41222   0.75792   0.16018   0.00000  Uiso   1.00
H642   H     0.45115   0.76593   0.15129   0.00000  Uiso   1.00
H643   H     0.39630   0.77646   0.13513   0.00000  Uiso   1.00
C644   C     0.40966   0.71216   0.14507   0.00000  Uiso   1.00
H645   H     0.37128   0.70234   0.15267   0.00000  Uiso   1.00
H646   H     0.42902   0.70688   0.10261   0.00000  Uiso   1.00
H647   H     0.42709   0.69299   0.16833   0.00000  Uiso   1.00
N648   N     0.63005   0.76789   0.20115   0.00000  Uiso   1.00
H649   H     0.64812   0.76738   0.16089   0.00000  Uiso   1.00
H650   H     0.63648   0.74005   0.21701   0.00000  Uiso   1.00
N651   N     0.40346   0.85086   0.07375   0.00000  Uiso   1.00
H652   H     0.37896   0.82733   0.08978   0.00000  Uiso   1.00
H653   H     0.38309   0.87815   0.07792   0.00000  Uiso   1.00
N654   N     0.52483   0.91689   0.38156   0.00000  Uiso   1.00
H655   H     0.49457   0.93558   0.39949   0.00000  Uiso   1.00
H656   H     0.52005   0.90462   0.34710   0.00000  Uiso   1.00
C657   C     0.83349   0.91240   0.24968   0.00000  Uiso   1.00
C658   C     0.80698   0.85026   0.49220   0.00000  Uiso   1.00
C659   C     0.81978   0.85850   0.43789   0.00000  Uiso   1.00
C660   C     0.84393   0.85307   0.01757   0.00000  Uiso   1.00
C661   C     0.88910   0.87152   0.49158   0.00000  Uiso   1.00
C662   C     0.89575   0.88900   0.44267   0.00000  Uiso   1.00
C663   C     0.86002   0.88499   0.41719   0.00000  Uiso   1.00
C664   C     0.83808   0.83631   0.06693   0.00000  Uiso   1.00
C665   C     0.91769   0.86039   0.06718   0.00000  Uiso   1.00
C666   C     0.78988   0.84232   0.40809   0.00000  Uiso   1.00
C667   C     0.86528   0.97722   0.20800   0.00000  Uiso   1.00
C668   C     0.80707   0.83636   0.35021   0.00000  Uiso   1.00
C669   C     0.86492   0.68702   0.20748   0.00000  Uiso   1.00
C670   C     0.83260   0.70940   0.24952   0.00000  Uiso   1.00
C671   C     0.79961   0.68856   0.29102   0.00000  Uiso   1.00
C672   C     0.80006   0.97884   0.29046   0.00000  Uiso   1.00
C673   C     0.83325   0.95686   0.24954   0.00000  Uiso   1.00
C674   C     0.97007   0.86628   0.27151   0.00000  Uiso   1.00
C675   C     0.68494   0.86414   0.27599   0.00000  Uiso   1.00
C676   C     0.69764   0.80111   0.22637   0.00000  Uiso   1.00
C677   C     0.98143   0.80146   0.22622   0.00000  Uiso   1.00
C678   C     0.83316   0.75418   0.24978   0.00000  Uiso   1.00
C679   C     0.85935   0.83431   0.14981   0.00000  Uiso   1.00
C680   C     0.92577   0.87469   0.01638   0.00000  Uiso   1.00
C681   C     0.87327   0.84189   0.09313   0.00000  Uiso   1.00
C682   C     0.74284   0.82879   0.43467   0.00000  Uiso   1.00
C683   C     0.72592   0.83099   0.48915   0.00000  Uiso   1.00
C684   C     0.75732   0.84179   0.01856   0.00000  Uiso   1.00
Cu685  Cu    0.78645   0.83333   0.25000   0.00000  Uiso   1.00
Cu686  Cu    0.88022   0.83334   0.25000   0.00000  Uiso   1.00
H687   H     0.94532   0.86523   0.08680   0.00000  Uiso   1.00
H688   H     0.77514   0.96250   0.32234   0.00000  Uiso   1.00
H689   H     0.92734   0.90808   0.42574   0.00000  Uiso   1.00
H690   H     0.96010   0.88940   0.49711   0.00000  Uiso   1.00
H691   H     0.80614   0.81865   0.08573   0.00000  Uiso   1.00
H692   H     0.71845   0.81741   0.41331   0.00000  Uiso   1.00
H693   H     0.68823   0.82387   0.00873   0.00000  Uiso   1.00
H694   H     0.88997   0.95963   0.17575   0.00000  Uiso   1.00
N695   N     0.71598   0.83332   0.24999   0.00000  Uiso   1.00
N696   N     0.95069   0.83335   0.25000   0.00000  Uiso   1.00
O697   O     0.79375   0.89345   0.25001   0.00000  Uiso   1.00
O698   O     0.87294   0.89346   0.25001   0.00000  Uiso   1.00
O699   O     0.77441   0.83332   0.32549   0.00000  Uiso   1.00
O700   O     0.85360   0.83333   0.32549   0.00000  Uiso   1.00
O701   O     0.79373   0.77321   0.25000   0.00000  Uiso   1.00
O702   O     0.87292   0.77322   0.25000   0.00000  Uiso   1.00
O703   O     0.81306   0.83334   0.17451   0.00000  Uiso   1.00
O704   O     0.89225   0.83335   0.17451   0.00000  Uiso   1.00
N705   N     0.89601   0.70799   0.16349   0.00000  Uiso   1.00
H706   H     0.93160   0.69789   0.15793   0.00000  Uiso   1.00
H707   H     0.88627   0.69857   0.13008   0.00000  Uiso   1.00
N708   N     0.76629   0.71035   0.33458   0.00000  Uiso   1.00
H709   H     0.78588   0.73111   0.35146   0.00000  Uiso   1.00
H710   H     0.74220   0.72727   0.32062   0.00000  Uiso   1.00
O711   O     0.94230   0.90127   0.29071   0.00000  Uiso   1.00
C712   C     0.96121   0.93518   0.25802   0.00000  Uiso   1.00
H713   H     0.94983   0.93284   0.22173   0.00000  Uiso   1.00
H714   H     0.66828   0.93699   0.24530   0.00000  Uiso   1.00
C715   C     0.94218   0.97572   0.28773   0.00000  Uiso   1.00
H716   H     0.95650   0.98002   0.32189   0.00000  Uiso   1.00
H717   H     0.95409   0.66887   0.26133   0.00000  Uiso   1.00
H718   H     0.90196   0.97544   0.30227   0.00000  Uiso   1.00
N719   N     0.70054   0.89283   0.31021   0.00000  Uiso   1.00
H720   H     0.70239   0.87618   0.34246   0.00000  Uiso   1.00
H721   H     0.67464   0.91575   0.32654   0.00000  Uiso   1.00
O722   O     0.72274   0.76385   0.21469   0.00000  Uiso   1.00
C723   C     0.74556   0.75792   0.16018   0.00000  Uiso   1.00
H724   H     0.78448   0.76593   0.15129   0.00000  Uiso   1.00
H725   H     0.72963   0.77646   0.13513   0.00000  Uiso   1.00
C726   C     0.74300   0.71216   0.14507   0.00000  Uiso   1.00
H727   H     0.70461   0.70234   0.15267   0.00000  Uiso   1.00
H728   H     0.76235   0.70688   0.10261   0.00000  Uiso   1.00
H729   H     0.76043   0.69299   0.16833   0.00000  Uiso   1.00
N730   N     0.96339   0.76789   0.20115   0.00000  Uiso   1.00
H731   H     0.98145   0.76738   0.16089   0.00000  Uiso   1.00
H732   H     0.96981   0.74005   0.21701   0.00000  Uiso   1.00
N733   N     0.73680   0.85086   0.07375   0.00000  Uiso   1.00
H734   H     0.71229   0.82733   0.08978   0.00000  Uiso   1.00
H735   H     0.71642   0.87815   0.07792   0.00000  Uiso   1.00
N736   N     0.85816   0.91689   0.38156   0.00000  Uiso   1.00
H737   H     0.82790   0.93558   0.39949   0.00000  Uiso   1.00
H738   H     0.85339   0.90462   0.34710   0.00000  Uiso   1.00
C739   C     0.16682   0.24573   0.74968   0.00000  Uiso   1.00
C740   C     0.14031   0.18359   0.99220   0.00000  Uiso   1.00
C741   C     0.15311   0.19183   0.93789   0.00000  Uiso   1.00
C742   C     0.17726   0.18640   0.51757   0.00000  Uiso   1.00
C743   C     0.22244   0.20486   0.99158   0.00000  Uiso   1.00
C744   C     0.22908   0.22233   0.94267   0.00000  Uiso   1.00
C745   C     0.19335   0.21833   0.91719   0.00000  Uiso   1.00
C746   C     0.17142   0.16964   0.56693   0.00000  Uiso   1.00
C747   C     0.25102   0.19373   0.56718   0.00000  Uiso   1.00
C748   C     0.12322   0.17566   0.90809   0.00000  Uiso   1.00
C749   C     0.19862   0.31055   0.70800   0.00000  Uiso   1.00
C750   C     0.14041   0.16970   0.85021   0.00000  Uiso   1.00
C751   C     0.19825   0.02036   0.70748   0.00000  Uiso   1.00
C752   C     0.16593   0.04274   0.74952   0.00000  Uiso   1.00
C753   C     0.13294   0.02189   0.79102   0.00000  Uiso   1.00
C754   C     0.13339   0.31217   0.79046   0.00000  Uiso   1.00
C755   C     0.16659   0.29019   0.74954   0.00000  Uiso   1.00
C756   C     0.30341   0.19961   0.77151   0.00000  Uiso   1.00
C757   C     0.01827   0.19747   0.77599   0.00000  Uiso   1.00
C758   C     0.03097   0.13444   0.72637   0.00000  Uiso   1.00
C759   C     0.31476   0.13479   0.72622   0.00000  Uiso   1.00
C760   C     0.16649   0.08752   0.74978   0.00000  Uiso   1.00
C761   C     0.19268   0.16764   0.64981   0.00000  Uiso   1.00
C762   C     0.25910   0.20802   0.51638   0.00000  Uiso   1.00
C763   C     0.20660   0.17523   0.59313   0.00000  Uiso   1.00
C764   C     0.07617   0.16212   0.93467   0.00000  Uiso   1.00
C765   C     0.05925   0.16432   0.98915   0.00000  Uiso   1.00
C766   C     0.09066   0.17512   0.51856   0.00000  Uiso   1.00
Cu767  Cu    0.11978   0.16666   0.75000   0.00000  Uiso   1.00
Cu768  Cu    0.21355   0.16667   0.75000   0.00000  Uiso   1.00
H769   H     0.27865   0.19856   0.58680   0.00000  Uiso   1.00
H770   H     0.10848   0.29583   0.82234   0.00000  Uiso   1.00
H771   H     0.26067   0.24141   0.92574   0.00000  Uiso   1.00
H772   H     0.29344   0.22273   0.99711   0.00000  Uiso   1.00
H773   H     0.13947   0.15198   0.58573   0.00000  Uiso   1.00
H774   H     0.05178   0.15074   0.91331   0.00000  Uiso   1.00
H775   H     0.02156   0.15720   0.50873   0.00000  Uiso   1.00
H776   H     0.22330   0.29296   0.67575   0.00000  Uiso   1.00
N777   N     0.04931   0.16666   0.74999   0.00000  Uiso   1.00
N778   N     0.28402   0.16669   0.75000   0.00000  Uiso   1.00
O779   O     0.12708   0.22678   0.75001   0.00000  Uiso   1.00
O780   O     0.20627   0.22679   0.75001   0.00000  Uiso   1.00
O781   O     0.10775   0.16665   0.82549   0.00000  Uiso   1.00
O782   O     0.18694   0.16666   0.82549   0.00000  Uiso   1.00
O783   O     0.12706   0.10654   0.75000   0.00000  Uiso   1.00
O784   O     0.20625   0.10655   0.75000   0.00000  Uiso   1.00
O785   O     0.14640   0.16667   0.67451   0.00000  Uiso   1.00
O786   O     0.22559   0.16668   0.67451   0.00000  Uiso   1.00
N787   N     0.22934   0.04132   0.66349   0.00000  Uiso   1.00
H788   H     0.26493   0.03123   0.65793   0.00000  Uiso   1.00
H789   H     0.21961   0.03190   0.63008   0.00000  Uiso   1.00
N790   N     0.09962   0.04369   0.83458   0.00000  Uiso   1.00
H791   H     0.11921   0.06444   0.85146   0.00000  Uiso   1.00
H792   H     0.07554   0.06060   0.82062   0.00000  Uiso   1.00
O793   O     0.27563   0.23460   0.79071   0.00000  Uiso   1.00
C794   C     0.29455   0.26852   0.75802   0.00000  Uiso   1.00
H795   H     0.28317   0.26618   0.72173   0.00000  Uiso   1.00
H796   H     0.00161   0.27032   0.74530   0.00000  Uiso   1.00
C797   C     0.27551   0.30906   0.78773   0.00000  Uiso   1.00
H798   H     0.28983   0.31336   0.82189   0.00000  Uiso   1.00
H799   H     0.28742   0.00221   0.76133   0.00000  Uiso   1.00
H800   H     0.23529   0.30878   0.80227   0.00000  Uiso   1.00
N801   N     0.03388   0.22616   0.81021   0.00000  Uiso   1.00
H802   H     0.03572   0.20951   0.84246   0.00000  Uiso   1.00
H803   H     0.00797   0.24909   0.82654   0.00000  Uiso   1.00
O804   O     0.05607   0.09718   0.71469   0.00000  Uiso   1.00
C805   C     0.07889   0.09126   0.66018   0.00000  Uiso   1.00
H806   H     0.11781   0.09927   0.65129   0.00000  Uiso   1.00
H807   H     0.06296   0.10979   0.63513   0.00000  Uiso   1.00
C808   C     0.07633   0.04549   0.64507   0.00000  Uiso   1.00
H809   H     0.03794   0.03567   0.65267   0.00000  Uiso   1.00
H810   H     0.09568   0.04022   0.60261   0.00000  Uiso   1.00
H811   H     0.09376   0.02632   0.66833   0.00000  Uiso   1.00
N812   N     0.29672   0.10122   0.70115   0.00000  Uiso   1.00
H813   H     0.31479   0.10072   0.66089   0.00000  Uiso   1.00
H814   H     0.30315   0.07338   0.71701   0.00000  Uiso   1.00
N815   N     0.07013   0.18419   0.57375   0.00000  Uiso   1.00
H816   H     0.04563   0.16067   0.58978   0.00000  Uiso   1.00
H817   H     0.04976   0.21148   0.57792   0.00000  Uiso   1.00
N818   N     0.19149   0.25022   0.88156   0.00000  Uiso   1.00
H819   H     0.16124   0.26891   0.89949   0.00000  Uiso   1.00
H820   H     0.18672   0.23795   0.84710   0.00000  Uiso   1.00
C821   C     0.50015   0.24573   0.74968   0.00000  Uiso   1.00
C822   C     0.47365   0.18359   0.99220   0.00000  Uiso   1.00
C823   C     0.48644   0.19183   0.93789   0.00000  Uiso   1.00
C824   C     0.51059   0.18640   0.51757   0.00000  Uiso   1.00
C825   C     0.55577   0.20486   0.99158   0.00000  Uiso   1.00
C826   C     0.56242   0.22233   0.94267   0.00000  Uiso   1.00
C827   C     0.52669   0.21833   0.91719   0.00000  Uiso   1.00
C828   C     0.50475   0.16964   0.56693   0.00000  Uiso   1.00
C829   C     0.58435   0.19373   0.56718   0.00000  Uiso   1.00
C830   C     0.45655   0.17566   0.90809   0.00000  Uiso   1.00
C831   C     0.53195   0.31055   0.70800   0.00000  Uiso   1.00
C832   C     0.47374   0.16970   0.85021   0.00000  Uiso   1.00
C833   C     0.53159   0.02036   0.70748   0.00000  Uiso   1.00
C834   C     0.49927   0.04274   0.74952   0.00000  Uiso   1.00
C835   C     0.46628   0.02189   0.79102   0.00000  Uiso   1.00
C836   C     0.46673   0.31217   0.79046   0.00000  Uiso   1.00
C837   C     0.49992   0.29019   0.74954   0.00000  Uiso   1.00
C838   C     0.63674   0.19961   0.77151   0.00000  Uiso   1.00
C839   C     0.35160   0.19747   0.77599   0.00000  Uiso   1.00
C840   C     0.36430   0.13444   0.72637   0.00000  Uiso   1.00
C841   C     0.64809   0.13479   0.72622   0.00000  Uiso   1.00
C842   C     0.49983   0.08752   0.74978   0.00000  Uiso   1.00
C843   C     0.52601   0.16764   0.64981   0.00000  Uiso   1.00
C844   C     0.59244   0.20802   0.51638   0.00000  Uiso   1.00
C845   C     0.53994   0.17523   0.59313   0.00000  Uiso   1.00
C846   C     0.40950   0.16212   0.93467   0.00000  Uiso   1.00
C847   C     0.39259   0.16432   0.98915   0.00000  Uiso   1.00
C848   C     0.42399   0.17512   0.51856   0.00000  Uiso   1.00
Cu849  Cu    0.45311   0.16666   0.75000   0.00000  Uiso   1.00
Cu850  Cu    0.54689   0.16667   0.75000   0.00000  Uiso   1.00
H851   H     0.61199   0.19856   0.58680   0.00000  Uiso   1.00
H852   H     0.44181   0.29583   0.82234   0.00000  Uiso   1.00
H853   H     0.59401   0.24141   0.92574   0.00000  Uiso   1.00
H854   H     0.62677   0.22273   0.99711   0.00000  Uiso   1.00
H855   H     0.47280   0.15198   0.58573   0.00000  Uiso   1.00
H856   H     0.38511   0.15074   0.91331   0.00000  Uiso   1.00
H857   H     0.35490   0.15720   0.50873   0.00000  Uiso   1.00
H858   H     0.55663   0.29296   0.67575   0.00000  Uiso   1.00
N859   N     0.38265   0.16666   0.74999   0.00000  Uiso   1.00
N860   N     0.61735   0.16669   0.75000   0.00000  Uiso   1.00
O861   O     0.46042   0.22678   0.75001   0.00000  Uiso   1.00
O862   O     0.53961   0.22679   0.75001   0.00000  Uiso   1.00
O863   O     0.44108   0.16665   0.82549   0.00000  Uiso   1.00
O864   O     0.52027   0.16666   0.82549   0.00000  Uiso   1.00
O865   O     0.46039   0.10654   0.75000   0.00000  Uiso   1.00
O866   O     0.53958   0.10655   0.75000   0.00000  Uiso   1.00
O867   O     0.47973   0.16667   0.67451   0.00000  Uiso   1.00
O868   O     0.55892   0.16668   0.67451   0.00000  Uiso   1.00
N869   N     0.56267   0.04132   0.66349   0.00000  Uiso   1.00
H870   H     0.59827   0.03123   0.65793   0.00000  Uiso   1.00
H871   H     0.55294   0.03190   0.63008   0.00000  Uiso   1.00
N872   N     0.43295   0.04369   0.83458   0.00000  Uiso   1.00
H873   H     0.45255   0.06444   0.85146   0.00000  Uiso   1.00
H874   H     0.40887   0.06060   0.82062   0.00000  Uiso   1.00
O875   O     0.60896   0.23460   0.79071   0.00000  Uiso   1.00
C876   C     0.62788   0.26852   0.75802   0.00000  Uiso   1.00
H877   H     0.61650   0.26618   0.72173   0.00000  Uiso   1.00
H878   H     0.33495   0.27032   0.74530   0.00000  Uiso   1.00
C879   C     0.60885   0.30906   0.78773   0.00000  Uiso   1.00
H880   H     0.62316   0.31336   0.82189   0.00000  Uiso   1.00
H881   H     0.62076   0.00221   0.76133   0.00000  Uiso   1.00
H882   H     0.56862   0.30878   0.80227   0.00000  Uiso   1.00
N883   N     0.36721   0.22616   0.81021   0.00000  Uiso   1.00
H884   H     0.36906   0.20951   0.84246   0.00000  Uiso   1.00
H885   H     0.34130   0.24909   0.82654   0.00000  Uiso   1.00
O886   O     0.38940   0.09718   0.71469   0.00000  Uiso   1.00
C887   C     0.41222   0.09126   0.66018   0.00000  Uiso   1.00
H888   H     0.45115   0.09927   0.65129   0.00000  Uiso   1.00
H889   H     0.39630   0.10979   0.63513   0.00000  Uiso   1.00
C890   C     0.40966   0.04549   0.64507   0.00000  Uiso   1.00
H891   H     0.37128   0.03567   0.65267   0.00000  Uiso   1.00
H892   H     0.42902   0.04022   0.60261   0.00000  Uiso   1.00
H893   H     0.42709   0.02632   0.66833   0.00000  Uiso   1.00
N894   N     0.63005   0.10122   0.70115   0.00000  Uiso   1.00
H895   H     0.64812   0.10072   0.66089   0.00000  Uiso   1.00
H896   H     0.63648   0.07338   0.71701   0.00000  Uiso   1.00
N897   N     0.40346   0.18419   0.57375   0.00000  Uiso   1.00
H898   H     0.37896   0.16067   0.58978   0.00000  Uiso   1.00
H899   H     0.38309   0.21148   0.57792   0.00000  Uiso   1.00
N900   N     0.52483   0.25022   0.88156   0.00000  Uiso   1.00
H901   H     0.49457   0.26891   0.89949   0.00000  Uiso   1.00
H902   H     0.52005   0.23795   0.84710   0.00000  Uiso   1.00
C903   C     0.83349   0.24573   0.74968   0.00000  Uiso   1.00
C904   C     0.80698   0.18359   0.99220   0.00000  Uiso   1.00
C905   C     0.81978   0.19183   0.93789   0.00000  Uiso   1.00
C906   C     0.84393   0.18640   0.51757   0.00000  Uiso   1.00
C907   C     0.88910   0.20486   0.99158   0.00000  Uiso   1.00
C908   C     0.89575   0.22233   0.94267   0.00000  Uiso   1.00
C909   C     0.86002   0.21833   0.91719   0.00000  Uiso   1.00
C910   C     0.83808   0.16964   0.56693   0.00000  Uiso   1.00
C911   C     0.91769   0.19373   0.56718   0.00000  Uiso   1.00
C912   C     0.78988   0.17566   0.90809   0.00000  Uiso   1.00
C913   C     0.86528   0.31055   0.70800   0.00000  Uiso   1.00
C914   C     0.80707   0.16970   0.85021   0.00000  Uiso   1.00
C915   C     0.86492   0.02036   0.70748   0.00000  Uiso   1.00
C916   C     0.83260   0.04274   0.74952   0.00000  Uiso   1.00
C917   C     0.79961   0.02189   0.79102   0.00000  Uiso   1.00
C918   C     0.80006   0.31217   0.79046   0.00000  Uiso   1.00
C919   C     0.83325   0.29019   0.74954   0.00000  Uiso   1.00
C920   C     0.97007   0.19961   0.77151   0.00000  Uiso   1.00
C921   C     0.68494   0.19747   0.77599   0.00000  Uiso   1.00
C922   C     0.69764   0.13444   0.72637   0.00000  Uiso   1.00
C923   C     0.98143   0.13479   0.72622   0.00000  Uiso   1.00
C924   C     0.83316   0.08752   0.74978   0.00000  Uiso   1.00
C925   C     0.85935   0.16764   0.64981   0.00000  Uiso   1.00
C926   C     0.92577   0.20802   0.51638   0.00000  Uiso   1.00
C927   C     0.87327   0.17523   0.59313   0.00000  Uiso   1.00
C928   C     0.74284   0.16212   0.93467   0.00000  Uiso   1.00
C929   C     0.72592   0.16432   0.98915   0.00000  Uiso   1.00
C930   C     0.75732   0.17512   0.51856   0.00000  Uiso   1.00
Cu931  Cu    0.78645   0.16666   0.75000   0.00000  Uiso   1.00
Cu932  Cu    0.88022   0.16667   0.75000   0.00000  Uiso   1.00
H933   H     0.94532   0.19856   0.58680   0.00000  Uiso   1.00
H934   H     0.77514   0.29583   0.82234   0.00000  Uiso   1.00
H935   H     0.92734   0.24141   0.92574   0.00000  Uiso   1.00
H936   H     0.96010   0.22273   0.99711   0.00000  Uiso   1.00
H937   H     0.80614   0.15198   0.58573   0.00000  Uiso   1.00
H938   H     0.71845   0.15074   0.91331   0.00000  Uiso   1.00
H939   H     0.68823   0.15720   0.50873   0.00000  Uiso   1.00
H940   H     0.88997   0.29296   0.67575   0.00000  Uiso   1.00
N941   N     0.71598   0.16666   0.74999   0.00000  Uiso   1.00
N942   N     0.95069   0.16669   0.75000   0.00000  Uiso   1.00
O943   O     0.79375   0.22678   0.75001   0.00000  Uiso   1.00
O944   O     0.87294   0.22679   0.75001   0.00000  Uiso   1.00
O945   O     0.77441   0.16665   0.82549   0.00000  Uiso   1.00
O946   O     0.85360   0.16666   0.82549   0.00000  Uiso   1.00
O947   O     0.79373   0.10654   0.75000   0.00000  Uiso   1.00
O948   O     0.87292   0.10655   0.75000   0.00000  Uiso   1.00
O949   O     0.81306   0.16667   0.67451   0.00000  Uiso   1.00
O950   O     0.89225   0.16668   0.67451   0.00000  Uiso   1.00
N951   N     0.89601   0.04132   0.66349   0.00000  Uiso   1.00
H952   H     0.93160   0.03123   0.65793   0.00000  Uiso   1.00
H953   H     0.88627   0.03190   0.63008   0.00000  Uiso   1.00
N954   N     0.76629   0.04369   0.83458   0.00000  Uiso   1.00
H955   H     0.78588   0.06444   0.85146   0.00000  Uiso   1.00
H956   H     0.74220   0.06060   0.82062   0.00000  Uiso   1.00
O957   O     0.94230   0.23460   0.79071   0.00000  Uiso   1.00
C958   C     0.96121   0.26852   0.75802   0.00000  Uiso   1.00
H959   H     0.94983   0.26618   0.72173   0.00000  Uiso   1.00
H960   H     0.66828   0.27032   0.74530   0.00000  Uiso   1.00
C961   C     0.94218   0.30906   0.78773   0.00000  Uiso   1.00
H962   H     0.95650   0.31336   0.82189   0.00000  Uiso   1.00
H963   H     0.95409   0.00221   0.76133   0.00000  Uiso   1.00
H964   H     0.90196   0.30878   0.80227   0.00000  Uiso   1.00
N965   N     0.70054   0.22616   0.81021   0.00000  Uiso   1.00
H966   H     0.70239   0.20951   0.84246   0.00000  Uiso   1.00
H967   H     0.67464   0.24909   0.82654   0.00000  Uiso   1.00
O968   O     0.72274   0.09718   0.71469   0.00000  Uiso   1.00
C969   C     0.74556   0.09126   0.66018   0.00000  Uiso   1.00
H970   H     0.78448   0.09927   0.65129   0.00000  Uiso   1.00
H971   H     0.72963   0.10979   0.63513   0.00000  Uiso   1.00
C972   C     0.74300   0.04549   0.64507   0.00000  Uiso   1.00
H973   H     0.70461   0.03567   0.65267   0.00000  Uiso   1.00
H974   H     0.76235   0.04022   0.60261   0.00000  Uiso   1.00
H975   H     0.76043   0.02632   0.66833   0.00000  Uiso   1.00
N976   N     0.96339   0.10122   0.70115   0.00000  Uiso   1.00
H977   H     0.98145   0.10072   0.66089   0.00000  Uiso   1.00
H978   H     0.96981   0.07338   0.71701   0.00000  Uiso   1.00
N979   N     0.73680   0.18419   0.57375   0.00000  Uiso   1.00
H980   H     0.71229   0.16067   0.58978   0.00000  Uiso   1.00
H981   H     0.71642   0.21148   0.57792   0.00000  Uiso   1.00
N982   N     0.85816   0.25022   0.88156   0.00000  Uiso   1.00
H983   H     0.82790   0.26891   0.89949   0.00000  Uiso   1.00
H984   H     0.85339   0.23795   0.84710   0.00000  Uiso   1.00
C985   C     0.16682   0.57906   0.74968   0.00000  Uiso   1.00
C986   C     0.14031   0.51693   0.99220   0.00000  Uiso   1.00
C987   C     0.15311   0.52517   0.93789   0.00000  Uiso   1.00
C988   C     0.17726   0.51973   0.51757   0.00000  Uiso   1.00
C989   C     0.22244   0.53819   0.99158   0.00000  Uiso   1.00
C990   C     0.22908   0.55567   0.94267   0.00000  Uiso   1.00
C991   C     0.19335   0.55166   0.91719   0.00000  Uiso   1.00
C992   C     0.17142   0.50298   0.56693   0.00000  Uiso   1.00
C993   C     0.25102   0.52706   0.56718   0.00000  Uiso   1.00
C994   C     0.12322   0.50899   0.90809   0.00000  Uiso   1.00
C995   C     0.19862   0.64389   0.70800   0.00000  Uiso   1.00
C996   C     0.14041   0.50303   0.85021   0.00000  Uiso   1.00
C997   C     0.19825   0.35369   0.70748   0.00000  Uiso   1.00
C998   C     0.16593   0.37607   0.74952   0.00000  Uiso   1.00
C999   C     0.13294   0.35523   0.79102   0.00000  Uiso   1.00
C1000  C     0.13339   0.64551   0.79046   0.00000  Uiso   1.00
C1001  C     0.16659   0.62352   0.74954   0.00000  Uiso   1.00
C1002  C     0.30341   0.53294   0.77151   0.00000  Uiso   1.00
C1003  C     0.01827   0.53081   0.77599   0.00000  Uiso   1.00
C1004  C     0.03097   0.46778   0.72637   0.00000  Uiso   1.00
C1005  C     0.31476   0.46813   0.72622   0.00000  Uiso   1.00
C1006  C     0.16649   0.42085   0.74978   0.00000  Uiso   1.00
C1007  C     0.19268   0.50098   0.64981   0.00000  Uiso   1.00
C1008  C     0.25910   0.54136   0.51638   0.00000  Uiso   1.00
C1009  C     0.20660   0.50856   0.59313   0.00000  Uiso   1.00
C1010  C     0.07617   0.49546   0.93467   0.00000  Uiso   1.00
C1011  C     0.05925   0.49766   0.98915   0.00000  Uiso   1.00
C1012  C     0.09066   0.50846   0.51856   0.00000  Uiso   1.00
Cu1013 Cu    0.11978   0.49999   0.75000   0.00000  Uiso   1.00
Cu1014 Cu    0.21355   0.50001   0.75000   0.00000  Uiso   1.00
H1015  H     0.27865   0.53189   0.58680   0.00000  Uiso   1.00
H1016  H     0.10848   0.62916   0.82234   0.00000  Uiso   1.00
H1017  H     0.26067   0.57475   0.92574   0.00000  Uiso   1.00
H1018  H     0.29344   0.55607   0.99711   0.00000  Uiso   1.00
H1019  H     0.13947   0.48532   0.58573   0.00000  Uiso   1.00
H1020  H     0.05178   0.48408   0.91331   0.00000  Uiso   1.00
H1021  H     0.02156   0.49054   0.50873   0.00000  Uiso   1.00
H1022  H     0.22330   0.62630   0.67575   0.00000  Uiso   1.00
N1023  N     0.04931   0.49999   0.74999   0.00000  Uiso   1.00
N1024  N     0.28402   0.50002   0.75000   0.00000  Uiso   1.00
O1025  O     0.12708   0.56011   0.75001   0.00000  Uiso   1.00
O1026  O     0.20627   0.56012   0.75001   0.00000  Uiso   1.00
O1027  O     0.10775   0.49998   0.82549   0.00000  Uiso   1.00
O1028  O     0.18694   0.49999   0.82549   0.00000  Uiso   1.00
O1029  O     0.12706   0.43988   0.75000   0.00000  Uiso   1.00
O1030  O     0.20625   0.43989   0.75000   0.00000  Uiso   1.00
O1031  O     0.14640   0.50001   0.67451   0.00000  Uiso   1.00
O1032  O     0.22559   0.50002   0.67451   0.00000  Uiso   1.00
N1033  N     0.22934   0.37465   0.66349   0.00000  Uiso   1.00
H1034  H     0.26493   0.36456   0.65793   0.00000  Uiso   1.00
H1035  H     0.21961   0.36523   0.63008   0.00000  Uiso   1.00
N1036  N     0.09962   0.37702   0.83458   0.00000  Uiso   1.00
H1037  H     0.11921   0.39777   0.85146   0.00000  Uiso   1.00
H1038  H     0.07554   0.39393   0.82062   0.00000  Uiso   1.00
O1039  O     0.27563   0.56793   0.79071   0.00000  Uiso   1.00
C1040  C     0.29455   0.60185   0.75802   0.00000  Uiso   1.00
H1041  H     0.28317   0.59951   0.72173   0.00000  Uiso   1.00
H1042  H     0.00161   0.60365   0.74530   0.00000  Uiso   1.00
C1043  C     0.27551   0.64239   0.78773   0.00000  Uiso   1.00
H1044  H     0.28983   0.64669   0.82189   0.00000  Uiso   1.00
H1045  H     0.28742   0.33554   0.76133   0.00000  Uiso   1.00
H1046  H     0.23529   0.64211   0.80227   0.00000  Uiso   1.00
N1047  N     0.03388   0.55949   0.81021   0.00000  Uiso   1.00
H1048  H     0.03572   0.54284   0.84246   0.00000  Uiso   1.00
H1049  H     0.00797   0.58242   0.82654   0.00000  Uiso   1.00
O1050  O     0.05607   0.43051   0.71469   0.00000  Uiso   1.00
C1051  C     0.07889   0.42459   0.66018   0.00000  Uiso   1.00
H1052  H     0.11781   0.43260   0.65129   0.00000  Uiso   1.00
H1053  H     0.06296   0.44313   0.63513   0.00000  Uiso   1.00
C1054  C     0.07633   0.37883   0.64507   0.00000  Uiso   1.00
H1055  H     0.03794   0.36901   0.65267   0.00000  Uiso   1.00
H1056  H     0.09568   0.37355   0.60261   0.00000  Uiso   1.00
H1057  H     0.09376   0.35966   0.66833   0.00000  Uiso   1.00
N1058  N     0.29672   0.43455   0.70115   0.00000  Uiso   1.00
H1059  H     0.31479   0.43405   0.66089   0.00000  Uiso   1.00
H1060  H     0.30315   0.40671   0.71701   0.00000  Uiso   1.00
N1061  N     0.07013   0.51753   0.57375   0.00000  Uiso   1.00
H1062  H     0.04563   0.49400   0.58978   0.00000  Uiso   1.00
H1063  H     0.04976   0.54481   0.57792   0.00000  Uiso   1.00
N1064  N     0.19149   0.58356   0.88156   0.00000  Uiso   1.00
H1065  H     0.16124   0.60224   0.89949   0.00000  Uiso   1.00
H1066  H     0.18672   0.57129   0.84710   0.00000  Uiso   1.00
C1067  C     0.50015   0.57906   0.74968   0.00000  Uiso   1.00
C1068  C     0.47365   0.51693   0.99220   0.00000  Uiso   1.00
C1069  C     0.48644   0.52517   0.93789   0.00000  Uiso   1.00
C1070  C     0.51059   0.51973   0.51757   0.00000  Uiso   1.00
C1071  C     0.55577   0.53819   0.99158   0.00000  Uiso   1.00
C1072  C     0.56242   0.55567   0.94267   0.00000  Uiso   1.00
C1073  C     0.52669   0.55166   0.91719   0.00000  Uiso   1.00
C1074  C     0.50475   0.50298   0.56693   0.00000  Uiso   1.00
C1075  C     0.58435   0.52706   0.56718   0.00000  Uiso   1.00
C1076  C     0.45655   0.50899   0.90809   0.00000  Uiso   1.00
C1077  C     0.53195   0.64389   0.70800   0.00000  Uiso   1.00
C1078  C     0.47374   0.50303   0.85021   0.00000  Uiso   1.00
C1079  C     0.53159   0.35369   0.70748   0.00000  Uiso   1.00
C1080  C     0.49927   0.37607   0.74952   0.00000  Uiso   1.00
C1081  C     0.46628   0.35523   0.79102   0.00000  Uiso   1.00
C1082  C     0.46673   0.64551   0.79046   0.00000  Uiso   1.00
C1083  C     0.49992   0.62352   0.74954   0.00000  Uiso   1.00
C1084  C     0.63674   0.53294   0.77151   0.00000  Uiso   1.00
C1085  C     0.35160   0.53081   0.77599   0.00000  Uiso   1.00
C1086  C     0.36430   0.46778   0.72637   0.00000  Uiso   1.00
C1087  C     0.64809   0.46813   0.72622   0.00000  Uiso   1.00
C1088  C     0.49983   0.42085   0.74978   0.00000  Uiso   1.00
C1089  C     0.52601   0.50098   0.64981   0.00000  Uiso   1.00
C1090  C     0.59244   0.54136   0.51638   0.00000  Uiso   1.00
C1091  C     0.53994   0.50856   0.59313   0.00000  Uiso   1.00
C1092  C     0.40950   0.49546   0.93467   0.00000  Uiso   1.00
C1093  C     0.39259   0.49766   0.98915   0.00000  Uiso   1.00
C1094  C     0.42399   0.50846   0.51856   0.00000  Uiso   1.00
Cu1095 Cu    0.45311   0.49999   0.75000   0.00000  Uiso   1.00
Cu1096 Cu    0.54689   0.50001   0.75000   0.00000  Uiso   1.00
H1097  H     0.61199   0.53189   0.58680   0.00000  Uiso   1.00
H1098  H     0.44181   0.62916   0.82234   0.00000  Uiso   1.00
H1099  H     0.59401   0.57475   0.92574   0.00000  Uiso   1.00
H1100  H     0.62677   0.55607   0.99711   0.00000  Uiso   1.00
H1101  H     0.47280   0.48532   0.58573   0.00000  Uiso   1.00
H1102  H     0.38511   0.48408   0.91331   0.00000  Uiso   1.00
H1103  H     0.35490   0.49054   0.50873   0.00000  Uiso   1.00
H1104  H     0.55663   0.62630   0.67575   0.00000  Uiso   1.00
N1105  N     0.38265   0.49999   0.74999   0.00000  Uiso   1.00
N1106  N     0.61735   0.50002   0.75000   0.00000  Uiso   1.00
O1107  O     0.46042   0.56011   0.75001   0.00000  Uiso   1.00
O1108  O     0.53961   0.56012   0.75001   0.00000  Uiso   1.00
O1109  O     0.44108   0.49998   0.82549   0.00000  Uiso   1.00
O1110  O     0.52027   0.49999   0.82549   0.00000  Uiso   1.00
O1111  O     0.46039   0.43988   0.75000   0.00000  Uiso   1.00
O1112  O     0.53958   0.43989   0.75000   0.00000  Uiso   1.00
O1113  O     0.47973   0.50001   0.67451   0.00000  Uiso   1.00
O1114  O     0.55892   0.50002   0.67451   0.00000  Uiso   1.00
N1115  N     0.56267   0.37465   0.66349   0.00000  Uiso   1.00
H1116  H     0.59827   0.36456   0.65793   0.00000  Uiso   1.00
H1117  H     0.55294   0.36523   0.63008   0.00000  Uiso   1.00
N1118  N     0.43295   0.37702   0.83458   0.00000  Uiso   1.00
H1119  H     0.45255   0.39777   0.85146   0.00000  Uiso   1.00
H1120  H     0.40887   0.39393   0.82062   0.00000  Uiso   1.00
O1121  O     0.60896   0.56793   0.79071   0.00000  Uiso   1.00
C1122  C     0.62788   0.60185   0.75802   0.00000  Uiso   1.00
H1123  H     0.61650   0.59951   0.72173   0.00000  Uiso   1.00
H1124  H     0.33495   0.60365   0.74530   0.00000  Uiso   1.00
C1125  C     0.60885   0.64239   0.78773   0.00000  Uiso   1.00
H1126  H     0.62316   0.64669   0.82189   0.00000  Uiso   1.00
H1127  H     0.62076   0.33554   0.76133   0.00000  Uiso   1.00
H1128  H     0.56862   0.64211   0.80227   0.00000  Uiso   1.00
N1129  N     0.36721   0.55949   0.81021   0.00000  Uiso   1.00
H1130  H     0.36906   0.54284   0.84246   0.00000  Uiso   1.00
H1131  H     0.34130   0.58242   0.82654   0.00000  Uiso   1.00
O1132  O     0.38940   0.43051   0.71469   0.00000  Uiso   1.00
C1133  C     0.41222   0.42459   0.66018   0.00000  Uiso   1.00
H1134  H     0.45115   0.43260   0.65129   0.00000  Uiso   1.00
H1135  H     0.39630   0.44313   0.63513   0.00000  Uiso   1.00
C1136  C     0.40966   0.37883   0.64507   0.00000  Uiso   1.00
H1137  H     0.37128   0.36901   0.65267   0.00000  Uiso   1.00
H1138  H     0.42902   0.37355   0.60261   0.00000  Uiso   1.00
H1139  H     0.42709   0.35966   0.66833   0.00000  Uiso   1.00
N1140  N     0.63005   0.43455   0.70115   0.00000  Uiso   1.00
H1141  H     0.64812   0.43405   0.66089   0.00000  Uiso   1.00
H1142  H     0.63648   0.40671   0.71701   0.00000  Uiso   1.00
N1143  N     0.40346   0.51753   0.57375   0.00000  Uiso   1.00
H1144  H     0.37896   0.49400   0.58978   0.00000  Uiso   1.00
H1145  H     0.38309   0.54481   0.57792   0.00000  Uiso   1.00
N1146  N     0.52483   0.58356   0.88156   0.00000  Uiso   1.00
H1147  H     0.49457   0.60224   0.89949   0.00000  Uiso   1.00
H1148  H     0.52005   0.57129   0.84710   0.00000  Uiso   1.00
C1149  C     0.83349   0.57906   0.74968   0.00000  Uiso   1.00
C1150  C     0.80698   0.51693   0.99220   0.00000  Uiso   1.00
C1151  C     0.81978   0.52517   0.93789   0.00000  Uiso   1.00
C1152  C     0.84393   0.51973   0.51757   0.00000  Uiso   1.00
C1153  C     0.88910   0.53819   0.99158   0.00000  Uiso   1.00
C1154  C     0.89575   0.55567   0.94267   0.00000  Uiso   1.00
C1155  C     0.86002   0.55166   0.91719   0.00000  Uiso   1.00
C1156  C     0.83808   0.50298   0.56693   0.00000  Uiso   1.00
C1157  C     0.91769   0.52706   0.56718   0.00000  Uiso   1.00
C1158  C     0.78988   0.50899   0.90809   0.00000  Uiso   1.00
C1159  C     0.86528   0.64389   0.70800   0.00000  Uiso   1.00
C1160  C     0.80707   0.50303   0.85021   0.00000  Uiso   1.00
C1161  C     0.86492   0.35369   0.70748   0.00000  Uiso   1.00
C1162  C     0.83260   0.37607   0.74952   0.00000  Uiso   1.00
C1163  C     0.79961   0.35523   0.79102   0.00000  Uiso   1.00
C1164  C     0.80006   0.64551   0.79046   0.00000  Uiso   1.00
C1165  C     0.83325   0.62352   0.74954   0.00000  Uiso   1.00
C1166  C     0.97007   0.53294   0.77151   0.00000  Uiso   1.00
C1167  C     0.68494   0.53081   0.77599   0.00000  Uiso   1.00
C1168  C     0.69764   0.46778   0.72637   0.00000  Uiso   1.00
C1169  C     0.98143   0.46813   0.72622   0.00000  Uiso   1.00
C1170  C     0.83316   0.42085   0.74978   0.00000  Uiso   1.00
C1171  C     0.85935   0.50098   0.64981   0.00000  Uiso   1.00
C1172  C     0.92577   0.54136   0.51638   0.00000  Uiso   1.00
C1173  C     0.87327   0.50856   0.59313   0.00000  Uiso   1.00
C1174  C     0.74284   0.49546   0.93467   0.00000  Uiso   1.00
C1175  C     0.72592   0.49766   0.98915   0.00000  Uiso   1.00
C1176  C     0.75732   0.50846   0.51856   0.00000  Uiso   1.00
Cu1177 Cu    0.78645   0.49999   0.75000   0.00000  Uiso   1.00
Cu1178 Cu    0.88022   0.50001   0.75000   0.00000  Uiso   1.00
H1179  H     0.94532   0.53189   0.58680   0.00000  Uiso   1.00
H1180  H     0.77514   0.62916   0.82234   0.00000  Uiso   1.00
H1181  H     0.92734   0.57475   0.92574   0.00000  Uiso   1.00
H1182  H     0.96010   0.55607   0.99711   0.00000  Uiso   1.00
H1183  H     0.80614   0.48532   0.58573   0.00000  Uiso   1.00
H1184  H     0.71845   0.48408   0.91331   0.00000  Uiso   1.00
H1185  H     0.68823   0.49054   0.50873   0.00000  Uiso   1.00
H1186  H     0.88997   0.62630   0.67575   0.00000  Uiso   1.00
N1187  N     0.71598   0.49999   0.74999   0.00000  Uiso   1.00
N1188  N     0.95069   0.50002   0.75000   0.00000  Uiso   1.00
O1189  O     0.79375   0.56011   0.75001   0.00000  Uiso   1.00
O1190  O     0.87294   0.56012   0.75001   0.00000  Uiso   1.00
O1191  O     0.77441   0.49998   0.82549   0.00000  Uiso   1.00
O1192  O     0.85360   0.49999   0.82549   0.00000  Uiso   1.00
O1193  O     0.79373   0.43988   0.75000   0.00000  Uiso   1.00
O1194  O     0.87292   0.43989   0.75000   0.00000  Uiso   1.00
O1195  O     0.81306   0.50001   0.67451   0.00000  Uiso   1.00
O1196  O     0.89225   0.50002   0.67451   0.00000  Uiso   1.00
N1197  N     0.89601   0.37465   0.66349   0.00000  Uiso   1.00
H1198  H     0.93160   0.36456   0.65793   0.00000  Uiso   1.00
H1199  H     0.88627   0.36523   0.63008   0.00000  Uiso   1.00
N1200  N     0.76629   0.37702   0.83458   0.00000  Uiso   1.00
H1201  H     0.78588   0.39777   0.85146   0.00000  Uiso   1.00
H1202  H     0.74220   0.39393   0.82062   0.00000  Uiso   1.00
O1203  O     0.94230   0.56793   0.79071   0.00000  Uiso   1.00
C1204  C     0.96121   0.60185   0.75802   0.00000  Uiso   1.00
H1205  H     0.94983   0.59951   0.72173   0.00000  Uiso   1.00
H1206  H     0.66828   0.60365   0.74530   0.00000  Uiso   1.00
C1207  C     0.94218   0.64239   0.78773   0.00000  Uiso   1.00
H1208  H     0.95650   0.64669   0.82189   0.00000  Uiso   1.00
H1209  H     0.95409   0.33554   0.76133   0.00000  Uiso   1.00
H1210  H     0.90196   0.64211   0.80227   0.00000  Uiso   1.00
N1211  N     0.70054   0.55949   0.81021   0.00000  Uiso   1.00
H1212  H     0.70239   0.54284   0.84246   0.00000  Uiso   1.00
H1213  H     0.67464   0.58242   0.82654   0.00000  Uiso   1.00
O1214  O     0.72274   0.43051   0.71469   0.00000  Uiso   1.00
C1215  C     0.74556   0.42459   0.66018   0.00000  Uiso   1.00
H1216  H     0.78448   0.43260   0.65129   0.00000  Uiso   1.00
H1217  H     0.72963   0.44313   0.63513   0.00000  Uiso   1.00
C1218  C     0.74300   0.37883   0.64507   0.00000  Uiso   1.00
H1219  H     0.70461   0.36901   0.65267   0.00000  Uiso   1.00
H1220  H     0.76235   0.37355   0.60261   0.00000  Uiso   1.00
H1221  H     0.76043   0.35966   0.66833   0.00000  Uiso   1.00
N1222  N     0.96339   0.43455   0.70115   0.00000  Uiso   1.00
H1223  H     0.98145   0.43405   0.66089   0.00000  Uiso   1.00
H1224  H     0.96981   0.40671   0.71701   0.00000  Uiso   1.00
N1225  N     0.73680   0.51753   0.57375   0.00000  Uiso   1.00
H1226  H     0.71229   0.49400   0.58978   0.00000  Uiso   1.00
H1227  H     0.71642   0.54481   0.57792   0.00000  Uiso   1.00
N1228  N     0.85816   0.58356   0.88156   0.00000  Uiso   1.00
H1229  H     0.82790   0.60224   0.89949   0.00000  Uiso   1.00
H1230  H     0.85339   0.57129   0.84710   0.00000  Uiso   1.00
C1231  C     0.16682   0.91240   0.74968   0.00000  Uiso   1.00
C1232  C     0.14031   0.85026   0.99220   0.00000  Uiso   1.00
C1233  C     0.15311   0.85850   0.93789   0.00000  Uiso   1.00
C1234  C     0.17726   0.85307   0.51757   0.00000  Uiso   1.00
C1235  C     0.22244   0.87152   0.99158   0.00000  Uiso   1.00
C1236  C     0.22908   0.88900   0.94267   0.00000  Uiso   1.00
C1237  C     0.19335   0.88499   0.91719   0.00000  Uiso   1.00
C1238  C     0.17142   0.83631   0.56693   0.00000  Uiso   1.00
C1239  C     0.25102   0.86039   0.56718   0.00000  Uiso   1.00
C1240  C     0.12322   0.84232   0.90809   0.00000  Uiso   1.00
C1241  C     0.19862   0.97722   0.70800   0.00000  Uiso   1.00
C1242  C     0.14041   0.83636   0.85021   0.00000  Uiso   1.00
C1243  C     0.19825   0.68702   0.70748   0.00000  Uiso   1.00
C1244  C     0.16593   0.70940   0.74952   0.00000  Uiso   1.00
C1245  C     0.13294   0.68856   0.79102   0.00000  Uiso   1.00
C1246  C     0.13339   0.97884   0.79046   0.00000  Uiso   1.00
C1247  C     0.16659   0.95686   0.74954   0.00000  Uiso   1.00
C1248  C     0.30341   0.86628   0.77151   0.00000  Uiso   1.00
C1249  C     0.01827   0.86414   0.77599   0.00000  Uiso   1.00
C1250  C     0.03097   0.80111   0.72637   0.00000  Uiso   1.00
C1251  C     0.31476   0.80146   0.72622   0.00000  Uiso   1.00
C1252  C     0.16649   0.75418   0.74978   0.00000  Uiso   1.00
C1253  C     0.19268   0.83431   0.64981   0.00000  Uiso   1.00
C1254  C     0.25910   0.87469   0.51638   0.00000  Uiso   1.00
C1255  C     0.20660   0.84189   0.59313   0.00000  Uiso   1.00
C1256  C     0.07617   0.82879   0.93467   0.00000  Uiso   1.00
C1257  C     0.05925   0.83099   0.98915   0.00000  Uiso   1.00
C1258  C     0.09066   0.84179   0.51856   0.00000  Uiso   1.00
Cu1259 Cu    0.11978   0.83333   0.75000   0.00000  Uiso   1.00
Cu1260 Cu    0.21355   0.83334   0.75000   0.00000  Uiso   1.00
H1261  H     0.27865   0.86523   0.58680   0.00000  Uiso   1.00
H1262  H     0.10848   0.96250   0.82234   0.00000  Uiso   1.00
H1263  H     0.26067   0.90808   0.92574   0.00000  Uiso   1.00
H1264  H     0.29344   0.88940   0.99711   0.00000  Uiso   1.00
H1265  H     0.13947   0.81865   0.58573   0.00000  Uiso   1.00
H1266  H     0.05178   0.81741   0.91331   0.00000  Uiso   1.00
H1267  H     0.02156   0.82387   0.50873   0.00000  Uiso   1.00
H1268  H     0.22330   0.95963   0.67575   0.00000  Uiso   1.00
N1269  N     0.04931   0.83332   0.74999   0.00000  Uiso   1.00
N1270  N     0.28402   0.83335   0.75000   0.00000  Uiso   1.00
O1271  O     0.12708   0.89345   0.75001   0.00000  Uiso   1.00
O1272  O     0.20627   0.89346   0.75001   0.00000  Uiso   1.00
O1273  O     0.10775   0.83332   0.82549   0.00000  Uiso   1.00
O1274  O     0.18694   0.83333   0.82549   0.00000  Uiso   1.00
O1275  O     0.12706   0.77321   0.75000   0.00000  Uiso   1.00
O1276  O     0.20625   0.77322   0.75000   0.00000  Uiso   1.00
O1277  O     0.14640   0.83334   0.67451   0.00000  Uiso   1.00
O1278  O     0.22559   0.83335   0.67451   0.00000  Uiso   1.00
N1279  N     0.22934   0.70799   0.66349   0.00000  Uiso   1.00
H1280  H     0.26493   0.69789   0.65793   0.00000  Uiso   1.00
H1281  H     0.21961   0.69857   0.63008   0.00000  Uiso   1.00
N1282  N     0.09962   0.71035   0.83458   0.00000  Uiso   1.00
H1283  H     0.11921   0.73111   0.85146   0.00000  Uiso   1.00
H1284  H     0.07554   0.72727   0.82062   0.00000  Uiso   1.00
O1285  O     0.27563   0.90127   0.79071   0.00000  Uiso   1.00
C1286  C     0.29455   0.93518   0.75802   0.00000  Uiso   1.00
H1287  H     0.28317   0.93284   0.72173   0.00000  Uiso   1.00
H1288  H     0.00161   0.93699   0.74530   0.00000  Uiso   1.00
C1289  C     0.27551   0.97572   0.78773   0.00000  Uiso   1.00
H1290  H     0.28983   0.98002   0.82189   0.00000  Uiso   1.00
H1291  H     0.28742   0.66887   0.76133   0.00000  Uiso   1.00
H1292  H     0.23529   0.97544   0.80227   0.00000  Uiso   1.00
N1293  N     0.03388   0.89283   0.81021   0.00000  Uiso   1.00
H1294  H     0.03572   0.87618   0.84246   0.00000  Uiso   1.00
H1295  H     0.00797   0.91575   0.82654   0.00000  Uiso   1.00
O1296  O     0.05607   0.76385   0.71469   0.00000  Uiso   1.00
C1297  C     0.07889   0.75792   0.66018   0.00000  Uiso   1.00
H1298  H     0.11781   0.76593   0.65129   0.00000  Uiso   1.00
H1299  H     0.06296   0.77646   0.63513   0.00000  Uiso   1.00
C1300  C     0.07633   0.71216   0.64507   0.00000  Uiso   1.00
H1301  H     0.03794   0.70234   0.65267   0.00000  Uiso   1.00
H1302  H     0.09568   0.70688   0.60261   0.00000  Uiso   1.00
H1303  H     0.09376   0.69299   0.66833   0.00000  Uiso   1.00
N1304  N     0.29672   0.76789   0.70115   0.00000  Uiso   1.00
H1305  H     0.31479   0.76738   0.66089   0.00000  Uiso   1.00
H1306  H     0.30315   0.74005   0.71701   0.00000  Uiso   1.00
N1307  N     0.07013   0.85086   0.57375   0.00000  Uiso   1.00
H1308  H     0.04563   0.82733   0.58978   0.00000  Uiso   1.00
H1309  H     0.04976   0.87815   0.57792   0.00000  Uiso   1.00
N1310  N     0.19149   0.91689   0.88156   0.00000  Uiso   1.00
H1311  H     0.16124   0.93558   0.89949   0.00000  Uiso   1.00
H1312  H     0.18672   0.90462   0.84710   0.00000  Uiso   1.00
C1313  C     0.50015   0.91240   0.74968   0.00000  Uiso   1.00
C1314  C     0.47365   0.85026   0.99220   0.00000  Uiso   1.00
C1315  C     0.48644   0.85850   0.93789   0.00000  Uiso   1.00
C1316  C     0.51059   0.85307   0.51757   0.00000  Uiso   1.00
C1317  C     0.55577   0.87152   0.99158   0.00000  Uiso   1.00
C1318  C     0.56242   0.88900   0.94267   0.00000  Uiso   1.00
C1319  C     0.52669   0.88499   0.91719   0.00000  Uiso   1.00
C1320  C     0.50475   0.83631   0.56693   0.00000  Uiso   1.00
C1321  C     0.58435   0.86039   0.56718   0.00000  Uiso   1.00
C1322  C     0.45655   0.84232   0.90809   0.00000  Uiso   1.00
C1323  C     0.53195   0.97722   0.70800   0.00000  Uiso   1.00
C1324  C     0.47374   0.83636   0.85021   0.00000  Uiso   1.00
C1325  C     0.53159   0.68702   0.70748   0.00000  Uiso   1.00
C1326  C     0.49927   0.70940   0.74952   0.00000  Uiso   1.00
C1327  C     0.46628   0.68856   0.79102   0.00000  Uiso   1.00
C1328  C     0.46673   0.97884   0.79046   0.00000  Uiso   1.00
C1329  C     0.49992   0.95686   0.74954   0.00000  Uiso   1.00
C1330  C     0.63674   0.86628   0.77151   0.00000  Uiso   1.00
C1331  C     0.35160   0.86414   0.77599   0.00000  Uiso   1.00
C1332  C     0.36430   0.80111   0.72637   0.00000  Uiso   1.00
C1333  C     0.64809   0.80146   0.72622   0.00000  Uiso   1.00
C1334  C     0.49983   0.75418   0.74978   0.00000  Uiso   1.00
C1335  C     0.52601   0.83431   0.64981   0.00000  Uiso   1.00
C1336  C     0.59244   0.87469   0.51638   0.00000  Uiso   1.00
C1337  C     0.53994   0.84189   0.59313   0.00000  Uiso   1.00
C1338  C     0.40950   0.82879   0.93467   0.00000  Uiso   1.00
C1339  C     0.39259   0.83099   0.98915   0.00000  Uiso   1.00
C1340  C     0.42399   0.84179   0.51856   0.00000  Uiso   1.00
Cu1341 Cu    0.45311   0.83333   0.75000   0.00000  Uiso   1.00
Cu1342 Cu    0.54689   0.83334   0.75000   0.00000  Uiso   1.00
H1343  H     0.61199   0.86523   0.58680   0.00000  Uiso   1.00
H1344  H     0.44181   0.96250   0.82234   0.00000  Uiso   1.00
H1345  H     0.59401   0.90808   0.92574   0.00000  Uiso   1.00
H1346  H     0.62677   0.88940   0.99711   0.00000  Uiso   1.00
H1347  H     0.47280   0.81865   0.58573   0.00000  Uiso   1.00
H1348  H     0.38511   0.81741   0.91331   0.00000  Uiso   1.00
H1349  H     0.35490   0.82387   0.50873   0.00000  Uiso   1.00
H1350  H     0.55663   0.95963   0.67575   0.00000  Uiso   1.00
N1351  N     0.38265   0.83332   0.74999   0.00000  Uiso   1.00
N1352  N     0.61735   0.83335   0.75000   0.00000  Uiso   1.00
O1353  O     0.46042   0.89345   0.75001   0.00000  Uiso   1.00
O1354  O     0.53961   0.89346   0.75001   0.00000  Uiso   1.00
O1355  O     0.44108   0.83332   0.82549   0.00000  Uiso   1.00
O1356  O     0.52027   0.83333   0.82549   0.00000  Uiso   1.00
O1357  O     0.46039   0.77321   0.75000   0.00000  Uiso   1.00
O1358  O     0.53958   0.77322   0.75000   0.00000  Uiso   1.00
O1359  O     0.47973   0.83334   0.67451   0.00000  Uiso   1.00
O1360  O     0.55892   0.83335   0.67451   0.00000  Uiso   1.00
N1361  N     0.56267   0.70799   0.66349   0.00000  Uiso   1.00
H1362  H     0.59827   0.69789   0.65793   0.00000  Uiso   1.00
H1363  H     0.55294   0.69857   0.63008   0.00000  Uiso   1.00
N1364  N     0.43295   0.71035   0.83458   0.00000  Uiso   1.00
H1365  H     0.45255   0.73111   0.85146   0.00000  Uiso   1.00
H1366  H     0.40887   0.72727   0.82062   0.00000  Uiso   1.00
O1367  O     0.60896   0.90127   0.79071   0.00000  Uiso   1.00
C1368  C     0.62788   0.93518   0.75802   0.00000  Uiso   1.00
H1369  H     0.61650   0.93284   0.72173   0.00000  Uiso   1.00
H1370  H     0.33495   0.93699   0.74530   0.00000  Uiso   1.00
C1371  C     0.60885   0.97572   0.78773   0.00000  Uiso   1.00
H1372  H     0.62316   0.98002   0.82189   0.00000  Uiso   1.00
H1373  H     0.62076   0.66887   0.76133   0.00000  Uiso   1.00
H1374  H     0.56862   0.97544   0.80227   0.00000  Uiso   1.00
N1375  N     0.36721   0.89283   0.81021   0.00000  Uiso   1.00
H1376  H     0.36906   0.87618   0.84246   0.00000  Uiso   1.00
H1377  H     0.34130   0.91575   0.82654   0.00000  Uiso   1.00
O1378  O     0.38940   0.76385   0.71469   0.00000  Uiso   1.00
C1379  C     0.41222   0.75792   0.66018   0.00000  Uiso   1.00
H1380  H     0.45115   0.76593   0.65129   0.00000  Uiso   1.00
H1381  H     0.39630   0.77646   0.63513   0.00000  Uiso   1.00
C1382  C     0.40966   0.71216   0.64507   0.00000  Uiso   1.00
H1383  H     0.37128   0.70234   0.65267   0.00000  Uiso   1.00
H1384  H     0.42902   0.70688   0.60261   0.00000  Uiso   1.00
H1385  H     0.42709   0.69299   0.66833   0.00000  Uiso   1.00
N1386  N     0.63005   0.76789   0.70115   0.00000  Uiso   1.00
H1387  H     0.64812   0.76738   0.66089   0.00000  Uiso   1.00
H1388  H     0.63648   0.74005   0.71701   0.00000  Uiso   1.00
N1389  N     0.40346   0.85086   0.57375   0.00000  Uiso   1.00
H1390  H     0.37896   0.82733   0.58978   0.00000  Uiso   1.00
H1391  H     0.38309   0.87815   0.57792   0.00000  Uiso   1.00
N1392  N     0.52483   0.91689   0.88156   0.00000  Uiso   1.00
H1393  H     0.49457   0.93558   0.89949   0.00000  Uiso   1.00
H1394  H     0.52005   0.90462   0.84710   0.00000  Uiso   1.00
C1395  C     0.83349   0.91240   0.74968   0.00000  Uiso   1.00
C1396  C     0.80698   0.85026   0.99220   0.00000  Uiso   1.00
C1397  C     0.81978   0.85850   0.93789   0.00000  Uiso   1.00
C1398  C     0.84393   0.85307   0.51757   0.00000  Uiso   1.00
C1399  C     0.88910   0.87152   0.99158   0.00000  Uiso   1.00
C1400  C     0.89575   0.88900   0.94267   0.00000  Uiso   1.00
C1401  C     0.86002   0.88499   0.91719   0.00000  Uiso   1.00
C1402  C     0.83808   0.83631   0.56693   0.00000  Uiso   1.00
C1403  C     0.91769   0.86039   0.56718   0.00000  Uiso   1.00
C1404  C     0.78988   0.84232   0.90809   0.00000  Uiso   1.00
C1405  C     0.86528   0.97722   0.70800   0.00000  Uiso   1.00
C1406  C     0.80707   0.83636   0.85021   0.00000  Uiso   1.00
C1407  C     0.86492   0.68702   0.70748   0.00000  Uiso   1.00
C1408  C     0.83260   0.70940   0.74952   0.00000  Uiso   1.00
C1409  C     0.79961   0.68856   0.79102   0.00000  Uiso   1.00
C1410  C     0.80006   0.97884   0.79046   0.00000  Uiso   1.00
C1411  C     0.83325   0.95686   0.74954   0.00000  Uiso   1.00
C1412  C     0.97007   0.86628   0.77151   0.00000  Uiso   1.00
C1413  C     0.68494   0.86414   0.77599   0.00000  Uiso   1.00
C1414  C     0.69764   0.80111   0.72637   0.00000  Uiso   1.00
C1415  C     0.98143   0.80146   0.72622   0.00000  Uiso   1.00
C1416  C     0.83316   0.75418   0.74978   0.00000  Uiso   1.00
C1417  C     0.85935   0.83431   0.64981   0.00000  Uiso   1.00
C1418  C     0.92577   0.87469   0.51638   0.00000  Uiso   1.00
C1419  C     0.87327   0.84189   0.59313   0.00000  Uiso   1.00
C1420  C     0.74284   0.82879   0.93467   0.00000  Uiso   1.00
C1421  C     0.72592   0.83099   0.98915   0.00000  Uiso   1.00
C1422  C     0.75732   0.84179   0.51856   0.00000  Uiso   1.00
Cu1423 Cu    0.78645   0.83333   0.75000   0.00000  Uiso   1.00
Cu1424 Cu    0.88022   0.83334   0.75000   0.00000  Uiso   1.00
H1425  H     0.94532   0.86523   0.58680   0.00000  Uiso   1.00
H1426  H     0.77514   0.96250   0.82234   0.00000  Uiso   1.00
H1427  H     0.92734   0.90808   0.92574   0.00000  Uiso   1.00
H1428  H     0.96010   0.88940   0.99711   0.00000  Uiso   1.00
H1429  H     0.80614   0.81865   0.58573   0.00000  Uiso   1.00
H1430  H     0.71845   0.81741   0.91331   0.00000  Uiso   1.00
H1431  H     0.68823   0.82387   0.50873   0.00000  Uiso   1.00
H1432  H     0.88997   0.95963   0.67575   0.00000  Uiso   1.00
N1433  N     0.71598   0.83332   0.74999   0.00000  Uiso   1.00
N1434  N     0.95069   0.83335   0.75000   0.00000  Uiso   1.00
O1435  O     0.79375   0.89345   0.75001   0.00000  Uiso   1.00
O1436  O     0.87294   0.89346   0.75001   0.00000  Uiso   1.00
O1437  O     0.77441   0.83332   0.82549   0.00000  Uiso   1.00
O1438  O     0.85360   0.83333   0.82549   0.00000  Uiso   1.00
O1439  O     0.79373   0.77321   0.75000   0.00000  Uiso   1.00
O1440  O     0.87292   0.77322   0.75000   0.00000  Uiso   1.00
O1441  O     0.81306   0.83334   0.67451   0.00000  Uiso   1.00
O1442  O     0.89225   0.83335   0.67451   0.00000  Uiso   1.00
N1443  N     0.89601   0.70799   0.66349   0.00000  Uiso   1.00
H1444  H     0.93160   0.69789   0.65793   0.00000  Uiso   1.00
H1445  H     0.88627   0.69857   0.63008   0.00000  Uiso   1.00
N1446  N     0.76629   0.71035   0.83458   0.00000  Uiso   1.00
H1447  H     0.78588   0.73111   0.85146   0.00000  Uiso   1.00
H1448  H     0.74220   0.72727   0.82062   0.00000  Uiso   1.00
O1449  O     0.94230   0.90127   0.79071   0.00000  Uiso   1.00
C1450  C     0.96121   0.93518   0.75802   0.00000  Uiso   1.00
H1451  H     0.94983   0.93284   0.72173   0.00000  Uiso   1.00
H1452  H     0.66828   0.93699   0.74530   0.00000  Uiso   1.00
C1453  C     0.94218   0.97572   0.78773   0.00000  Uiso   1.00
H1454  H     0.95650   0.98002   0.82189   0.00000  Uiso   1.00
H1455  H     0.95409   0.66887   0.76133   0.00000  Uiso   1.00
H1456  H     0.90196   0.97544   0.80227   0.00000  Uiso   1.00
N1457  N     0.70054   0.89283   0.81021   0.00000  Uiso   1.00
H1458  H     0.70239   0.87618   0.84246   0.00000  Uiso   1.00
H1459  H     0.67464   0.91575   0.82654   0.00000  Uiso   1.00
O1460  O     0.72274   0.76385   0.71469   0.00000  Uiso   1.00
C1461  C     0.74556   0.75792   0.66018   0.00000  Uiso   1.00
H1462  H     0.78448   0.76593   0.65129   0.00000  Uiso   1.00
H1463  H     0.72963   0.77646   0.63513   0.00000  Uiso   1.00
C1464  C     0.74300   0.71216   0.64507   0.00000  Uiso   1.00
H1465  H     0.70461   0.70234   0.65267   0.00000  Uiso   1.00
H1466  H     0.76235   0.70688   0.60261   0.00000  Uiso   1.00
H1467  H     0.76043   0.69299   0.66833   0.00000  Uiso   1.00
N1468  N     0.96339   0.76789   0.70115   0.00000  Uiso   1.00
H1469  H     0.98145   0.76738   0.66089   0.00000  Uiso   1.00
H1470  H     0.96981   0.74005   0.71701   0.00000  Uiso   1.00
N1471  N     0.73680   0.85086   0.57375   0.00000  Uiso   1.00
H1472  H     0.71229   0.82733   0.58978   0.00000  Uiso   1.00
H1473  H     0.71642   0.87815   0.57792   0.00000  Uiso   1.00
N1474  N     0.85816   0.91689   0.88156   0.00000  Uiso   1.00
H1475  H     0.82790   0.93558   0.89949   0.00000  Uiso   1.00
H1476  H     0.85339   0.90462   0.84710   0.00000  Uiso   1.00
loop_
_geom_bond_atom_site_label_1
_geom_bond_atom_site_label_2
_geom_bond_distance
_geom_bond_site_symmetry_2
_ccdc_geom_bond_type
C1     O41     1.292   .     A
C1     C17     1.432   .     S
C1     O42     1.298   .     A
C2     C3      1.417   .     A
C2     C742    1.423   .     S
C2     C766    1.424   .     S
C3     C7      1.419   .     A
C3     C10     1.421   .     A
C4     C8      1.402   .     A
C4     C740    1.423   1_554 S
C4     C743    1.417   1_554 S
C5     C6      1.397   .     A
C5     C742    1.417   .     S
C5     C762    1.406   .     S
C6     H33     1.085   .     S
C6     C7      1.396   .     A
C7     N80     1.434   .     S
C8     C25     1.400   .     A
C8     H35     1.077   .     S
C9     C25     1.401   .     A
C9     C24     1.397   .     A
C9     H31     1.083   .     S
C10    C26     1.404   .     A
C10    C12     1.479   .     S
C11    H38     1.084   .     S
C11    C17     1.393   .     A
C11    C259    1.390   .     S
C12    O43     1.302   .     A
C12    O44     1.310   .     A
C13    C14     1.407   .     A
C13    N49     1.433   .     S
C13    C503    1.390   1_545 S
C14    C22     1.442   .     S
C14    C15     1.412   .     A
C15    N52     1.434   .     S
C15    C508    1.387   1_545 S
C16    C17     1.394   .     A
C16    H32     1.085   .     S
C16    C261    1.387   .     S
C18    N40     1.381   .     A
C18    O55     1.380   .     S
C18    C101    1.433   .     S
C19    N63     1.438   .     S
C19    N39     1.366   .     A
C19    C182    1.433   1_455 S
C20    N39     1.378   .     A
C20    O66     1.384   .     S
C20    C185    1.430   1_455 S
C21    N74     1.427   .     S
C21    N40     1.371   .     A
C21    C102    1.430   .     S
C22    O46     1.297   .     A
C22    O45     1.295   .     A
C23    O47     1.301   .     A
C23    O48     1.307   .     A
C23    C25     1.471   .     S
C24    C743    1.406   1_554 S
C24    H772    1.084   1_554 S
C26    C27     1.387   .     A
C26    H36     1.083   .     S
C27    C766    1.398   .     S
C27    H775    1.083   .     S
C28    N77     1.433   .     S
C28    C740    1.424   1_554 S
C28    C765    1.398   1_554 S
Cu29   O47     1.928   .     S
Cu29   O43     1.937   .     S
Cu29   O45     1.950   .     S
Cu29   Cu30    2.705   .     S
Cu29   N39     2.033   .     S
Cu29   O41     1.946   .     S
Cu30   O48     1.937   .     S
Cu30   O44     1.928   .     S
Cu30   N40     2.032   .     S
Cu30   O46     1.946   .     S
Cu30   O42     1.950   .     S
H34    C762    1.084   .     S
H37    C765    1.083   1_554 S
N49    H51     1.046   .     S
N49    H50     1.046   .     S
N52    H54     1.045   .     S
N52    H53     1.046   .     S
O55    C56     1.422   .     S
C56    H57     1.110   .     S
C56    C59     1.522   .     S
C56    H140    1.114   .     S
H58    C220    1.114   1_455 S
C59    H60     1.110   .     S
C59    H62     1.108   .     S
C59    H307    1.110   .     S
H61    C551    1.110   1_545 S
N63    H65     1.043   .     S
N63    H64     1.043   .     S
O66    C67     1.412   .     S
C67    H68     1.106   .     S
C67    H69     1.108   .     S
C67    C70     1.522   .     S
C70    H71     1.110   .     S
C70    H73     1.111   .     S
C70    H72     1.110   .     S
N74    H76     1.045   .     S
N74    H75     1.044   .     S
N77    H78     1.044   .     S
N77    H79     1.046   .     S
N80    H82     1.034   .     S
N80    H81     1.046   .     S
C83    O123    1.292   .     A
C83    C99     1.432   .     S
C83    O124    1.298   .     A
C84    C85     1.417   .     A
C84    C824    1.423   .     S
C84    C848    1.424   .     S
C85    C89     1.419   .     A
C85    C92     1.421   .     A
C86    C90     1.402   .     A
C86    C822    1.423   1_554 S
C86    C825    1.417   1_554 S
C87    C88     1.397   .     A
C87    C824    1.417   .     S
C87    C844    1.406   .     S
C88    H115    1.085   .     S
C88    C89     1.396   .     A
C89    N162    1.434   .     S
C90    C107    1.400   .     A
C90    H117    1.077   .     S
C91    C107    1.401   .     A
C91    C106    1.397   .     A
C91    H113    1.083   .     S
C92    C108    1.404   .     A
C92    C94     1.479   .     S
C93    H120    1.084   .     S
C93    C99     1.393   .     A
C93    C341    1.390   .     S
C94    O125    1.302   .     A
C94    O126    1.310   .     A
C95    C96     1.407   .     A
C95    N131    1.433   .     S
C95    C585    1.390   1_545 S
C96    C104    1.442   .     S
C96    C97     1.412   .     A
C97    N134    1.434   .     S
C97    C590    1.387   1_545 S
C98    C99     1.394   .     A
C98    H114    1.085   .     S
C98    C343    1.387   .     S
C100   N122    1.381   .     A
C100   O137    1.380   .     S
C100   C183    1.433   .     S
C101   N145    1.438   .     S
C101   N121    1.366   .     A
C102   N121    1.378   .     A
C102   O148    1.384   .     S
C103   N156    1.427   .     S
C103   N122    1.371   .     A
C103   C184    1.430   .     S
C104   O128    1.297   .     A
C104   O127    1.295   .     A
C105   O129    1.301   .     A
C105   O130    1.307   .     A
C105   C107    1.471   .     S
C106   C825    1.406   1_554 S
C106   H854    1.084   1_554 S
C108   C109    1.387   .     A
C108   H118    1.083   .     S
C109   C848    1.398   .     S
C109   H857    1.083   .     S
C110   N159    1.433   .     S
C110   C822    1.424   1_554 S
C110   C847    1.398   1_554 S
Cu111  O129    1.928   .     S
Cu111  O125    1.937   .     S
Cu111  O127    1.950   .     S
Cu111  Cu112   2.705   .     S
Cu111  N121    2.033   .     S
Cu111  O123    1.946   .     S
Cu112  O130    1.937   .     S
Cu112  O126    1.928   .     S
Cu112  N122    2.032   .     S
Cu112  O128    1.946   .     S
Cu112  O124    1.950   .     S
H116   C844    1.084   .     S
H119   C847    1.083   1_554 S
N131   H133    1.046   .     S
N131   H132    1.046   .     S
N134   H136    1.045   .     S
N134   H135    1.046   .     S
O137   C138    1.422   .     S
C138   H139    1.110   .     S
C138   C141    1.522   .     S
C138   H222    1.114   .     S
C141   H142    1.110   .     S
C141   H144    1.108   .     S
C141   H389    1.110   .     S
H143   C633    1.110   1_545 S
N145   H147    1.043   .     S
N145   H146    1.043   .     S
O148   C149    1.412   .     S
C149   H150    1.106   .     S
C149   H151    1.108   .     S
C149   C152    1.522   .     S
C152   H153    1.110   .     S
C152   H155    1.111   .     S
C152   H154    1.110   .     S
N156   H158    1.045   .     S
N156   H157    1.044   .     S
N159   H160    1.044   .     S
N159   H161    1.046   .     S
N162   H164    1.034   .     S
N162   H163    1.046   .     S
C165   O205    1.292   .     A
C165   C181    1.432   .     S
C165   O206    1.298   .     A
C166   C167    1.417   .     A
C166   C906    1.423   .     S
C166   C930    1.424   .     S
C167   C171    1.419   .     A
C167   C174    1.421   .     A
C168   C172    1.402   .     A
C168   C904    1.423   1_554 S
C168   C907    1.417   1_554 S
C169   C170    1.397   .     A
C169   C906    1.417   .     S
C169   C926    1.406   .     S
C170   H197    1.085   .     S
C170   C171    1.396   .     A
C171   N244    1.434   .     S
C172   C189    1.400   .     A
C172   H199    1.077   .     S
C173   C189    1.401   .     A
C173   C188    1.397   .     A
C173   H195    1.083   .     S
C174   C190    1.404   .     A
C174   C176    1.479   .     S
C175   H202    1.084   .     S
C175   C181    1.393   .     A
C175   C423    1.390   .     S
C176   O207    1.302   .     A
C176   O208    1.310   .     A
C177   C178    1.407   .     A
C177   N213    1.433   .     S
C177   C667    1.390   1_545 S
C178   C186    1.442   .     S
C178   C179    1.412   .     A
C179   N216    1.434   .     S
C179   C672    1.387   1_545 S
C180   C181    1.394   .     A
C180   H196    1.085   .     S
C180   C425    1.387   .     S
C182   N204    1.381   .     A
C182   O219    1.380   .     S
C182   C19     1.433   1_655 S
C183   N227    1.438   .     S
C183   N203    1.366   .     A
C184   N203    1.378   .     A
C184   O230    1.384   .     S
C185   N238    1.427   .     S
C185   N204    1.371   .     A
C185   C20     1.430   1_655 S
C186   O210    1.297   .     A
C186   O209    1.295   .     A
C187   O211    1.301   .     A
C187   O212    1.307   .     A
C187   C189    1.471   .     S
C188   C907    1.406   1_554 S
C188   H936    1.084   1_554 S
C190   C191    1.387   .     A
C190   H200    1.083   .     S
C191   C930    1.398   .     S
C191   H939    1.083   .     S
C192   N241    1.433   .     S
C192   C904    1.424   1_554 S
C192   C929    1.398   1_554 S
Cu193  O211    1.928   .     S
Cu193  O207    1.937   .     S
Cu193  O209    1.950   .     S
Cu193  Cu194   2.705   .     S
Cu193  N203    2.033   .     S
Cu193  O205    1.946   .     S
Cu194  O212    1.937   .     S
Cu194  O208    1.928   .     S
Cu194  N204    2.032   .     S
Cu194  O210    1.946   .     S
Cu194  O206    1.950   .     S
H198   C926    1.084   .     S
H201   C929    1.083   1_554 S
N213   H215    1.046   .     S
N213   H214    1.046   .     S
N216   H218    1.045   .     S
N216   H217    1.046   .     S
O219   C220    1.422   .     S
C220   H221    1.110   .     S
C220   C223    1.522   .     S
C220   H58     1.114   1_655 S
C223   H224    1.110   .     S
C223   H226    1.108   .     S
C223   H471    1.110   .     S
H225   C715    1.110   1_545 S
N227   H229    1.043   .     S
N227   H228    1.043   .     S
O230   C231    1.412   .     S
C231   H232    1.106   .     S
C231   H233    1.108   .     S
C231   C234    1.522   .     S
C234   H235    1.110   .     S
C234   H237    1.111   .     S
C234   H236    1.110   .     S
N238   H240    1.045   .     S
N238   H239    1.044   .     S
N241   H242    1.044   .     S
N241   H243    1.046   .     S
N244   H246    1.034   .     S
N244   H245    1.046   .     S
C247   O287    1.292   .     A
C247   C263    1.432   .     S
C247   O288    1.298   .     A
C248   C249    1.417   .     A
C248   C988    1.423   .     S
C248   C1012   1.424   .     S
C249   C253    1.419   .     A
C249   C256    1.421   .     A
C250   C254    1.402   .     A
C250   C986    1.423   1_554 S
C250   C989    1.417   1_554 S
C251   C252    1.397   .     A
C251   C988    1.417   .     S
C251   C1008   1.406   .     S
C252   H279    1.085   .     S
C252   C253    1.396   .     A
C253   N326    1.434   .     S
C254   C271    1.400   .     A
C254   H281    1.077   .     S
C255   C271    1.401   .     A
C255   C270    1.397   .     A
C255   H277    1.083   .     S
C256   C272    1.404   .     A
C256   C258    1.479   .     S
C257   H284    1.084   .     S
C257   C263    1.393   .     A
C257   C505    1.390   .     S
C258   O289    1.302   .     A
C258   O290    1.310   .     A
C259   C260    1.407   .     A
C259   N295    1.433   .     S
C260   C268    1.442   .     S
C260   C261    1.412   .     A
C261   N298    1.434   .     S
C262   C263    1.394   .     A
C262   H278    1.085   .     S
C262   C507    1.387   .     S
C264   N286    1.381   .     A
C264   O301    1.380   .     S
C264   C347    1.433   .     S
C265   N309    1.438   .     S
C265   N285    1.366   .     A
C265   C428    1.433   1_455 S
C266   N285    1.378   .     A
C266   O312    1.384   .     S
C266   C431    1.430   1_455 S
C267   N320    1.427   .     S
C267   N286    1.371   .     A
C267   C348    1.430   .     S
C268   O292    1.297   .     A
C268   O291    1.295   .     A
C269   O293    1.301   .     A
C269   O294    1.307   .     A
C269   C271    1.471   .     S
C270   C989    1.406   1_554 S
C270   H1018   1.084   1_554 S
C272   C273    1.387   .     A
C272   H282    1.083   .     S
C273   C1012   1.398   .     S
C273   H1021   1.083   .     S
C274   N323    1.433   .     S
C274   C986    1.424   1_554 S
C274   C1011   1.398   1_554 S
Cu275  O293    1.928   .     S
Cu275  O289    1.937   .     S
Cu275  O291    1.950   .     S
Cu275  Cu276   2.705   .     S
Cu275  N285    2.033   .     S
Cu275  O287    1.946   .     S
Cu276  O294    1.937   .     S
Cu276  O290    1.928   .     S
Cu276  N286    2.032   .     S
Cu276  O292    1.946   .     S
Cu276  O288    1.950   .     S
H280   C1008   1.084   .     S
H283   C1011   1.083   1_554 S
N295   H297    1.046   .     S
N295   H296    1.046   .     S
N298   H300    1.045   .     S
N298   H299    1.046   .     S
O301   C302    1.422   .     S
C302   H303    1.110   .     S
C302   C305    1.522   .     S
C302   H386    1.114   .     S
H304   C466    1.114   1_455 S
C305   H306    1.110   .     S
C305   H308    1.108   .     S
C305   H553    1.110   .     S
N309   H311    1.043   .     S
N309   H310    1.043   .     S
O312   C313    1.412   .     S
C313   H314    1.106   .     S
C313   H315    1.108   .     S
C313   C316    1.522   .     S
C316   H317    1.110   .     S
C316   H319    1.111   .     S
C316   H318    1.110   .     S
N320   H322    1.045   .     S
N320   H321    1.044   .     S
N323   H324    1.044   .     S
N323   H325    1.046   .     S
N326   H328    1.034   .     S
N326   H327    1.046   .     S
C329   O369    1.292   .     A
C329   C345    1.432   .     S
C329   O370    1.298   .     A
C330   C331    1.417   .     A
C330   C1070   1.423   .     S
C330   C1094   1.424   .     S
C331   C335    1.419   .     A
C331   C338    1.421   .     A
C332   C336    1.402   .     A
C332   C1068   1.423   1_554 S
C332   C1071   1.417   1_554 S
C333   C334    1.397   .     A
C333   C1070   1.417   .     S
C333   C1090   1.406   .     S
C334   H361    1.085   .     S
C334   C335    1.396   .     A
C335   N408    1.434   .     S
C336   C353    1.400   .     A
C336   H363    1.077   .     S
C337   C353    1.401   .     A
C337   C352    1.397   .     A
C337   H359    1.083   .     S
C338   C354    1.404   .     A
C338   C340    1.479   .     S
C339   H366    1.084   .     S
C339   C345    1.393   .     A
C339   C587    1.390   .     S
C340   O371    1.302   .     A
C340   O372    1.310   .     A
C341   C342    1.407   .     A
C341   N377    1.433   .     S
C342   C350    1.442   .     S
C342   C343    1.412   .     A
C343   N380    1.434   .     S
C344   C345    1.394   .     A
C344   H360    1.085   .     S
C344   C589    1.387   .     S
C346   N368    1.381   .     A
C346   O383    1.380   .     S
C346   C429    1.433   .     S
C347   N391    1.438   .     S
C347   N367    1.366   .     A
C348   N367    1.378   .     A
C348   O394    1.384   .     S
C349   N402    1.427   .     S
C349   N368    1.371   .     A
C349   C430    1.430   .     S
C350   O374    1.297   .     A
C350   O373    1.295   .     A
C351   O375    1.301   .     A
C351   O376    1.307   .     A
C351   C353    1.471   .     S
C352   C1071   1.406   1_554 S
C352   H1100   1.084   1_554 S
C354   C355    1.387   .     A
C354   H364    1.083   .     S
C355   C1094   1.398   .     S
C355   H1103   1.083   .     S
C356   N405    1.433   .     S
C356   C1068   1.424   1_554 S
C356   C1093   1.398   1_554 S
Cu357  O375    1.928   .     S
Cu357  O371    1.937   .     S
Cu357  O373    1.950   .     S
Cu357  Cu358   2.705   .     S
Cu357  N367    2.033   .     S
Cu357  O369    1.946   .     S
Cu358  O376    1.937   .     S
Cu358  O372    1.928   .     S
Cu358  N368    2.032   .     S
Cu358  O374    1.946   .     S
Cu358  O370    1.950   .     S
H362   C1090   1.084   .     S
H365   C1093   1.083   1_554 S
N377   H379    1.046   .     S
N377   H378    1.046   .     S
N380   H382    1.045   .     S
N380   H381    1.046   .     S
O383   C384    1.422   .     S
C384   H385    1.110   .     S
C384   C387    1.522   .     S
C384   H468    1.114   .     S
C387   H388    1.110   .     S
C387   H390    1.108   .     S
C387   H635    1.110   .     S
N391   H393    1.043   .     S
N391   H392    1.043   .     S
O394   C395    1.412   .     S
C395   H396    1.106   .     S
C395   H397    1.108   .     S
C395   C398    1.522   .     S
C398   H399    1.110   .     S
C398   H401    1.111   .     S
C398   H400    1.110   .     S
N402   H404    1.045   .     S
N402   H403    1.044   .     S
N405   H406    1.044   .     S
N405   H407    1.046   .     S
N408   H410    1.034   .     S
N408   H409    1.046   .     S
C411   O451    1.292   .     A
C411   C427    1.432   .     S
C411   O452    1.298   .     A
C412   C413    1.417   .     A
C412   C1152   1.423   .     S
C412   C1176   1.424   .     S
C413   C417    1.419   .     A
C413   C420    1.421   .     A
C414   C418    1.402   .     A
C414   C1150   1.423   1_554 S
C414   C1153   1.417   1_554 S
C415   C416    1.397   .     A
C415   C1152   1.417   .     S
C415   C1172   1.406   .     S
C416   H443    1.085   .     S
C416   C417    1.396   .     A
C417   N490    1.434   .     S
C418   C435    1.400   .     A
C418   H445    1.077   .     S
C419   C435    1.401   .     A
C419   C434    1.397   .     A
C419   H441    1.083   .     S
C420   C436    1.404   .     A
C420   C422    1.479   .     S
C421   H448    1.084   .     S
C421   C427    1.393   .     A
C421   C669    1.390   .     S
C422   O453    1.302   .     A
C422   O454    1.310   .     A
C423   C424    1.407   .     A
C423   N459    1.433   .     S
C424   C432    1.442   .     S
C424   C425    1.412   .     A
C425   N462    1.434   .     S
C426   C427    1.394   .     A
C426   H442    1.085   .     S
C426   C671    1.387   .     S
C428   N450    1.381   .     A
C428   O465    1.380   .     S
C428   C265    1.433   1_655 S
C429   N473    1.438   .     S
C429   N449    1.366   .     A
C430   N449    1.378   .     A
C430   O476    1.384   .     S
C431   N484    1.427   .     S
C431   N450    1.371   .     A
C431   C266    1.430   1_655 S
C432   O456    1.297   .     A
C432   O455    1.295   .     A
C433   O457    1.301   .     A
C433   O458    1.307   .     A
C433   C435    1.471   .     S
C434   C1153   1.406   1_554 S
C434   H1182   1.084   1_554 S
C436   C437    1.387   .     A
C436   H446    1.083   .     S
C437   C1176   1.398   .     S
C437   H1185   1.083   .     S
C438   N487    1.433   .     S
C438   C1150   1.424   1_554 S
C438   C1175   1.398   1_554 S
Cu439  O457    1.928   .     S
Cu439  O453    1.937   .     S
Cu439  O455    1.950   .     S
Cu439  Cu440   2.705   .     S
Cu439  N449    2.033   .     S
Cu439  O451    1.946   .     S
Cu440  O458    1.937   .     S
Cu440  O454    1.928   .     S
Cu440  N450    2.032   .     S
Cu440  O456    1.946   .     S
Cu440  O452    1.950   .     S
H444   C1172   1.084   .     S
H447   C1175   1.083   1_554 S
N459   H461    1.046   .     S
N459   H460    1.046   .     S
N462   H464    1.045   .     S
N462   H463    1.046   .     S
O465   C466    1.422   .     S
C466   H467    1.110   .     S
C466   C469    1.522   .     S
C466   H304    1.114   1_655 S
C469   H470    1.110   .     S
C469   H472    1.108   .     S
C469   H717    1.110   .     S
N473   H475    1.043   .     S
N473   H474    1.043   .     S
O476   C477    1.412   .     S
C477   H478    1.106   .     S
C477   H479    1.108   .     S
C477   C480    1.522   .     S
C480   H481    1.110   .     S
C480   H483    1.111   .     S
C480   H482    1.110   .     S
N484   H486    1.045   .     S
N484   H485    1.044   .     S
N487   H488    1.044   .     S
N487   H489    1.046   .     S
N490   H492    1.034   .     S
N490   H491    1.046   .     S
C493   O533    1.292   .     A
C493   C509    1.432   .     S
C493   O534    1.298   .     A
C494   C495    1.417   .     A
C494   C1234   1.423   .     S
C494   C1258   1.424   .     S
C495   C499    1.419   .     A
C495   C502    1.421   .     A
C496   C500    1.402   .     A
C496   C1232   1.423   1_554 S
C496   C1235   1.417   1_554 S
C497   C498    1.397   .     A
C497   C1234   1.417   .     S
C497   C1254   1.406   .     S
C498   H525    1.085   .     S
C498   C499    1.396   .     A
C499   N572    1.434   .     S
C500   C517    1.400   .     A
C500   H527    1.077   .     S
C501   C517    1.401   .     A
C501   C516    1.397   .     A
C501   H523    1.083   .     S
C502   C518    1.404   .     A
C502   C504    1.479   .     S
C503   H530    1.084   .     S
C503   C509    1.393   .     A
C503   C13     1.390   1_565 S
C504   O535    1.302   .     A
C504   O536    1.310   .     A
C505   C506    1.407   .     A
C505   N541    1.433   .     S
C506   C514    1.442   .     S
C506   C507    1.412   .     A
C507   N544    1.434   .     S
C508   C509    1.394   .     A
C508   H524    1.085   .     S
C508   C15     1.387   1_565 S
C510   N532    1.381   .     A
C510   O547    1.380   .     S
C510   C593    1.433   .     S
C511   N555    1.438   .     S
C511   N531    1.366   .     A
C511   C674    1.433   1_455 S
C512   N531    1.378   .     A
C512   O558    1.384   .     S
C512   C677    1.430   1_455 S
C513   N566    1.427   .     S
C513   N532    1.371   .     A
C513   C594    1.430   .     S
C514   O538    1.297   .     A
C514   O537    1.295   .     A
C515   O539    1.301   .     A
C515   O540    1.307   .     A
C515   C517    1.471   .     S
C516   C1235   1.406   1_554 S
C516   H1264   1.084   1_554 S
C518   C519    1.387   .     A
C518   H528    1.083   .     S
C519   C1258   1.398   .     S
C519   H1267   1.083   .     S
C520   N569    1.433   .     S
C520   C1232   1.424   1_554 S
C520   C1257   1.398   1_554 S
Cu521  O539    1.928   .     S
Cu521  O535    1.937   .     S
Cu521  O537    1.950   .     S
Cu521  Cu522   2.705   .     S
Cu521  N531    2.033   .     S
Cu521  O533    1.946   .     S
Cu522  O540    1.937   .     S
Cu522  O536    1.928   .     S
Cu522  N532    2.032   .     S
Cu522  O538    1.946   .     S
Cu522  O534    1.950   .     S
H526   C1254   1.084   .     S
H529   C1257   1.083   1_554 S
N541   H543    1.046   .     S
N541   H542    1.046   .     S
N544   H546    1.045   .     S
N544   H545    1.046   .     S
O547   C548    1.422   .     S
C548   H549    1.110   .     S
C548   C551    1.522   .     S
C548   H632    1.114   .     S
H550   C712    1.114   1_455 S
C551   H552    1.110   .     S
C551   H554    1.108   .     S
C551   H61     1.110   1_565 S
N555   H557    1.043   .     S
N555   H556    1.043   .     S
O558   C559    1.412   .     S
C559   H560    1.106   .     S
C559   H561    1.108   .     S
C559   C562    1.522   .     S
C562   H563    1.110   .     S
C562   H565    1.111   .     S
C562   H564    1.110   .     S
N566   H568    1.045   .     S
N566   H567    1.044   .     S
N569   H570    1.044   .     S
N569   H571    1.046   .     S
N572   H574    1.034   .     S
N572   H573    1.046   .     S
C575   O615    1.292   .     A
C575   C591    1.432   .     S
C575   O616    1.298   .     A
C576   C577    1.417   .     A
C576   C1316   1.423   .     S
C576   C1340   1.424   .     S
C577   C581    1.419   .     A
C577   C584    1.421   .     A
C578   C582    1.402   .     A
C578   C1314   1.423   1_554 S
C578   C1317   1.417   1_554 S
C579   C580    1.397   .     A
C579   C1316   1.417   .     S
C579   C1336   1.406   .     S
C580   H607    1.085   .     S
C580   C581    1.396   .     A
C581   N654    1.434   .     S
C582   C599    1.400   .     A
C582   H609    1.077   .     S
C583   C599    1.401   .     A
C583   C598    1.397   .     A
C583   H605    1.083   .     S
C584   C600    1.404   .     A
C584   C586    1.479   .     S
C585   H612    1.084   .     S
C585   C591    1.393   .     A
C585   C95     1.390   1_565 S
C586   O617    1.302   .     A
C586   O618    1.310   .     A
C587   C588    1.407   .     A
C587   N623    1.433   .     S
C588   C596    1.442   .     S
C588   C589    1.412   .     A
C589   N626    1.434   .     S
C590   C591    1.394   .     A
C590   H606    1.085   .     S
C590   C97     1.387   1_565 S
C592   N614    1.381   .     A
C592   O629    1.380   .     S
C592   C675    1.433   .     S
C593   N637    1.438   .     S
C593   N613    1.366   .     A
C594   N613    1.378   .     A
C594   O640    1.384   .     S
C595   N648    1.427   .     S
C595   N614    1.371   .     A
C595   C676    1.430   .     S
C596   O620    1.297   .     A
C596   O619    1.295   .     A
C597   O621    1.301   .     A
C597   O622    1.307   .     A
C597   C599    1.471   .     S
C598   C1317   1.406   1_554 S
C598   H1346   1.084   1_554 S
C600   C601    1.387   .     A
C600   H610    1.083   .     S
C601   C1340   1.398   .     S
C601   H1349   1.083   .     S
C602   N651    1.433   .     S
C602   C1314   1.424   1_554 S
C602   C1339   1.398   1_554 S
Cu603  O621    1.928   .     S
Cu603  O617    1.937   .     S
Cu603  O619    1.950   .     S
Cu603  Cu604   2.705   .     S
Cu603  N613    2.033   .     S
Cu603  O615    1.946   .     S
Cu604  O622    1.937   .     S
Cu604  O618    1.928   .     S
Cu604  N614    2.032   .     S
Cu604  O620    1.946   .     S
Cu604  O616    1.950   .     S
H608   C1336   1.084   .     S
H611   C1339   1.083   1_554 S
N623   H625    1.046   .     S
N623   H624    1.046   .     S
N626   H628    1.045   .     S
N626   H627    1.046   .     S
O629   C630    1.422   .     S
C630   H631    1.110   .     S
C630   C633    1.522   .     S
C630   H714    1.114   .     S
C633   H634    1.110   .     S
C633   H636    1.108   .     S
C633   H143    1.110   1_565 S
N637   H639    1.043   .     S
N637   H638    1.043   .     S
O640   C641    1.412   .     S
C641   H642    1.106   .     S
C641   H643    1.108   .     S
C641   C644    1.522   .     S
C644   H645    1.110   .     S
C644   H647    1.111   .     S
C644   H646    1.110   .     S
N648   H650    1.045   .     S
N648   H649    1.044   .     S
N651   H652    1.044   .     S
N651   H653    1.046   .     S
N654   H656    1.034   .     S
N654   H655    1.046   .     S
C657   O697    1.292   .     A
C657   C673    1.432   .     S
C657   O698    1.298   .     A
C658   C659    1.417   .     A
C658   C1398   1.423   .     S
C658   C1422   1.424   .     S
C659   C663    1.419   .     A
C659   C666    1.421   .     A
C660   C664    1.402   .     A
C660   C1396   1.423   1_554 S
C660   C1399   1.417   1_554 S
C661   C662    1.397   .     A
C661   C1398   1.417   .     S
C661   C1418   1.406   .     S
C662   H689    1.085   .     S
C662   C663    1.396   .     A
C663   N736    1.434   .     S
C664   C681    1.400   .     A
C664   H691    1.077   .     S
C665   C681    1.401   .     A
C665   C680    1.397   .     A
C665   H687    1.083   .     S
C666   C682    1.404   .     A
C666   C668    1.479   .     S
C667   H694    1.084   .     S
C667   C673    1.393   .     A
C667   C177    1.390   1_565 S
C668   O699    1.302   .     A
C668   O700    1.310   .     A
C669   C670    1.407   .     A
C669   N705    1.433   .     S
C670   C678    1.442   .     S
C670   C671    1.412   .     A
C671   N708    1.434   .     S
C672   C673    1.394   .     A
C672   H688    1.085   .     S
C672   C179    1.387   1_565 S
C674   N696    1.381   .     A
C674   O711    1.380   .     S
C674   C511    1.433   1_655 S
C675   N719    1.438   .     S
C675   N695    1.366   .     A
C676   N695    1.378   .     A
C676   O722    1.384   .     S
C677   N730    1.427   .     S
C677   N696    1.371   .     A
C677   C512    1.430   1_655 S
C678   O702    1.297   .     A
C678   O701    1.295   .     A
C679   O703    1.301   .     A
C679   O704    1.307   .     A
C679   C681    1.471   .     S
C680   C1399   1.406   1_554 S
C680   H1428   1.084   1_554 S
C682   C683    1.387   .     A
C682   H692    1.083   .     S
C683   C1422   1.398   .     S
C683   H1431   1.083   .     S
C684   N733    1.433   .     S
C684   C1396   1.424   1_554 S
C684   C1421   1.398   1_554 S
Cu685  O703    1.928   .     S
Cu685  O699    1.937   .     S
Cu685  O701    1.950   .     S
Cu685  Cu686   2.705   .     S
Cu685  N695    2.033   .     S
Cu685  O697    1.946   .     S
Cu686  O704    1.937   .     S
Cu686  O700    1.928   .     S
Cu686  N696    2.032   .     S
Cu686  O702    1.946   .     S
Cu686  O698    1.950   .     S
H690   C1418   1.084   .     S
H693   C1421   1.083   1_554 S
N705   H707    1.046   .     S
N705   H706    1.046   .     S
N708   H710    1.045   .     S
N708   H709    1.046   .     S
O711   C712    1.422   .     S
C712   H713    1.110   .     S
C712   C715    1.522   .     S
C712   H550    1.114   1_655 S
C715   H716    1.110   .     S
C715   H718    1.108   .     S
C715   H225    1.110   1_565 S
N719   H721    1.043   .     S
N719   H720    1.043   .     S
O722   C723    1.412   .     S
C723   H724    1.106   .     S
C723   H725    1.108   .     S
C723   C726    1.522   .     S
C726   H727    1.110   .     S
C726   H729    1.111   .     S
C726   H728    1.110   .     S
N730   H732    1.045   .     S
N730   H731    1.044   .     S
N733   H734    1.044   .     S
N733   H735    1.046   .     S
N736   H738    1.034   .     S
N736   H737    1.046   .     S
C739   O779    1.292   .     A
C739   C755    1.432   .     S
C739   O780    1.298   .     A
C740   C741    1.417   .     A
C740   C4      1.423   1_556 S
C740   C28     1.424   1_556 S
C741   C745    1.419   .     A
C741   C748    1.421   .     A
C742   C746    1.402   .     A
C743   C744    1.397   .     A
C743   C4      1.417   1_556 S
C743   C24     1.406   1_556 S
C744   H771    1.085   .     S
C744   C745    1.396   .     A
C745   N818    1.434   .     S
C746   C763    1.400   .     A
C746   H773    1.077   .     S
C747   C763    1.401   .     A
C747   C762    1.397   .     A
C747   H769    1.083   .     S
C748   C764    1.404   .     A
C748   C750    1.479   .     S
C749   H776    1.084   .     S
C749   C755    1.393   .     A
C749   C997    1.390   .     S
C750   O781    1.302   .     A
C750   O782    1.310   .     A
C751   C752    1.407   .     A
C751   N787    1.433   .     S
C751   C1241   1.390   1_545 S
C752   C760    1.442   .     S
C752   C753    1.412   .     A
C753   N790    1.434   .     S
C753   C1246   1.387   1_545 S
C754   C755    1.394   .     A
C754   H770    1.085   .     S
C754   C999    1.387   .     S
C756   N778    1.381   .     A
C756   O793    1.380   .     S
C756   C839    1.433   .     S
C757   N801    1.438   .     S
C757   N777    1.366   .     A
C757   C920    1.433   1_455 S
C758   N777    1.378   .     A
C758   O804    1.384   .     S
C758   C923    1.430   1_455 S
C759   N812    1.427   .     S
C759   N778    1.371   .     A
C759   C840    1.430   .     S
C760   O784    1.297   .     A
C760   O783    1.295   .     A
C761   O785    1.301   .     A
C761   O786    1.307   .     A
C761   C763    1.471   .     S
C764   C765    1.387   .     A
C764   H774    1.083   .     S
C765   C28     1.398   1_556 S
C765   H37     1.083   1_556 S
C766   N815    1.433   .     S
Cu767  O785    1.928   .     S
Cu767  O781    1.937   .     S
Cu767  O783    1.950   .     S
Cu767  Cu768   2.705   .     S
Cu767  N777    2.033   .     S
Cu767  O779    1.946   .     S
Cu768  O786    1.937   .     S
Cu768  O782    1.928   .     S
Cu768  N778    2.032   .     S
Cu768  O784    1.946   .     S
Cu768  O780    1.950   .     S
H772   C24     1.084   1_556 S
N787   H789    1.046   .     S
N787   H788    1.046   .     S
N790   H792    1.045   .     S
N790   H791    1.046   .     S
O793   C794    1.422   .     S
C794   H795    1.110   .     S
C794   C797    1.522   .     S
C794   H878    1.114   .     S
H796   C958    1.114   1_455 S
C797   H798    1.110   .     S
C797   H800    1.108   .     S
C797   H1045   1.110   .     S
H799   C1289   1.110   1_545 S
N801   H803    1.043   .     S
N801   H802    1.043   .     S
O804   C805    1.412   .     S
C805   H806    1.106   .     S
C805   H807    1.108   .     S
C805   C808    1.522   .     S
C808   H809    1.110   .     S
C808   H811    1.111   .     S
C808   H810    1.110   .     S
N812   H814    1.045   .     S
N812   H813    1.044   .     S
N815   H816    1.044   .     S
N815   H817    1.046   .     S
N818   H820    1.034   .     S
N818   H819    1.046   .     S
C821   O861    1.292   .     A
C821   C837    1.432   .     S
C821   O862    1.298   .     A
C822   C823    1.417   .     A
C822   C86     1.423   1_556 S
C822   C110    1.424   1_556 S
C823   C827    1.419   .     A
C823   C830    1.421   .     A
C824   C828    1.402   .     A
C825   C826    1.397   .     A
C825   C86     1.417   1_556 S
C825   C106    1.406   1_556 S
C826   H853    1.085   .     S
C826   C827    1.396   .     A
C827   N900    1.434   .     S
C828   C845    1.400   .     A
C828   H855    1.077   .     S
C829   C845    1.401   .     A
C829   C844    1.397   .     A
C829   H851    1.083   .     S
C830   C846    1.404   .     A
C830   C832    1.479   .     S
C831   H858    1.084   .     S
C831   C837    1.393   .     A
C831   C1079   1.390   .     S
C832   O863    1.302   .     A
C832   O864    1.310   .     A
C833   C834    1.407   .     A
C833   N869    1.433   .     S
C833   C1323   1.390   1_545 S
C834   C842    1.442   .     S
C834   C835    1.412   .     A
C835   N872    1.434   .     S
C835   C1328   1.387   1_545 S
C836   C837    1.394   .     A
C836   H852    1.085   .     S
C836   C1081   1.387   .     S
C838   N860    1.381   .     A
C838   O875    1.380   .     S
C838   C921    1.433   .     S
C839   N883    1.438   .     S
C839   N859    1.366   .     A
C840   N859    1.378   .     A
C840   O886    1.384   .     S
C841   N894    1.427   .     S
C841   N860    1.371   .     A
C841   C922    1.430   .     S
C842   O866    1.297   .     A
C842   O865    1.295   .     A
C843   O867    1.301   .     A
C843   O868    1.307   .     A
C843   C845    1.471   .     S
C846   C847    1.387   .     A
C846   H856    1.083   .     S
C847   C110    1.398   1_556 S
C847   H119    1.083   1_556 S
C848   N897    1.433   .     S
Cu849  O867    1.928   .     S
Cu849  O863    1.937   .     S
Cu849  O865    1.950   .     S
Cu849  Cu850   2.705   .     S
Cu849  N859    2.033   .     S
Cu849  O861    1.946   .     S
Cu850  O868    1.937   .     S
Cu850  O864    1.928   .     S
Cu850  N860    2.032   .     S
Cu850  O866    1.946   .     S
Cu850  O862    1.950   .     S
H854   C106    1.084   1_556 S
N869   H871    1.046   .     S
N869   H870    1.046   .     S
N872   H874    1.045   .     S
N872   H873    1.046   .     S
O875   C876    1.422   .     S
C876   H877    1.110   .     S
C876   C879    1.522   .     S
C876   H960    1.114   .     S
C879   H880    1.110   .     S
C879   H882    1.108   .     S
C879   H1127   1.110   .     S
H881   C1371   1.110   1_545 S
N883   H885    1.043   .     S
N883   H884    1.043   .     S
O886   C887    1.412   .     S
C887   H888    1.106   .     S
C887   H889    1.108   .     S
C887   C890    1.522   .     S
C890   H891    1.110   .     S
C890   H893    1.111   .     S
C890   H892    1.110   .     S
N894   H896    1.045   .     S
N894   H895    1.044   .     S
N897   H898    1.044   .     S
N897   H899    1.046   .     S
N900   H902    1.034   .     S
N900   H901    1.046   .     S
C903   O943    1.292   .     A
C903   C919    1.432   .     S
C903   O944    1.298   .     A
C904   C905    1.417   .     A
C904   C168    1.423   1_556 S
C904   C192    1.424   1_556 S
C905   C909    1.419   .     A
C905   C912    1.421   .     A
C906   C910    1.402   .     A
C907   C908    1.397   .     A
C907   C168    1.417   1_556 S
C907   C188    1.406   1_556 S
C908   H935    1.085   .     S
C908   C909    1.396   .     A
C909   N982    1.434   .     S
C910   C927    1.400   .     A
C910   H937    1.077   .     S
C911   C927    1.401   .     A
C911   C926    1.397   .     A
C911   H933    1.083   .     S
C912   C928    1.404   .     A
C912   C914    1.479   .     S
C913   H940    1.084   .     S
C913   C919    1.393   .     A
C913   C1161   1.390   .     S
C914   O945    1.302   .     A
C914   O946    1.310   .     A
C915   C916    1.407   .     A
C915   N951    1.433   .     S
C915   C1405   1.390   1_545 S
C916   C924    1.442   .     S
C916   C917    1.412   .     A
C917   N954    1.434   .     S
C917   C1410   1.387   1_545 S
C918   C919    1.394   .     A
C918   H934    1.085   .     S
C918   C1163   1.387   .     S
C920   N942    1.381   .     A
C920   O957    1.380   .     S
C920   C757    1.433   1_655 S
C921   N965    1.438   .     S
C921   N941    1.366   .     A
C922   N941    1.378   .     A
C922   O968    1.384   .     S
C923   N976    1.427   .     S
C923   N942    1.371   .     A
C923   C758    1.430   1_655 S
C924   O948    1.297   .     A
C924   O947    1.295   .     A
C925   O949    1.301   .     A
C925   O950    1.307   .     A
C925   C927    1.471   .     S
C928   C929    1.387   .     A
C928   H938    1.083   .     S
C929   C192    1.398   1_556 S
C929   H201    1.083   1_556 S
C930   N979    1.433   .     S
Cu931  O949    1.928   .     S
Cu931  O945    1.937   .     S
Cu931  O947    1.950   .     S
Cu931  Cu932   2.705   .     S
Cu931  N941    2.033   .     S
Cu931  O943    1.946   .     S
Cu932  O950    1.937   .     S
Cu932  O946    1.928   .     S
Cu932  N942    2.032   .     S
Cu932  O948    1.946   .     S
Cu932  O944    1.950   .     S
H936   C188    1.084   1_556 S
N951   H953    1.046   .     S
N951   H952    1.046   .     S
N954   H956    1.045   .     S
N954   H955    1.046   .     S
O957   C958    1.422   .     S
C958   H959    1.110   .     S
C958   C961    1.522   .     S
C958   H796    1.114   1_655 S
C961   H962    1.110   .     S
C961   H964    1.108   .     S
C961   H1209   1.110   .     S
H963   C1453   1.110   1_545 S
N965   H967    1.043   .     S
N965   H966    1.043   .     S
O968   C969    1.412   .     S
C969   H970    1.106   .     S
C969   H971    1.108   .     S
C969   C972    1.522   .     S
C972   H973    1.110   .     S
C972   H975    1.111   .     S
C972   H974    1.110   .     S
N976   H978    1.045   .     S
N976   H977    1.044   .     S
N979   H980    1.044   .     S
N979   H981    1.046   .     S
N982   H984    1.034   .     S
N982   H983    1.046   .     S
C985   O1025   1.292   .     A
C985   C1001   1.432   .     S
C985   O1026   1.298   .     A
C986   C987    1.417   .     A
C986   C250    1.423   1_556 S
C986   C274    1.424   1_556 S
C987   C991    1.419   .     A
C987   C994    1.421   .     A
C988   C992    1.402   .     A
C989   C990    1.397   .     A
C989   C250    1.417   1_556 S
C989   C270    1.406   1_556 S
C990   H1017   1.085   .     S
C990   C991    1.396   .     A
C991   N1064   1.434   .     S
C992   C1009   1.400   .     A
C992   H1019   1.077   .     S
C993   C1009   1.401   .     A
C993   C1008   1.397   .     A
C993   H1015   1.083   .     S
C994   C1010   1.404   .     A
C994   C996    1.479   .     S
C995   H1022   1.084   .     S
C995   C1001   1.393   .     A
C995   C1243   1.390   .     S
C996   O1027   1.302   .     A
C996   O1028   1.310   .     A
C997   C998    1.407   .     A
C997   N1033   1.433   .     S
C998   C1006   1.442   .     S
C998   C999    1.412   .     A
C999   N1036   1.434   .     S
C1000  C1001   1.394   .     A
C1000  H1016   1.085   .     S
C1000  C1245   1.387   .     S
C1002  N1024   1.381   .     A
C1002  O1039   1.380   .     S
C1002  C1085   1.433   .     S
C1003  N1047   1.438   .     S
C1003  N1023   1.366   .     A
C1003  C1166   1.433   1_455 S
C1004  N1023   1.378   .     A
C1004  O1050   1.384   .     S
C1004  C1169   1.430   1_455 S
C1005  N1058   1.427   .     S
C1005  N1024   1.371   .     A
C1005  C1086   1.430   .     S
C1006  O1030   1.297   .     A
C1006  O1029   1.295   .     A
C1007  O1031   1.301   .     A
C1007  O1032   1.307   .     A
C1007  C1009   1.471   .     S
C1010  C1011   1.387   .     A
C1010  H1020   1.083   .     S
C1011  C274    1.398   1_556 S
C1011  H283    1.083   1_556 S
C1012  N1061   1.433   .     S
Cu1013 O1031   1.928   .     S
Cu1013 O1027   1.937   .     S
Cu1013 O1029   1.950   .     S
Cu1013 Cu1014  2.705   .     S
Cu1013 N1023   2.033   .     S
Cu1013 O1025   1.946   .     S
Cu1014 O1032   1.937   .     S
Cu1014 O1028   1.928   .     S
Cu1014 N1024   2.032   .     S
Cu1014 O1030   1.946   .     S
Cu1014 O1026   1.950   .     S
H1018  C270    1.084   1_556 S
N1033  H1035   1.046   .     S
N1033  H1034   1.046   .     S
N1036  H1038   1.045   .     S
N1036  H1037   1.046   .     S
O1039  C1040   1.422   .     S
C1040  H1041   1.110   .     S
C1040  C1043   1.522   .     S
C1040  H1124   1.114   .     S
H1042  C1204   1.114   1_455 S
C1043  H1044   1.110   .     S
C1043  H1046   1.108   .     S
C1043  H1291   1.110   .     S
N1047  H1049   1.043   .     S
N1047  H1048   1.043   .     S
O1050  C1051   1.412   .     S
C1051  H1052   1.106   .     S
C1051  H1053   1.108   .     S
C1051  C1054   1.522   .     S
C1054  H1055   1.110   .     S
C1054  H1057   1.111   .     S
C1054  H1056   1.110   .     S
N1058  H1060   1.045   .     S
N1058  H1059   1.044   .     S
N1061  H1062   1.044   .     S
N1061  H1063   1.046   .     S
N1064  H1066   1.034   .     S
N1064  H1065   1.046   .     S
C1067  O1107   1.292   .     A
C1067  C1083   1.432   .     S
C1067  O1108   1.298   .     A
C1068  C1069   1.417   .     A
C1068  C332    1.423   1_556 S
C1068  C356    1.424   1_556 S
C1069  C1073   1.419   .     A
C1069  C1076   1.421   .     A
C1070  C1074   1.402   .     A
C1071  C1072   1.397   .     A
C1071  C332    1.417   1_556 S
C1071  C352    1.406   1_556 S
C1072  H1099   1.085   .     S
C1072  C1073   1.396   .     A
C1073  N1146   1.434   .     S
C1074  C1091   1.400   .     A
C1074  H1101   1.077   .     S
C1075  C1091   1.401   .     A
C1075  C1090   1.397   .     A
C1075  H1097   1.083   .     S
C1076  C1092   1.404   .     A
C1076  C1078   1.479   .     S
C1077  H1104   1.084   .     S
C1077  C1083   1.393   .     A
C1077  C1325   1.390   .     S
C1078  O1109   1.302   .     A
C1078  O1110   1.310   .     A
C1079  C1080   1.407   .     A
C1079  N1115   1.433   .     S
C1080  C1088   1.442   .     S
C1080  C1081   1.412   .     A
C1081  N1118   1.434   .     S
C1082  C1083   1.394   .     A
C1082  H1098   1.085   .     S
C1082  C1327   1.387   .     S
C1084  N1106   1.381   .     A
C1084  O1121   1.380   .     S
C1084  C1167   1.433   .     S
C1085  N1129   1.438   .     S
C1085  N1105   1.366   .     A
C1086  N1105   1.378   .     A
C1086  O1132   1.384   .     S
C1087  N1140   1.427   .     S
C1087  N1106   1.371   .     A
C1087  C1168   1.430   .     S
C1088  O1112   1.297   .     A
C1088  O1111   1.295   .     A
C1089  O1113   1.301   .     A
C1089  O1114   1.307   .     A
C1089  C1091   1.471   .     S
C1092  C1093   1.387   .     A
C1092  H1102   1.083   .     S
C1093  C356    1.398   1_556 S
C1093  H365    1.083   1_556 S
C1094  N1143   1.433   .     S
Cu1095 O1113   1.928   .     S
Cu1095 O1109   1.937   .     S
Cu1095 O1111   1.950   .     S
Cu1095 Cu1096  2.705   .     S
Cu1095 N1105   2.033   .     S
Cu1095 O1107   1.946   .     S
Cu1096 O1114   1.937   .     S
Cu1096 O1110   1.928   .     S
Cu1096 N1106   2.032   .     S
Cu1096 O1112   1.946   .     S
Cu1096 O1108   1.950   .     S
H1100  C352    1.084   1_556 S
N1115  H1117   1.046   .     S
N1115  H1116   1.046   .     S
N1118  H1120   1.045   .     S
N1118  H1119   1.046   .     S
O1121  C1122   1.422   .     S
C1122  H1123   1.110   .     S
C1122  C1125   1.522   .     S
C1122  H1206   1.114   .     S
C1125  H1126   1.110   .     S
C1125  H1128   1.108   .     S
C1125  H1373   1.110   .     S
N1129  H1131   1.043   .     S
N1129  H1130   1.043   .     S
O1132  C1133   1.412   .     S
C1133  H1134   1.106   .     S
C1133  H1135   1.108   .     S
C1133  C1136   1.522   .     S
C1136  H1137   1.110   .     S
C1136  H1139   1.111   .     S
C1136  H1138   1.110   .     S
N1140  H1142   1.045   .     S
N1140  H1141   1.044   .     S
N1143  H1144   1.044   .     S
N1143  H1145   1.046   .     S
N1146  H1148   1.034   .     S
N1146  H1147   1.046   .     S
C1149  O1189   1.292   .     A
C1149  C1165   1.432   .     S
C1149  O1190   1.298   .     A
C1150  C1151   1.417   .     A
C1150  C414    1.423   1_556 S
C1150  C438    1.424   1_556 S
C1151  C1155   1.419   .     A
C1151  C1158   1.421   .     A
C1152  C1156   1.402   .     A
C1153  C1154   1.397   .     A
C1153  C414    1.417   1_556 S
C1153  C434    1.406   1_556 S
C1154  H1181   1.085   .     S
C1154  C1155   1.396   .     A
C1155  N1228   1.434   .     S
C1156  C1173   1.400   .     A
C1156  H1183   1.077   .     S
C1157  C1173   1.401   .     A
C1157  C1172   1.397   .     A
C1157  H1179   1.083   .     S
C1158  C1174   1.404   .     A
C1158  C1160   1.479   .     S
C1159  H1186   1.084   .     S
C1159  C1165   1.393   .     A
C1159  C1407   1.390   .     S
C1160  O1191   1.302   .     A
C1160  O1192   1.310   .     A
C1161  C1162   1.407   .     A
C1161  N1197   1.433   .     S
C1162  C1170   1.442   .     S
C1162  C1163   1.412   .     A
C1163  N1200   1.434   .     S
C1164  C1165   1.394   .     A
C1164  H1180   1.085   .     S
C1164  C1409   1.387   .     S
C1166  N1188   1.381   .     A
C1166  O1203   1.380   .     S
C1166  C1003   1.433   1_655 S
C1167  N1211   1.438   .     S
C1167  N1187   1.366   .     A
C1168  N1187   1.378   .     A
C1168  O1214   1.384   .     S
C1169  N1222   1.427   .     S
C1169  N1188   1.371   .     A
C1169  C1004   1.430   1_655 S
C1170  O1194   1.297   .     A
C1170  O1193   1.295   .     A
C1171  O1195   1.301   .     A
C1171  O1196   1.307   .     A
C1171  C1173   1.471   .     S
C1174  C1175   1.387   .     A
C1174  H1184   1.083   .     S
C1175  C438    1.398   1_556 S
C1175  H447    1.083   1_556 S
C1176  N1225   1.433   .     S
Cu1177 O1195   1.928   .     S
Cu1177 O1191   1.937   .     S
Cu1177 O1193   1.950   .     S
Cu1177 Cu1178  2.705   .     S
Cu1177 N1187   2.033   .     S
Cu1177 O1189   1.946   .     S
Cu1178 O1196   1.937   .     S
Cu1178 O1192   1.928   .     S
Cu1178 N1188   2.032   .     S
Cu1178 O1194   1.946   .     S
Cu1178 O1190   1.950   .     S
H1182  C434    1.084   1_556 S
N1197  H1199   1.046   .     S
N1197  H1198   1.046   .     S
N1200  H1202   1.045   .     S
N1200  H1201   1.046   .     S
O1203  C1204   1.422   .     S
C1204  H1205   1.110   .     S
C1204  C1207   1.522   .     S
C1204  H1042   1.114   1_655 S
C1207  H1208   1.110   .     S
C1207  H1210   1.108   .     S
C1207  H1455   1.110   .     S
N1211  H1213   1.043   .     S
N1211  H1212   1.043   .     S
O1214  C1215   1.412   .     S
C1215  H1216   1.106   .     S
C1215  H1217   1.108   .     S
C1215  C1218   1.522   .     S
C1218  H1219   1.110   .     S
C1218  H1221   1.111   .     S
C1218  H1220   1.110   .     S
N1222  H1224   1.045   .     S
N1222  H1223   1.044   .     S
N1225  H1226   1.044   .     S
N1225  H1227   1.046   .     S
N1228  H1230   1.034   .     S
N1228  H1229   1.046   .     S
C1231  O1271   1.292   .     A
C1231  C1247   1.432   .     S
C1231  O1272   1.298   .     A
C1232  C1233   1.417   .     A
C1232  C496    1.423   1_556 S
C1232  C520    1.424   1_556 S
C1233  C1237   1.419   .     A
C1233  C1240   1.421   .     A
C1234  C1238   1.402   .     A
C1235  C1236   1.397   .     A
C1235  C496    1.417   1_556 S
C1235  C516    1.406   1_556 S
C1236  H1263   1.085   .     S
C1236  C1237   1.396   .     A
C1237  N1310   1.434   .     S
C1238  C1255   1.400   .     A
C1238  H1265   1.077   .     S
C1239  C1255   1.401   .     A
C1239  C1254   1.397   .     A
C1239  H1261   1.083   .     S
C1240  C1256   1.404   .     A
C1240  C1242   1.479   .     S
C1241  H1268   1.084   .     S
C1241  C1247   1.393   .     A
C1241  C751    1.390   1_565 S
C1242  O1273   1.302   .     A
C1242  O1274   1.310   .     A
C1243  C1244   1.407   .     A
C1243  N1279   1.433   .     S
C1244  C1252   1.442   .     S
C1244  C1245   1.412   .     A
C1245  N1282   1.434   .     S
C1246  C1247   1.394   .     A
C1246  H1262   1.085   .     S
C1246  C753    1.387   1_565 S
C1248  N1270   1.381   .     A
C1248  O1285   1.380   .     S
C1248  C1331   1.433   .     S
C1249  N1293   1.438   .     S
C1249  N1269   1.366   .     A
C1249  C1412   1.433   1_455 S
C1250  N1269   1.378   .     A
C1250  O1296   1.384   .     S
C1250  C1415   1.430   1_455 S
C1251  N1304   1.427   .     S
C1251  N1270   1.371   .     A
C1251  C1332   1.430   .     S
C1252  O1276   1.297   .     A
C1252  O1275   1.295   .     A
C1253  O1277   1.301   .     A
C1253  O1278   1.307   .     A
C1253  C1255   1.471   .     S
C1256  C1257   1.387   .     A
C1256  H1266   1.083   .     S
C1257  C520    1.398   1_556 S
C1257  H529    1.083   1_556 S
C1258  N1307   1.433   .     S
Cu1259 O1277   1.928   .     S
Cu1259 O1273   1.937   .     S
Cu1259 O1275   1.950   .     S
Cu1259 Cu1260  2.705   .     S
Cu1259 N1269   2.033   .     S
Cu1259 O1271   1.946   .     S
Cu1260 O1278   1.937   .     S
Cu1260 O1274   1.928   .     S
Cu1260 N1270   2.032   .     S
Cu1260 O1276   1.946   .     S
Cu1260 O1272   1.950   .     S
H1264  C516    1.084   1_556 S
N1279  H1281   1.046   .     S
N1279  H1280   1.046   .     S
N1282  H1284   1.045   .     S
N1282  H1283   1.046   .     S
O1285  C1286   1.422   .     S
C1286  H1287   1.110   .     S
C1286  C1289   1.522   .     S
C1286  H1370   1.114   .     S
H1288  C1450   1.114   1_455 S
C1289  H1290   1.110   .     S
C1289  H1292   1.108   .     S
C1289  H799    1.110   1_565 S
N1293  H1295   1.043   .     S
N1293  H1294   1.043   .     S
O1296  C1297   1.412   .     S
C1297  H1298   1.106   .     S
C1297  H1299   1.108   .     S
C1297  C1300   1.522   .     S
C1300  H1301   1.110   .     S
C1300  H1303   1.111   .     S
C1300  H1302   1.110   .     S
N1304  H1306   1.045   .     S
N1304  H1305   1.044   .     S
N1307  H1308   1.044   .     S
N1307  H1309   1.046   .     S
N1310  H1312   1.034   .     S
N1310  H1311   1.046   .     S
C1313  O1353   1.292   .     A
C1313  C1329   1.432   .     S
C1313  O1354   1.298   .     A
C1314  C1315   1.417   .     A
C1314  C578    1.423   1_556 S
C1314  C602    1.424   1_556 S
C1315  C1319   1.419   .     A
C1315  C1322   1.421   .     A
C1316  C1320   1.402   .     A
C1317  C1318   1.397   .     A
C1317  C578    1.417   1_556 S
C1317  C598    1.406   1_556 S
C1318  H1345   1.085   .     S
C1318  C1319   1.396   .     A
C1319  N1392   1.434   .     S
C1320  C1337   1.400   .     A
C1320  H1347   1.077   .     S
C1321  C1337   1.401   .     A
C1321  C1336   1.397   .     A
C1321  H1343   1.083   .     S
C1322  C1338   1.404   .     A
C1322  C1324   1.479   .     S
C1323  H1350   1.084   .     S
C1323  C1329   1.393   .     A
C1323  C833    1.390   1_565 S
C1324  O1355   1.302   .     A
C1324  O1356   1.310   .     A
C1325  C1326   1.407   .     A
C1325  N1361   1.433   .     S
C1326  C1334   1.442   .     S
C1326  C1327   1.412   .     A
C1327  N1364   1.434   .     S
C1328  C1329   1.394   .     A
C1328  H1344   1.085   .     S
C1328  C835    1.387   1_565 S
C1330  N1352   1.381   .     A
C1330  O1367   1.380   .     S
C1330  C1413   1.433   .     S
C1331  N1375   1.438   .     S
C1331  N1351   1.366   .     A
C1332  N1351   1.378   .     A
C1332  O1378   1.384   .     S
C1333  N1386   1.427   .     S
C1333  N1352   1.371   .     A
C1333  C1414   1.430   .     S
C1334  O1358   1.297   .     A
C1334  O1357   1.295   .     A
C1335  O1359   1.301   .     A
C1335  O1360   1.307   .     A
C1335  C1337   1.471   .     S
C1338  C1339   1.387   .     A
C1338  H1348   1.083   .     S
C1339  C602    1.398   1_556 S
C1339  H611    1.083   1_556 S
C1340  N1389   1.433   .     S
Cu1341 O1359   1.928   .     S
Cu1341 O1355   1.937   .     S
Cu1341 O1357   1.950   .     S
Cu1341 Cu1342  2.705   .     S
Cu1341 N1351   2.033   .     S
Cu1341 O1353   1.946   .     S
Cu1342 O1360   1.937   .     S
Cu1342 O1356   1.928   .     S
Cu1342 N1352   2.032   .     S
Cu1342 O1358   1.946   .     S
Cu1342 O1354   1.950   .     S
H1346  C598    1.084   1_556 S
N1361  H1363   1.046   .     S
N1361  H1362   1.046   .     S
N1364  H1366   1.045   .     S
N1364  H1365   1.046   .     S
O1367  C1368   1.422   .     S
C1368  H1369   1.110   .     S
C1368  C1371   1.522   .     S
C1368  H1452   1.114   .     S
C1371  H1372   1.110   .     S
C1371  H1374   1.108   .     S
C1371  H881    1.110   1_565 S
N1375  H1377   1.043   .     S
N1375  H1376   1.043   .     S
O1378  C1379   1.412   .     S
C1379  H1380   1.106   .     S
C1379  H1381   1.108   .     S
C1379  C1382   1.522   .     S
C1382  H1383   1.110   .     S
C1382  H1385   1.111   .     S
C1382  H1384   1.110   .     S
N1386  H1388   1.045   .     S
N1386  H1387   1.044   .     S
N1389  H1390   1.044   .     S
N1389  H1391   1.046   .     S
N1392  H1394   1.034   .     S
N1392  H1393   1.046   .     S
C1395  O1435   1.292   .     A
C1395  C1411   1.432   .     S
C1395  O1436   1.298   .     A
C1396  C1397   1.417   .     A
C1396  C660    1.423   1_556 S
C1396  C684    1.424   1_556 S
C1397  C1401   1.419   .     A
C1397  C1404   1.421   .     A
C1398  C1402   1.402   .     A
C1399  C1400   1.397   .     A
C1399  C660    1.417   1_556 S
C1399  C680    1.406   1_556 S
C1400  H1427   1.085   .     S
C1400  C1401   1.396   .     A
C1401  N1474   1.434   .     S
C1402  C1419   1.400   .     A
C1402  H1429   1.077   .     S
C1403  C1419   1.401   .     A
C1403  C1418   1.397   .     A
C1403  H1425   1.083   .     S
C1404  C1420   1.404   .     A
C1404  C1406   1.479   .     S
C1405  H1432   1.084   .     S
C1405  C1411   1.393   .     A
C1405  C915    1.390   1_565 S
C1406  O1437   1.302   .     A
C1406  O1438   1.310   .     A
C1407  C1408   1.407   .     A
C1407  N1443   1.433   .     S
C1408  C1416   1.442   .     S
C1408  C1409   1.412   .     A
C1409  N1446   1.434   .     S
C1410  C1411   1.394   .     A
C1410  H1426   1.085   .     S
C1410  C917    1.387   1_565 S
C1412  N1434   1.381   .     A
C1412  O1449   1.380   .     S
C1412  C1249   1.433   1_655 S
C1413  N1457   1.438   .     S
C1413  N1433   1.366   .     A
C1414  N1433   1.378   .     A
C1414  O1460   1.384   .     S
C1415  N1468   1.427   .     S
C1415  N1434   1.371   .     A
C1415  C1250   1.430   1_655 S
C1416  O1440   1.297   .     A
C1416  O1439   1.295   .     A
C1417  O1441   1.301   .     A
C1417  O1442   1.307   .     A
C1417  C1419   1.471   .     S
C1420  C1421   1.387   .     A
C1420  H1430   1.083   .     S
C1421  C684    1.398   1_556 S
C1421  H693    1.083   1_556 S
C1422  N1471   1.433   .     S
Cu1423 O1441   1.928   .     S
Cu1423 O1437   1.937   .     S
Cu1423 O1439   1.950   .     S
Cu1423 Cu1424  2.705   .     S
Cu1423 N1433   2.033   .     S
Cu1423 O1435   1.946   .     S
Cu1424 O1442   1.937   .     S
Cu1424 O1438   1.928   .     S
Cu1424 N1434   2.032   .     S
Cu1424 O1440   1.946   .     S
Cu1424 O1436   1.950   .     S
H1428  C680    1.084   1_556 S
N1443  H1445   1.046   .     S
N1443  H1444   1.046   .     S
N1446  H1448   1.045   .     S
N1446  H1447   1.046   .     S
O1449  C1450   1.422   .     S
C1450  H1451   1.110   .     S
C1450  C1453   1.522   .     S
C1450  H1288   1.114   1_655 S
C1453  H1454   1.110   .     S
C1453  H1456   1.108   .     S
C1453  H963    1.110   1_565 S
N1457  H1459   1.043   .     S
N1457  H1458   1.043   .     S
O1460  C1461   1.412   .     S
C1461  H1462   1.106   .     S
C1461  H1463   1.108   .     S
C1461  C1464   1.522   .     S
C1464  H1465   1.110   .     S
C1464  H1467   1.111   .     S
C1464  H1466   1.110   .     S
N1468  H1470   1.045   .     S
N1468  H1469   1.044   .     S
N1471  H1472   1.044   .     S
N1471  H1473   1.046   .     S
N1474  H1476   1.034   .     S
N1474  H1475   1.046   .     S
