data_str_m2_o1_o17_pcu_sym.96
_audit_creation_date              2020-01-03
_audit_creation_method            'Materials Studio'
_symmetry_space_group_name_H-M    'P1'
_symmetry_Int_Tables_number       1
_symmetry_cell_setting            triclinic
loop_
_symmetry_equiv_pos_as_xyz
  x,y,z
_cell_length_a                    32.6737
_cell_length_b                    28.7754
_cell_length_c                    30.0850
_cell_angle_alpha                 89.9661
_cell_angle_beta                  92.0634
_cell_angle_gamma                 89.9904
loop_
_atom_site_label
_atom_site_type_symbol
_atom_site_fract_x
_atom_site_fract_y
_atom_site_fract_z
_atom_site_U_iso_or_equiv
_atom_site_adp_type
_atom_site_occupancy
O1     O     0.10655   0.20625   0.25000   0.00000  Uiso   1.00
O2     O     0.22679   0.12709   0.25001   0.00000  Uiso   1.00
O3     O     0.22679   0.20625   0.25001   0.00000  Uiso   1.00
O4     O     0.10655   0.12709   0.25000   0.00000  Uiso   1.00
C5     C     0.08757   0.16667   0.25330   0.00000  Uiso   1.00
C6     C     0.24576   0.16666   0.24670   0.00000  Uiso   1.00
O7     O     0.16666   0.20627   0.18513   0.00000  Uiso   1.00
O8     O     0.16668   0.12707   0.31487   0.00000  Uiso   1.00
O9     O     0.16668   0.20627   0.31487   0.00000  Uiso   1.00
O10    O     0.16666   0.12707   0.18513   0.00000  Uiso   1.00
C11    C     0.16637   0.16668   0.16467   0.00000  Uiso   1.00
C12    C     0.16697   0.16666   0.33533   0.00000  Uiso   1.00
Cu13   Cu    0.16667   0.21355   0.25000   0.00000  Uiso   1.00
Cu14   Cu    0.16667   0.11978   0.25000   0.00000  Uiso   1.00
C15    C     0.20361   0.16079   0.40781   0.00000  Uiso   1.00
C16    C     0.12972   0.17254   0.09219   0.00000  Uiso   1.00
C17    C     0.16665   0.16670   0.38349   0.00000  Uiso   1.00
C18    C     0.16668   0.16663   0.11651   0.00000  Uiso   1.00
C19    C     0.12932   0.17218   0.40455   0.00000  Uiso   1.00
C20    C     0.20401   0.16116   0.09545   0.00000  Uiso   1.00
C21    C     0.12830   0.16874   0.45150   0.00000  Uiso   1.00
C22    C     0.20503   0.16459   0.04851   0.00000  Uiso   1.00
C23    C     0.16629   0.16626   0.47643   0.00000  Uiso   1.00
C24    C     0.16705   0.16708   0.02357   0.00000  Uiso   1.00
C25    C     0.20367   0.16300   0.45437   0.00000  Uiso   1.00
C26    C     0.12966   0.17033   0.04563   0.00000  Uiso   1.00
C27    C     0.09131   0.16769   0.47489   0.00000  Uiso   1.00
C28    C     0.24203   0.16564   0.02511   0.00000  Uiso   1.00
C29    C     0.09256   0.16926   0.02098   0.00000  Uiso   1.00
C30    C     0.24077   0.16407   0.47902   0.00000  Uiso   1.00
H31    H     0.06371   0.16782   0.03753   0.00000  Uiso   1.00
H32    H     0.26962   0.16551   0.46247   0.00000  Uiso   1.00
C33    C     0.02096   0.12424   0.25501   0.00000  Uiso   1.00
C34    C     0.31237   0.20909   0.24499   0.00000  Uiso   1.00
C35    C     0.31240   0.12421   0.24521   0.00000  Uiso   1.00
C36    C     0.02093   0.20912   0.25478   0.00000  Uiso   1.00
C37    C     0.29058   0.16665   0.24394   0.00000  Uiso   1.00
C38    C     0.04275   0.16669   0.25606   0.00000  Uiso   1.00
C39    C     0.14669   0.02470   0.21666   0.00000  Uiso   1.00
C40    C     0.18665   0.30863   0.28334   0.00000  Uiso   1.00
C41    C     0.18662   0.02467   0.28334   0.00000  Uiso   1.00
C42    C     0.14671   0.30867   0.21666   0.00000  Uiso   1.00
N43    N     0.16667   0.28402   0.25000   0.00000  Uiso   1.00
N44    N     0.16667   0.04931   0.25000   0.00000  Uiso   1.00
N45    N     0.24105   0.15300   0.38509   0.00000  Uiso   1.00
O46    O     0.25315   0.18242   0.35547   0.00000  Uiso   1.00
O47    O     0.26328   0.11647   0.39423   0.00000  Uiso   1.00
N48    N     0.09228   0.18032   0.11491   0.00000  Uiso   1.00
O49    O     0.08019   0.15090   0.14453   0.00000  Uiso   1.00
O50    O     0.07005   0.21685   0.10577   0.00000  Uiso   1.00
Cl51   Cl    0.08595   0.18752   0.37040   0.00000  Uiso   1.00
Cl52   Cl    0.24739   0.14581   0.12960   0.00000  Uiso   1.00
Cl53   Cl    0.04185   0.15888   0.45066   0.00000  Uiso   1.00
Cl54   Cl    0.29148   0.17445   0.04934   0.00000  Uiso   1.00
Cl55   Cl    0.04371   0.07052   0.27133   0.00000  Uiso   1.00
Cl56   Cl    0.28962   0.26281   0.22866   0.00000  Uiso   1.00
Cl57   Cl    0.28973   0.07040   0.22914   0.00000  Uiso   1.00
Cl58   Cl    0.04361   0.26293   0.27086   0.00000  Uiso   1.00
N59    N     0.12532   0.04839   0.18109   0.00000  Uiso   1.00
O60    O     0.08641   0.05657   0.18402   0.00000  Uiso   1.00
O61    O     0.14123   0.04943   0.14206   0.00000  Uiso   1.00
N62    N     0.20801   0.28494   0.31891   0.00000  Uiso   1.00
O63    O     0.24692   0.27676   0.31598   0.00000  Uiso   1.00
O64    O     0.19211   0.28391   0.35794   0.00000  Uiso   1.00
N65    N     0.20777   0.04834   0.31900   0.00000  Uiso   1.00
O66    O     0.19205   0.04865   0.35813   0.00000  Uiso   1.00
O67    O     0.24645   0.05774   0.31580   0.00000  Uiso   1.00
N68    N     0.12556   0.28499   0.18099   0.00000  Uiso   1.00
O69    O     0.14129   0.28469   0.14187   0.00000  Uiso   1.00
O70    O     0.08689   0.27559   0.18420   0.00000  Uiso   1.00
O71    O     0.43988   0.20625   0.25000   0.00000  Uiso   1.00
O72    O     0.56012   0.12709   0.25001   0.00000  Uiso   1.00
O73    O     0.56012   0.20625   0.25001   0.00000  Uiso   1.00
O74    O     0.43988   0.12709   0.25000   0.00000  Uiso   1.00
C75    C     0.42090   0.16667   0.25330   0.00000  Uiso   1.00
C76    C     0.57910   0.16666   0.24670   0.00000  Uiso   1.00
O77    O     0.49999   0.20627   0.18513   0.00000  Uiso   1.00
O78    O     0.50001   0.12707   0.31487   0.00000  Uiso   1.00
O79    O     0.50001   0.20627   0.31487   0.00000  Uiso   1.00
O80    O     0.49999   0.12707   0.18513   0.00000  Uiso   1.00
C81    C     0.49970   0.16668   0.16467   0.00000  Uiso   1.00
C82    C     0.50030   0.16666   0.33533   0.00000  Uiso   1.00
Cu83   Cu    0.50000   0.21355   0.25000   0.00000  Uiso   1.00
Cu84   Cu    0.50000   0.11978   0.25000   0.00000  Uiso   1.00
C85    C     0.53695   0.16079   0.40781   0.00000  Uiso   1.00
C86    C     0.46305   0.17254   0.09219   0.00000  Uiso   1.00
C87    C     0.49999   0.16670   0.38349   0.00000  Uiso   1.00
C88    C     0.50001   0.16663   0.11651   0.00000  Uiso   1.00
C89    C     0.46265   0.17218   0.40455   0.00000  Uiso   1.00
C90    C     0.53735   0.16116   0.09545   0.00000  Uiso   1.00
C91    C     0.46163   0.16874   0.45150   0.00000  Uiso   1.00
C92    C     0.53837   0.16459   0.04851   0.00000  Uiso   1.00
C93    C     0.49962   0.16626   0.47643   0.00000  Uiso   1.00
C94    C     0.50038   0.16708   0.02357   0.00000  Uiso   1.00
C95    C     0.53701   0.16300   0.45437   0.00000  Uiso   1.00
C96    C     0.46299   0.17033   0.04563   0.00000  Uiso   1.00
C97    C     0.42464   0.16769   0.47489   0.00000  Uiso   1.00
C98    C     0.57536   0.16564   0.02511   0.00000  Uiso   1.00
C99    C     0.42589   0.16926   0.02098   0.00000  Uiso   1.00
C100   C     0.57411   0.16407   0.47902   0.00000  Uiso   1.00
H101   H     0.39705   0.16782   0.03753   0.00000  Uiso   1.00
H102   H     0.60295   0.16551   0.46247   0.00000  Uiso   1.00
C103   C     0.35430   0.12424   0.25501   0.00000  Uiso   1.00
C104   C     0.64570   0.20909   0.24499   0.00000  Uiso   1.00
C105   C     0.64574   0.12421   0.24521   0.00000  Uiso   1.00
C106   C     0.35426   0.20912   0.25478   0.00000  Uiso   1.00
C107   C     0.62392   0.16665   0.24394   0.00000  Uiso   1.00
C108   C     0.37608   0.16669   0.25606   0.00000  Uiso   1.00
C109   C     0.48002   0.02470   0.21666   0.00000  Uiso   1.00
C110   C     0.51998   0.30863   0.28334   0.00000  Uiso   1.00
C111   C     0.51996   0.02467   0.28334   0.00000  Uiso   1.00
C112   C     0.48004   0.30867   0.21666   0.00000  Uiso   1.00
N113   N     0.50000   0.28402   0.25000   0.00000  Uiso   1.00
N114   N     0.50000   0.04931   0.25000   0.00000  Uiso   1.00
N115   N     0.57439   0.15300   0.38509   0.00000  Uiso   1.00
O116   O     0.58648   0.18242   0.35547   0.00000  Uiso   1.00
O117   O     0.59662   0.11647   0.39423   0.00000  Uiso   1.00
N118   N     0.42561   0.18032   0.11491   0.00000  Uiso   1.00
O119   O     0.41352   0.15090   0.14453   0.00000  Uiso   1.00
O120   O     0.40338   0.21685   0.10577   0.00000  Uiso   1.00
Cl121  Cl    0.41928   0.18752   0.37040   0.00000  Uiso   1.00
Cl122  Cl    0.58072   0.14581   0.12960   0.00000  Uiso   1.00
Cl123  Cl    0.37519   0.15888   0.45066   0.00000  Uiso   1.00
Cl124  Cl    0.62481   0.17445   0.04934   0.00000  Uiso   1.00
Cl125  Cl    0.37704   0.07052   0.27133   0.00000  Uiso   1.00
Cl126  Cl    0.62296   0.26281   0.22866   0.00000  Uiso   1.00
Cl127  Cl    0.62306   0.07040   0.22914   0.00000  Uiso   1.00
Cl128  Cl    0.37694   0.26293   0.27086   0.00000  Uiso   1.00
N129   N     0.45866   0.04839   0.18109   0.00000  Uiso   1.00
O130   O     0.41974   0.05657   0.18402   0.00000  Uiso   1.00
O131   O     0.47456   0.04943   0.14206   0.00000  Uiso   1.00
N132   N     0.54134   0.28494   0.31891   0.00000  Uiso   1.00
O133   O     0.58025   0.27676   0.31598   0.00000  Uiso   1.00
O134   O     0.52544   0.28391   0.35794   0.00000  Uiso   1.00
N135   N     0.54111   0.04834   0.31900   0.00000  Uiso   1.00
O136   O     0.52538   0.04865   0.35813   0.00000  Uiso   1.00
O137   O     0.57978   0.05774   0.31580   0.00000  Uiso   1.00
N138   N     0.45890   0.28499   0.18099   0.00000  Uiso   1.00
O139   O     0.47462   0.28469   0.14187   0.00000  Uiso   1.00
O140   O     0.42022   0.27559   0.18420   0.00000  Uiso   1.00
O141   O     0.77321   0.20625   0.25000   0.00000  Uiso   1.00
O142   O     0.89345   0.12709   0.25001   0.00000  Uiso   1.00
O143   O     0.89345   0.20625   0.25001   0.00000  Uiso   1.00
O144   O     0.77321   0.12709   0.25000   0.00000  Uiso   1.00
C145   C     0.75424   0.16667   0.25330   0.00000  Uiso   1.00
C146   C     0.91243   0.16666   0.24670   0.00000  Uiso   1.00
O147   O     0.83332   0.20627   0.18513   0.00000  Uiso   1.00
O148   O     0.83334   0.12707   0.31487   0.00000  Uiso   1.00
O149   O     0.83334   0.20627   0.31487   0.00000  Uiso   1.00
O150   O     0.83332   0.12707   0.18513   0.00000  Uiso   1.00
C151   C     0.83303   0.16668   0.16467   0.00000  Uiso   1.00
C152   C     0.83363   0.16666   0.33533   0.00000  Uiso   1.00
Cu153  Cu    0.83333   0.21355   0.25000   0.00000  Uiso   1.00
Cu154  Cu    0.83333   0.11978   0.25000   0.00000  Uiso   1.00
C155   C     0.87028   0.16079   0.40781   0.00000  Uiso   1.00
C156   C     0.79638   0.17254   0.09219   0.00000  Uiso   1.00
C157   C     0.83332   0.16670   0.38349   0.00000  Uiso   1.00
C158   C     0.83335   0.16663   0.11651   0.00000  Uiso   1.00
C159   C     0.79599   0.17218   0.40455   0.00000  Uiso   1.00
C160   C     0.87068   0.16116   0.09545   0.00000  Uiso   1.00
C161   C     0.79496   0.16874   0.45150   0.00000  Uiso   1.00
C162   C     0.87170   0.16459   0.04851   0.00000  Uiso   1.00
C163   C     0.83295   0.16626   0.47643   0.00000  Uiso   1.00
C164   C     0.83371   0.16708   0.02357   0.00000  Uiso   1.00
C165   C     0.87034   0.16300   0.45437   0.00000  Uiso   1.00
C166   C     0.79633   0.17033   0.04563   0.00000  Uiso   1.00
C167   C     0.75797   0.16769   0.47489   0.00000  Uiso   1.00
C168   C     0.90869   0.16564   0.02511   0.00000  Uiso   1.00
C169   C     0.75923   0.16926   0.02098   0.00000  Uiso   1.00
C170   C     0.90744   0.16407   0.47902   0.00000  Uiso   1.00
H171   H     0.73038   0.16782   0.03753   0.00000  Uiso   1.00
H172   H     0.93629   0.16551   0.46247   0.00000  Uiso   1.00
C173   C     0.68763   0.12424   0.25501   0.00000  Uiso   1.00
C174   C     0.97904   0.20909   0.24499   0.00000  Uiso   1.00
C175   C     0.97907   0.12421   0.24521   0.00000  Uiso   1.00
C176   C     0.68760   0.20912   0.25478   0.00000  Uiso   1.00
C177   C     0.95725   0.16665   0.24394   0.00000  Uiso   1.00
C178   C     0.70942   0.16669   0.25606   0.00000  Uiso   1.00
C179   C     0.81335   0.02470   0.21666   0.00000  Uiso   1.00
C180   C     0.85331   0.30863   0.28334   0.00000  Uiso   1.00
C181   C     0.85329   0.02467   0.28334   0.00000  Uiso   1.00
C182   C     0.81338   0.30867   0.21666   0.00000  Uiso   1.00
N183   N     0.83333   0.28402   0.25000   0.00000  Uiso   1.00
N184   N     0.83333   0.04931   0.25000   0.00000  Uiso   1.00
N185   N     0.90772   0.15300   0.38509   0.00000  Uiso   1.00
O186   O     0.91981   0.18242   0.35547   0.00000  Uiso   1.00
O187   O     0.92995   0.11647   0.39423   0.00000  Uiso   1.00
N188   N     0.75894   0.18032   0.11491   0.00000  Uiso   1.00
O189   O     0.74685   0.15090   0.14453   0.00000  Uiso   1.00
O190   O     0.73671   0.21685   0.10577   0.00000  Uiso   1.00
Cl191  Cl    0.75261   0.18752   0.37040   0.00000  Uiso   1.00
Cl192  Cl    0.91405   0.14581   0.12960   0.00000  Uiso   1.00
Cl193  Cl    0.70852   0.15888   0.45066   0.00000  Uiso   1.00
Cl194  Cl    0.95815   0.17445   0.04934   0.00000  Uiso   1.00
Cl195  Cl    0.71038   0.07052   0.27133   0.00000  Uiso   1.00
Cl196  Cl    0.95629   0.26281   0.22866   0.00000  Uiso   1.00
Cl197  Cl    0.95639   0.07040   0.22914   0.00000  Uiso   1.00
Cl198  Cl    0.71027   0.26293   0.27086   0.00000  Uiso   1.00
N199   N     0.79199   0.04839   0.18109   0.00000  Uiso   1.00
O200   O     0.75308   0.05657   0.18402   0.00000  Uiso   1.00
O201   O     0.80790   0.04943   0.14206   0.00000  Uiso   1.00
N202   N     0.87468   0.28494   0.31891   0.00000  Uiso   1.00
O203   O     0.91359   0.27676   0.31598   0.00000  Uiso   1.00
O204   O     0.85877   0.28391   0.35794   0.00000  Uiso   1.00
N205   N     0.87444   0.04834   0.31900   0.00000  Uiso   1.00
O206   O     0.85871   0.04865   0.35813   0.00000  Uiso   1.00
O207   O     0.91312   0.05774   0.31580   0.00000  Uiso   1.00
N208   N     0.79223   0.28499   0.18099   0.00000  Uiso   1.00
O209   O     0.80795   0.28469   0.14187   0.00000  Uiso   1.00
O210   O     0.75355   0.27559   0.18420   0.00000  Uiso   1.00
O211   O     0.10655   0.53958   0.25000   0.00000  Uiso   1.00
O212   O     0.22679   0.46042   0.25001   0.00000  Uiso   1.00
O213   O     0.22679   0.53958   0.25001   0.00000  Uiso   1.00
O214   O     0.10655   0.46042   0.25000   0.00000  Uiso   1.00
C215   C     0.08757   0.50000   0.25330   0.00000  Uiso   1.00
C216   C     0.24576   0.50000   0.24670   0.00000  Uiso   1.00
O217   O     0.16666   0.53960   0.18513   0.00000  Uiso   1.00
O218   O     0.16668   0.46040   0.31487   0.00000  Uiso   1.00
O219   O     0.16668   0.53960   0.31487   0.00000  Uiso   1.00
O220   O     0.16666   0.46040   0.18513   0.00000  Uiso   1.00
C221   C     0.16637   0.50001   0.16467   0.00000  Uiso   1.00
C222   C     0.16697   0.49999   0.33533   0.00000  Uiso   1.00
Cu223  Cu    0.16667   0.54689   0.25000   0.00000  Uiso   1.00
Cu224  Cu    0.16667   0.45311   0.25000   0.00000  Uiso   1.00
C225   C     0.20361   0.49413   0.40781   0.00000  Uiso   1.00
C226   C     0.12972   0.50587   0.09219   0.00000  Uiso   1.00
C227   C     0.16665   0.50004   0.38349   0.00000  Uiso   1.00
C228   C     0.16668   0.49996   0.11651   0.00000  Uiso   1.00
C229   C     0.12932   0.50551   0.40455   0.00000  Uiso   1.00
C230   C     0.20401   0.49449   0.09545   0.00000  Uiso   1.00
C231   C     0.12830   0.50207   0.45150   0.00000  Uiso   1.00
C232   C     0.20503   0.49793   0.04851   0.00000  Uiso   1.00
C233   C     0.16629   0.49959   0.47643   0.00000  Uiso   1.00
C234   C     0.16705   0.50041   0.02357   0.00000  Uiso   1.00
C235   C     0.20367   0.49633   0.45437   0.00000  Uiso   1.00
C236   C     0.12966   0.50366   0.04563   0.00000  Uiso   1.00
C237   C     0.09131   0.50103   0.47489   0.00000  Uiso   1.00
C238   C     0.24203   0.49897   0.02511   0.00000  Uiso   1.00
C239   C     0.09256   0.50259   0.02098   0.00000  Uiso   1.00
C240   C     0.24077   0.49741   0.47902   0.00000  Uiso   1.00
H241   H     0.06371   0.50115   0.03753   0.00000  Uiso   1.00
H242   H     0.26962   0.49884   0.46247   0.00000  Uiso   1.00
C243   C     0.02096   0.45758   0.25501   0.00000  Uiso   1.00
C244   C     0.31237   0.54242   0.24499   0.00000  Uiso   1.00
C245   C     0.31240   0.45755   0.24521   0.00000  Uiso   1.00
C246   C     0.02093   0.54245   0.25478   0.00000  Uiso   1.00
C247   C     0.29058   0.49998   0.24394   0.00000  Uiso   1.00
C248   C     0.04275   0.50002   0.25606   0.00000  Uiso   1.00
C249   C     0.14669   0.35804   0.21666   0.00000  Uiso   1.00
C250   C     0.18665   0.64196   0.28334   0.00000  Uiso   1.00
C251   C     0.18662   0.35800   0.28334   0.00000  Uiso   1.00
C252   C     0.14671   0.64200   0.21666   0.00000  Uiso   1.00
N253   N     0.16667   0.61736   0.25000   0.00000  Uiso   1.00
N254   N     0.16667   0.38264   0.25000   0.00000  Uiso   1.00
N255   N     0.24105   0.48634   0.38509   0.00000  Uiso   1.00
O256   O     0.25315   0.51576   0.35547   0.00000  Uiso   1.00
O257   O     0.26328   0.44981   0.39423   0.00000  Uiso   1.00
N258   N     0.09228   0.51366   0.11491   0.00000  Uiso   1.00
O259   O     0.08019   0.48424   0.14453   0.00000  Uiso   1.00
O260   O     0.07005   0.55019   0.10577   0.00000  Uiso   1.00
Cl261  Cl    0.08595   0.52086   0.37040   0.00000  Uiso   1.00
Cl262  Cl    0.24739   0.47915   0.12960   0.00000  Uiso   1.00
Cl263  Cl    0.04185   0.49222   0.45066   0.00000  Uiso   1.00
Cl264  Cl    0.29148   0.50778   0.04934   0.00000  Uiso   1.00
Cl265  Cl    0.04371   0.40385   0.27133   0.00000  Uiso   1.00
Cl266  Cl    0.28962   0.59615   0.22866   0.00000  Uiso   1.00
Cl267  Cl    0.28973   0.40373   0.22914   0.00000  Uiso   1.00
Cl268  Cl    0.04361   0.59627   0.27086   0.00000  Uiso   1.00
N269   N     0.12532   0.38172   0.18109   0.00000  Uiso   1.00
O270   O     0.08641   0.38990   0.18402   0.00000  Uiso   1.00
O271   O     0.14123   0.38276   0.14206   0.00000  Uiso   1.00
N272   N     0.20801   0.61828   0.31891   0.00000  Uiso   1.00
O273   O     0.24692   0.61009   0.31598   0.00000  Uiso   1.00
O274   O     0.19211   0.61724   0.35794   0.00000  Uiso   1.00
N275   N     0.20777   0.38167   0.31900   0.00000  Uiso   1.00
O276   O     0.19205   0.38198   0.35813   0.00000  Uiso   1.00
O277   O     0.24645   0.39107   0.31580   0.00000  Uiso   1.00
N278   N     0.12556   0.61833   0.18099   0.00000  Uiso   1.00
O279   O     0.14129   0.61802   0.14187   0.00000  Uiso   1.00
O280   O     0.08689   0.60892   0.18420   0.00000  Uiso   1.00
O281   O     0.43988   0.53958   0.25000   0.00000  Uiso   1.00
O282   O     0.56012   0.46042   0.25001   0.00000  Uiso   1.00
O283   O     0.56012   0.53958   0.25001   0.00000  Uiso   1.00
O284   O     0.43988   0.46042   0.25000   0.00000  Uiso   1.00
C285   C     0.42090   0.50000   0.25330   0.00000  Uiso   1.00
C286   C     0.57910   0.50000   0.24670   0.00000  Uiso   1.00
O287   O     0.49999   0.53960   0.18513   0.00000  Uiso   1.00
O288   O     0.50001   0.46040   0.31487   0.00000  Uiso   1.00
O289   O     0.50001   0.53960   0.31487   0.00000  Uiso   1.00
O290   O     0.49999   0.46040   0.18513   0.00000  Uiso   1.00
C291   C     0.49970   0.50001   0.16467   0.00000  Uiso   1.00
C292   C     0.50030   0.49999   0.33533   0.00000  Uiso   1.00
Cu293  Cu    0.50000   0.54689   0.25000   0.00000  Uiso   1.00
Cu294  Cu    0.50000   0.45311   0.25000   0.00000  Uiso   1.00
C295   C     0.53695   0.49413   0.40781   0.00000  Uiso   1.00
C296   C     0.46305   0.50587   0.09219   0.00000  Uiso   1.00
C297   C     0.49999   0.50004   0.38349   0.00000  Uiso   1.00
C298   C     0.50001   0.49996   0.11651   0.00000  Uiso   1.00
C299   C     0.46265   0.50551   0.40455   0.00000  Uiso   1.00
C300   C     0.53735   0.49449   0.09545   0.00000  Uiso   1.00
C301   C     0.46163   0.50207   0.45150   0.00000  Uiso   1.00
C302   C     0.53837   0.49793   0.04851   0.00000  Uiso   1.00
C303   C     0.49962   0.49959   0.47643   0.00000  Uiso   1.00
C304   C     0.50038   0.50041   0.02357   0.00000  Uiso   1.00
C305   C     0.53701   0.49633   0.45437   0.00000  Uiso   1.00
C306   C     0.46299   0.50366   0.04563   0.00000  Uiso   1.00
C307   C     0.42464   0.50103   0.47489   0.00000  Uiso   1.00
C308   C     0.57536   0.49897   0.02511   0.00000  Uiso   1.00
C309   C     0.42589   0.50259   0.02098   0.00000  Uiso   1.00
C310   C     0.57411   0.49741   0.47902   0.00000  Uiso   1.00
H311   H     0.39705   0.50115   0.03753   0.00000  Uiso   1.00
H312   H     0.60295   0.49884   0.46247   0.00000  Uiso   1.00
C313   C     0.35430   0.45758   0.25501   0.00000  Uiso   1.00
C314   C     0.64570   0.54242   0.24499   0.00000  Uiso   1.00
C315   C     0.64574   0.45755   0.24521   0.00000  Uiso   1.00
C316   C     0.35426   0.54245   0.25478   0.00000  Uiso   1.00
C317   C     0.62392   0.49998   0.24394   0.00000  Uiso   1.00
C318   C     0.37608   0.50002   0.25606   0.00000  Uiso   1.00
C319   C     0.48002   0.35804   0.21666   0.00000  Uiso   1.00
C320   C     0.51998   0.64196   0.28334   0.00000  Uiso   1.00
C321   C     0.51996   0.35800   0.28334   0.00000  Uiso   1.00
C322   C     0.48004   0.64200   0.21666   0.00000  Uiso   1.00
N323   N     0.50000   0.61736   0.25000   0.00000  Uiso   1.00
N324   N     0.50000   0.38264   0.25000   0.00000  Uiso   1.00
N325   N     0.57439   0.48634   0.38509   0.00000  Uiso   1.00
O326   O     0.58648   0.51576   0.35547   0.00000  Uiso   1.00
O327   O     0.59662   0.44981   0.39423   0.00000  Uiso   1.00
N328   N     0.42561   0.51366   0.11491   0.00000  Uiso   1.00
O329   O     0.41352   0.48424   0.14453   0.00000  Uiso   1.00
O330   O     0.40338   0.55019   0.10577   0.00000  Uiso   1.00
Cl331  Cl    0.41928   0.52086   0.37040   0.00000  Uiso   1.00
Cl332  Cl    0.58072   0.47915   0.12960   0.00000  Uiso   1.00
Cl333  Cl    0.37519   0.49222   0.45066   0.00000  Uiso   1.00
Cl334  Cl    0.62481   0.50778   0.04934   0.00000  Uiso   1.00
Cl335  Cl    0.37704   0.40385   0.27133   0.00000  Uiso   1.00
Cl336  Cl    0.62296   0.59615   0.22866   0.00000  Uiso   1.00
Cl337  Cl    0.62306   0.40373   0.22914   0.00000  Uiso   1.00
Cl338  Cl    0.37694   0.59627   0.27086   0.00000  Uiso   1.00
N339   N     0.45866   0.38172   0.18109   0.00000  Uiso   1.00
O340   O     0.41974   0.38990   0.18402   0.00000  Uiso   1.00
O341   O     0.47456   0.38276   0.14206   0.00000  Uiso   1.00
N342   N     0.54134   0.61828   0.31891   0.00000  Uiso   1.00
O343   O     0.58025   0.61009   0.31598   0.00000  Uiso   1.00
O344   O     0.52544   0.61724   0.35794   0.00000  Uiso   1.00
N345   N     0.54111   0.38167   0.31900   0.00000  Uiso   1.00
O346   O     0.52538   0.38198   0.35813   0.00000  Uiso   1.00
O347   O     0.57978   0.39107   0.31580   0.00000  Uiso   1.00
N348   N     0.45890   0.61833   0.18099   0.00000  Uiso   1.00
O349   O     0.47462   0.61802   0.14187   0.00000  Uiso   1.00
O350   O     0.42022   0.60892   0.18420   0.00000  Uiso   1.00
O351   O     0.77321   0.53958   0.25000   0.00000  Uiso   1.00
O352   O     0.89345   0.46042   0.25001   0.00000  Uiso   1.00
O353   O     0.89345   0.53958   0.25001   0.00000  Uiso   1.00
O354   O     0.77321   0.46042   0.25000   0.00000  Uiso   1.00
C355   C     0.75424   0.50000   0.25330   0.00000  Uiso   1.00
C356   C     0.91243   0.50000   0.24670   0.00000  Uiso   1.00
O357   O     0.83332   0.53960   0.18513   0.00000  Uiso   1.00
O358   O     0.83334   0.46040   0.31487   0.00000  Uiso   1.00
O359   O     0.83334   0.53960   0.31487   0.00000  Uiso   1.00
O360   O     0.83332   0.46040   0.18513   0.00000  Uiso   1.00
C361   C     0.83303   0.50001   0.16467   0.00000  Uiso   1.00
C362   C     0.83363   0.49999   0.33533   0.00000  Uiso   1.00
Cu363  Cu    0.83333   0.54689   0.25000   0.00000  Uiso   1.00
Cu364  Cu    0.83333   0.45311   0.25000   0.00000  Uiso   1.00
C365   C     0.87028   0.49413   0.40781   0.00000  Uiso   1.00
C366   C     0.79638   0.50587   0.09219   0.00000  Uiso   1.00
C367   C     0.83332   0.50004   0.38349   0.00000  Uiso   1.00
C368   C     0.83335   0.49996   0.11651   0.00000  Uiso   1.00
C369   C     0.79599   0.50551   0.40455   0.00000  Uiso   1.00
C370   C     0.87068   0.49449   0.09545   0.00000  Uiso   1.00
C371   C     0.79496   0.50207   0.45150   0.00000  Uiso   1.00
C372   C     0.87170   0.49793   0.04851   0.00000  Uiso   1.00
C373   C     0.83295   0.49959   0.47643   0.00000  Uiso   1.00
C374   C     0.83371   0.50041   0.02357   0.00000  Uiso   1.00
C375   C     0.87034   0.49633   0.45437   0.00000  Uiso   1.00
C376   C     0.79633   0.50366   0.04563   0.00000  Uiso   1.00
C377   C     0.75797   0.50103   0.47489   0.00000  Uiso   1.00
C378   C     0.90869   0.49897   0.02511   0.00000  Uiso   1.00
C379   C     0.75923   0.50259   0.02098   0.00000  Uiso   1.00
C380   C     0.90744   0.49741   0.47902   0.00000  Uiso   1.00
H381   H     0.73038   0.50115   0.03753   0.00000  Uiso   1.00
H382   H     0.93629   0.49884   0.46247   0.00000  Uiso   1.00
C383   C     0.68763   0.45758   0.25501   0.00000  Uiso   1.00
C384   C     0.97904   0.54242   0.24499   0.00000  Uiso   1.00
C385   C     0.97907   0.45755   0.24521   0.00000  Uiso   1.00
C386   C     0.68760   0.54245   0.25478   0.00000  Uiso   1.00
C387   C     0.95725   0.49998   0.24394   0.00000  Uiso   1.00
C388   C     0.70942   0.50002   0.25606   0.00000  Uiso   1.00
C389   C     0.81335   0.35804   0.21666   0.00000  Uiso   1.00
C390   C     0.85331   0.64196   0.28334   0.00000  Uiso   1.00
C391   C     0.85329   0.35800   0.28334   0.00000  Uiso   1.00
C392   C     0.81338   0.64200   0.21666   0.00000  Uiso   1.00
N393   N     0.83333   0.61736   0.25000   0.00000  Uiso   1.00
N394   N     0.83333   0.38264   0.25000   0.00000  Uiso   1.00
N395   N     0.90772   0.48634   0.38509   0.00000  Uiso   1.00
O396   O     0.91981   0.51576   0.35547   0.00000  Uiso   1.00
O397   O     0.92995   0.44981   0.39423   0.00000  Uiso   1.00
N398   N     0.75894   0.51366   0.11491   0.00000  Uiso   1.00
O399   O     0.74685   0.48424   0.14453   0.00000  Uiso   1.00
O400   O     0.73671   0.55019   0.10577   0.00000  Uiso   1.00
Cl401  Cl    0.75261   0.52086   0.37040   0.00000  Uiso   1.00
Cl402  Cl    0.91405   0.47915   0.12960   0.00000  Uiso   1.00
Cl403  Cl    0.70852   0.49222   0.45066   0.00000  Uiso   1.00
Cl404  Cl    0.95815   0.50778   0.04934   0.00000  Uiso   1.00
Cl405  Cl    0.71038   0.40385   0.27133   0.00000  Uiso   1.00
Cl406  Cl    0.95629   0.59615   0.22866   0.00000  Uiso   1.00
Cl407  Cl    0.95639   0.40373   0.22914   0.00000  Uiso   1.00
Cl408  Cl    0.71027   0.59627   0.27086   0.00000  Uiso   1.00
N409   N     0.79199   0.38172   0.18109   0.00000  Uiso   1.00
O410   O     0.75308   0.38990   0.18402   0.00000  Uiso   1.00
O411   O     0.80790   0.38276   0.14206   0.00000  Uiso   1.00
N412   N     0.87468   0.61828   0.31891   0.00000  Uiso   1.00
O413   O     0.91359   0.61009   0.31598   0.00000  Uiso   1.00
O414   O     0.85877   0.61724   0.35794   0.00000  Uiso   1.00
N415   N     0.87444   0.38167   0.31900   0.00000  Uiso   1.00
O416   O     0.85871   0.38198   0.35813   0.00000  Uiso   1.00
O417   O     0.91312   0.39107   0.31580   0.00000  Uiso   1.00
N418   N     0.79223   0.61833   0.18099   0.00000  Uiso   1.00
O419   O     0.80795   0.61802   0.14187   0.00000  Uiso   1.00
O420   O     0.75355   0.60892   0.18420   0.00000  Uiso   1.00
O421   O     0.10655   0.87291   0.25000   0.00000  Uiso   1.00
O422   O     0.22679   0.79375   0.25001   0.00000  Uiso   1.00
O423   O     0.22679   0.87291   0.25001   0.00000  Uiso   1.00
O424   O     0.10655   0.79375   0.25000   0.00000  Uiso   1.00
C425   C     0.08757   0.83334   0.25330   0.00000  Uiso   1.00
C426   C     0.24576   0.83333   0.24670   0.00000  Uiso   1.00
O427   O     0.16666   0.87293   0.18513   0.00000  Uiso   1.00
O428   O     0.16668   0.79373   0.31487   0.00000  Uiso   1.00
O429   O     0.16668   0.87293   0.31487   0.00000  Uiso   1.00
O430   O     0.16666   0.79373   0.18513   0.00000  Uiso   1.00
C431   C     0.16637   0.83334   0.16467   0.00000  Uiso   1.00
C432   C     0.16697   0.83332   0.33533   0.00000  Uiso   1.00
Cu433  Cu    0.16667   0.88022   0.25000   0.00000  Uiso   1.00
Cu434  Cu    0.16667   0.78645   0.25000   0.00000  Uiso   1.00
C435   C     0.20361   0.82746   0.40781   0.00000  Uiso   1.00
C436   C     0.12972   0.83921   0.09219   0.00000  Uiso   1.00
C437   C     0.16665   0.83337   0.38349   0.00000  Uiso   1.00
C438   C     0.16668   0.83329   0.11651   0.00000  Uiso   1.00
C439   C     0.12932   0.83884   0.40455   0.00000  Uiso   1.00
C440   C     0.20401   0.82782   0.09545   0.00000  Uiso   1.00
C441   C     0.12830   0.83541   0.45150   0.00000  Uiso   1.00
C442   C     0.20503   0.83126   0.04851   0.00000  Uiso   1.00
C443   C     0.16629   0.83292   0.47643   0.00000  Uiso   1.00
C444   C     0.16705   0.83374   0.02357   0.00000  Uiso   1.00
C445   C     0.20367   0.82967   0.45437   0.00000  Uiso   1.00
C446   C     0.12966   0.83700   0.04563   0.00000  Uiso   1.00
C447   C     0.09131   0.83436   0.47489   0.00000  Uiso   1.00
C448   C     0.24203   0.83230   0.02511   0.00000  Uiso   1.00
C449   C     0.09256   0.83592   0.02098   0.00000  Uiso   1.00
C450   C     0.24077   0.83074   0.47902   0.00000  Uiso   1.00
H451   H     0.06371   0.83449   0.03753   0.00000  Uiso   1.00
H452   H     0.26962   0.83218   0.46247   0.00000  Uiso   1.00
C453   C     0.02096   0.79091   0.25501   0.00000  Uiso   1.00
C454   C     0.31237   0.87576   0.24499   0.00000  Uiso   1.00
C455   C     0.31240   0.79088   0.24521   0.00000  Uiso   1.00
C456   C     0.02093   0.87579   0.25478   0.00000  Uiso   1.00
C457   C     0.29058   0.83331   0.24394   0.00000  Uiso   1.00
C458   C     0.04275   0.83335   0.25606   0.00000  Uiso   1.00
C459   C     0.14669   0.69137   0.21666   0.00000  Uiso   1.00
C460   C     0.18665   0.97530   0.28334   0.00000  Uiso   1.00
C461   C     0.18662   0.69133   0.28334   0.00000  Uiso   1.00
C462   C     0.14671   0.97533   0.21666   0.00000  Uiso   1.00
N463   N     0.16667   0.95069   0.25000   0.00000  Uiso   1.00
N464   N     0.16667   0.71598   0.25000   0.00000  Uiso   1.00
N465   N     0.24105   0.81967   0.38509   0.00000  Uiso   1.00
O466   O     0.25315   0.84909   0.35547   0.00000  Uiso   1.00
O467   O     0.26328   0.78314   0.39423   0.00000  Uiso   1.00
N468   N     0.09228   0.84699   0.11491   0.00000  Uiso   1.00
O469   O     0.08019   0.81757   0.14453   0.00000  Uiso   1.00
O470   O     0.07005   0.88352   0.10577   0.00000  Uiso   1.00
Cl471  Cl    0.08595   0.85419   0.37040   0.00000  Uiso   1.00
Cl472  Cl    0.24739   0.81248   0.12960   0.00000  Uiso   1.00
Cl473  Cl    0.04185   0.82555   0.45066   0.00000  Uiso   1.00
Cl474  Cl    0.29148   0.84111   0.04934   0.00000  Uiso   1.00
Cl475  Cl    0.04371   0.73719   0.27133   0.00000  Uiso   1.00
Cl476  Cl    0.28962   0.92948   0.22866   0.00000  Uiso   1.00
Cl477  Cl    0.28973   0.73707   0.22914   0.00000  Uiso   1.00
Cl478  Cl    0.04361   0.92960   0.27086   0.00000  Uiso   1.00
N479   N     0.12532   0.71506   0.18109   0.00000  Uiso   1.00
O480   O     0.08641   0.72323   0.18402   0.00000  Uiso   1.00
O481   O     0.14123   0.71610   0.14206   0.00000  Uiso   1.00
N482   N     0.20801   0.95161   0.31891   0.00000  Uiso   1.00
O483   O     0.24692   0.94342   0.31598   0.00000  Uiso   1.00
O484   O     0.19211   0.95058   0.35794   0.00000  Uiso   1.00
N485   N     0.20777   0.71501   0.31900   0.00000  Uiso   1.00
O486   O     0.19205   0.71531   0.35813   0.00000  Uiso   1.00
O487   O     0.24645   0.72441   0.31580   0.00000  Uiso   1.00
N488   N     0.12556   0.95166   0.18099   0.00000  Uiso   1.00
O489   O     0.14129   0.95136   0.14187   0.00000  Uiso   1.00
O490   O     0.08689   0.94225   0.18420   0.00000  Uiso   1.00
O491   O     0.43988   0.87291   0.25000   0.00000  Uiso   1.00
O492   O     0.56012   0.79375   0.25001   0.00000  Uiso   1.00
O493   O     0.56012   0.87291   0.25001   0.00000  Uiso   1.00
O494   O     0.43988   0.79375   0.25000   0.00000  Uiso   1.00
C495   C     0.42090   0.83334   0.25330   0.00000  Uiso   1.00
C496   C     0.57910   0.83333   0.24670   0.00000  Uiso   1.00
O497   O     0.49999   0.87293   0.18513   0.00000  Uiso   1.00
O498   O     0.50001   0.79373   0.31487   0.00000  Uiso   1.00
O499   O     0.50001   0.87293   0.31487   0.00000  Uiso   1.00
O500   O     0.49999   0.79373   0.18513   0.00000  Uiso   1.00
C501   C     0.49970   0.83334   0.16467   0.00000  Uiso   1.00
C502   C     0.50030   0.83332   0.33533   0.00000  Uiso   1.00
Cu503  Cu    0.50000   0.88022   0.25000   0.00000  Uiso   1.00
Cu504  Cu    0.50000   0.78645   0.25000   0.00000  Uiso   1.00
C505   C     0.53695   0.82746   0.40781   0.00000  Uiso   1.00
C506   C     0.46305   0.83921   0.09219   0.00000  Uiso   1.00
C507   C     0.49999   0.83337   0.38349   0.00000  Uiso   1.00
C508   C     0.50001   0.83329   0.11651   0.00000  Uiso   1.00
C509   C     0.46265   0.83884   0.40455   0.00000  Uiso   1.00
C510   C     0.53735   0.82782   0.09545   0.00000  Uiso   1.00
C511   C     0.46163   0.83541   0.45150   0.00000  Uiso   1.00
C512   C     0.53837   0.83126   0.04851   0.00000  Uiso   1.00
C513   C     0.49962   0.83292   0.47643   0.00000  Uiso   1.00
C514   C     0.50038   0.83374   0.02357   0.00000  Uiso   1.00
C515   C     0.53701   0.82967   0.45437   0.00000  Uiso   1.00
C516   C     0.46299   0.83700   0.04563   0.00000  Uiso   1.00
C517   C     0.42464   0.83436   0.47489   0.00000  Uiso   1.00
C518   C     0.57536   0.83230   0.02511   0.00000  Uiso   1.00
C519   C     0.42589   0.83592   0.02098   0.00000  Uiso   1.00
C520   C     0.57411   0.83074   0.47902   0.00000  Uiso   1.00
H521   H     0.39705   0.83449   0.03753   0.00000  Uiso   1.00
H522   H     0.60295   0.83218   0.46247   0.00000  Uiso   1.00
C523   C     0.35430   0.79091   0.25501   0.00000  Uiso   1.00
C524   C     0.64570   0.87576   0.24499   0.00000  Uiso   1.00
C525   C     0.64574   0.79088   0.24521   0.00000  Uiso   1.00
C526   C     0.35426   0.87579   0.25478   0.00000  Uiso   1.00
C527   C     0.62392   0.83331   0.24394   0.00000  Uiso   1.00
C528   C     0.37608   0.83335   0.25606   0.00000  Uiso   1.00
C529   C     0.48002   0.69137   0.21666   0.00000  Uiso   1.00
C530   C     0.51998   0.97530   0.28334   0.00000  Uiso   1.00
C531   C     0.51996   0.69133   0.28334   0.00000  Uiso   1.00
C532   C     0.48004   0.97533   0.21666   0.00000  Uiso   1.00
N533   N     0.50000   0.95069   0.25000   0.00000  Uiso   1.00
N534   N     0.50000   0.71598   0.25000   0.00000  Uiso   1.00
N535   N     0.57439   0.81967   0.38509   0.00000  Uiso   1.00
O536   O     0.58648   0.84909   0.35547   0.00000  Uiso   1.00
O537   O     0.59662   0.78314   0.39423   0.00000  Uiso   1.00
N538   N     0.42561   0.84699   0.11491   0.00000  Uiso   1.00
O539   O     0.41352   0.81757   0.14453   0.00000  Uiso   1.00
O540   O     0.40338   0.88352   0.10577   0.00000  Uiso   1.00
Cl541  Cl    0.41928   0.85419   0.37040   0.00000  Uiso   1.00
Cl542  Cl    0.58072   0.81248   0.12960   0.00000  Uiso   1.00
Cl543  Cl    0.37519   0.82555   0.45066   0.00000  Uiso   1.00
Cl544  Cl    0.62481   0.84111   0.04934   0.00000  Uiso   1.00
Cl545  Cl    0.37704   0.73719   0.27133   0.00000  Uiso   1.00
Cl546  Cl    0.62296   0.92948   0.22866   0.00000  Uiso   1.00
Cl547  Cl    0.62306   0.73707   0.22914   0.00000  Uiso   1.00
Cl548  Cl    0.37694   0.92960   0.27086   0.00000  Uiso   1.00
N549   N     0.45866   0.71506   0.18109   0.00000  Uiso   1.00
O550   O     0.41974   0.72323   0.18402   0.00000  Uiso   1.00
O551   O     0.47456   0.71610   0.14206   0.00000  Uiso   1.00
N552   N     0.54134   0.95161   0.31891   0.00000  Uiso   1.00
O553   O     0.58025   0.94342   0.31598   0.00000  Uiso   1.00
O554   O     0.52544   0.95058   0.35794   0.00000  Uiso   1.00
N555   N     0.54111   0.71501   0.31900   0.00000  Uiso   1.00
O556   O     0.52538   0.71531   0.35813   0.00000  Uiso   1.00
O557   O     0.57978   0.72441   0.31580   0.00000  Uiso   1.00
N558   N     0.45890   0.95166   0.18099   0.00000  Uiso   1.00
O559   O     0.47462   0.95136   0.14187   0.00000  Uiso   1.00
O560   O     0.42022   0.94225   0.18420   0.00000  Uiso   1.00
O561   O     0.77321   0.87291   0.25000   0.00000  Uiso   1.00
O562   O     0.89345   0.79375   0.25001   0.00000  Uiso   1.00
O563   O     0.89345   0.87291   0.25001   0.00000  Uiso   1.00
O564   O     0.77321   0.79375   0.25000   0.00000  Uiso   1.00
C565   C     0.75424   0.83334   0.25330   0.00000  Uiso   1.00
C566   C     0.91243   0.83333   0.24670   0.00000  Uiso   1.00
O567   O     0.83332   0.87293   0.18513   0.00000  Uiso   1.00
O568   O     0.83334   0.79373   0.31487   0.00000  Uiso   1.00
O569   O     0.83334   0.87293   0.31487   0.00000  Uiso   1.00
O570   O     0.83332   0.79373   0.18513   0.00000  Uiso   1.00
C571   C     0.83303   0.83334   0.16467   0.00000  Uiso   1.00
C572   C     0.83363   0.83332   0.33533   0.00000  Uiso   1.00
Cu573  Cu    0.83333   0.88022   0.25000   0.00000  Uiso   1.00
Cu574  Cu    0.83333   0.78645   0.25000   0.00000  Uiso   1.00
C575   C     0.87028   0.82746   0.40781   0.00000  Uiso   1.00
C576   C     0.79638   0.83921   0.09219   0.00000  Uiso   1.00
C577   C     0.83332   0.83337   0.38349   0.00000  Uiso   1.00
C578   C     0.83335   0.83329   0.11651   0.00000  Uiso   1.00
C579   C     0.79599   0.83884   0.40455   0.00000  Uiso   1.00
C580   C     0.87068   0.82782   0.09545   0.00000  Uiso   1.00
C581   C     0.79496   0.83541   0.45150   0.00000  Uiso   1.00
C582   C     0.87170   0.83126   0.04851   0.00000  Uiso   1.00
C583   C     0.83295   0.83292   0.47643   0.00000  Uiso   1.00
C584   C     0.83371   0.83374   0.02357   0.00000  Uiso   1.00
C585   C     0.87034   0.82967   0.45437   0.00000  Uiso   1.00
C586   C     0.79633   0.83700   0.04563   0.00000  Uiso   1.00
C587   C     0.75797   0.83436   0.47489   0.00000  Uiso   1.00
C588   C     0.90869   0.83230   0.02511   0.00000  Uiso   1.00
C589   C     0.75923   0.83592   0.02098   0.00000  Uiso   1.00
C590   C     0.90744   0.83074   0.47902   0.00000  Uiso   1.00
H591   H     0.73038   0.83449   0.03753   0.00000  Uiso   1.00
H592   H     0.93629   0.83218   0.46247   0.00000  Uiso   1.00
C593   C     0.68763   0.79091   0.25501   0.00000  Uiso   1.00
C594   C     0.97904   0.87576   0.24499   0.00000  Uiso   1.00
C595   C     0.97907   0.79088   0.24521   0.00000  Uiso   1.00
C596   C     0.68760   0.87579   0.25478   0.00000  Uiso   1.00
C597   C     0.95725   0.83331   0.24394   0.00000  Uiso   1.00
C598   C     0.70942   0.83335   0.25606   0.00000  Uiso   1.00
C599   C     0.81335   0.69137   0.21666   0.00000  Uiso   1.00
C600   C     0.85331   0.97530   0.28334   0.00000  Uiso   1.00
C601   C     0.85329   0.69133   0.28334   0.00000  Uiso   1.00
C602   C     0.81338   0.97533   0.21666   0.00000  Uiso   1.00
N603   N     0.83333   0.95069   0.25000   0.00000  Uiso   1.00
N604   N     0.83333   0.71598   0.25000   0.00000  Uiso   1.00
N605   N     0.90772   0.81967   0.38509   0.00000  Uiso   1.00
O606   O     0.91981   0.84909   0.35547   0.00000  Uiso   1.00
O607   O     0.92995   0.78314   0.39423   0.00000  Uiso   1.00
N608   N     0.75894   0.84699   0.11491   0.00000  Uiso   1.00
O609   O     0.74685   0.81757   0.14453   0.00000  Uiso   1.00
O610   O     0.73671   0.88352   0.10577   0.00000  Uiso   1.00
Cl611  Cl    0.75261   0.85419   0.37040   0.00000  Uiso   1.00
Cl612  Cl    0.91405   0.81248   0.12960   0.00000  Uiso   1.00
Cl613  Cl    0.70852   0.82555   0.45066   0.00000  Uiso   1.00
Cl614  Cl    0.95815   0.84111   0.04934   0.00000  Uiso   1.00
Cl615  Cl    0.71038   0.73719   0.27133   0.00000  Uiso   1.00
Cl616  Cl    0.95629   0.92948   0.22866   0.00000  Uiso   1.00
Cl617  Cl    0.95639   0.73707   0.22914   0.00000  Uiso   1.00
Cl618  Cl    0.71027   0.92960   0.27086   0.00000  Uiso   1.00
N619   N     0.79199   0.71506   0.18109   0.00000  Uiso   1.00
O620   O     0.75308   0.72323   0.18402   0.00000  Uiso   1.00
O621   O     0.80790   0.71610   0.14206   0.00000  Uiso   1.00
N622   N     0.87468   0.95161   0.31891   0.00000  Uiso   1.00
O623   O     0.91359   0.94342   0.31598   0.00000  Uiso   1.00
O624   O     0.85877   0.95058   0.35794   0.00000  Uiso   1.00
N625   N     0.87444   0.71501   0.31900   0.00000  Uiso   1.00
O626   O     0.85871   0.71531   0.35813   0.00000  Uiso   1.00
O627   O     0.91312   0.72441   0.31580   0.00000  Uiso   1.00
N628   N     0.79223   0.95166   0.18099   0.00000  Uiso   1.00
O629   O     0.80795   0.95136   0.14187   0.00000  Uiso   1.00
O630   O     0.75355   0.94225   0.18420   0.00000  Uiso   1.00
O631   O     0.10655   0.20625   0.75000   0.00000  Uiso   1.00
O632   O     0.22679   0.12709   0.75001   0.00000  Uiso   1.00
O633   O     0.22679   0.20625   0.75001   0.00000  Uiso   1.00
O634   O     0.10655   0.12709   0.75000   0.00000  Uiso   1.00
C635   C     0.08757   0.16667   0.75330   0.00000  Uiso   1.00
C636   C     0.24576   0.16666   0.74670   0.00000  Uiso   1.00
O637   O     0.16666   0.20627   0.68513   0.00000  Uiso   1.00
O638   O     0.16668   0.12707   0.81487   0.00000  Uiso   1.00
O639   O     0.16668   0.20627   0.81487   0.00000  Uiso   1.00
O640   O     0.16666   0.12707   0.68513   0.00000  Uiso   1.00
C641   C     0.16637   0.16668   0.66467   0.00000  Uiso   1.00
C642   C     0.16697   0.16666   0.83533   0.00000  Uiso   1.00
Cu643  Cu    0.16667   0.21355   0.75000   0.00000  Uiso   1.00
Cu644  Cu    0.16667   0.11978   0.75000   0.00000  Uiso   1.00
C645   C     0.20361   0.16079   0.90781   0.00000  Uiso   1.00
C646   C     0.12972   0.17254   0.59219   0.00000  Uiso   1.00
C647   C     0.16665   0.16670   0.88349   0.00000  Uiso   1.00
C648   C     0.16668   0.16663   0.61651   0.00000  Uiso   1.00
C649   C     0.12932   0.17218   0.90455   0.00000  Uiso   1.00
C650   C     0.20401   0.16116   0.59545   0.00000  Uiso   1.00
C651   C     0.12830   0.16874   0.95150   0.00000  Uiso   1.00
C652   C     0.20503   0.16459   0.54851   0.00000  Uiso   1.00
C653   C     0.16629   0.16626   0.97643   0.00000  Uiso   1.00
C654   C     0.16705   0.16708   0.52357   0.00000  Uiso   1.00
C655   C     0.20367   0.16300   0.95437   0.00000  Uiso   1.00
C656   C     0.12966   0.17033   0.54563   0.00000  Uiso   1.00
C657   C     0.09131   0.16769   0.97489   0.00000  Uiso   1.00
C658   C     0.24203   0.16564   0.52511   0.00000  Uiso   1.00
C659   C     0.09256   0.16926   0.52098   0.00000  Uiso   1.00
C660   C     0.24077   0.16407   0.97902   0.00000  Uiso   1.00
H661   H     0.06371   0.16782   0.53753   0.00000  Uiso   1.00
H662   H     0.26962   0.16551   0.96247   0.00000  Uiso   1.00
C663   C     0.02096   0.12424   0.75501   0.00000  Uiso   1.00
C664   C     0.31237   0.20909   0.74499   0.00000  Uiso   1.00
C665   C     0.31240   0.12421   0.74521   0.00000  Uiso   1.00
C666   C     0.02093   0.20912   0.75478   0.00000  Uiso   1.00
C667   C     0.29058   0.16665   0.74394   0.00000  Uiso   1.00
C668   C     0.04275   0.16669   0.75606   0.00000  Uiso   1.00
C669   C     0.14669   0.02470   0.71666   0.00000  Uiso   1.00
C670   C     0.18665   0.30863   0.78334   0.00000  Uiso   1.00
C671   C     0.18662   0.02467   0.78334   0.00000  Uiso   1.00
C672   C     0.14671   0.30867   0.71666   0.00000  Uiso   1.00
N673   N     0.16667   0.28402   0.75000   0.00000  Uiso   1.00
N674   N     0.16667   0.04931   0.75000   0.00000  Uiso   1.00
N675   N     0.24105   0.15300   0.88509   0.00000  Uiso   1.00
O676   O     0.25315   0.18242   0.85547   0.00000  Uiso   1.00
O677   O     0.26328   0.11647   0.89423   0.00000  Uiso   1.00
N678   N     0.09228   0.18032   0.61491   0.00000  Uiso   1.00
O679   O     0.08019   0.15090   0.64453   0.00000  Uiso   1.00
O680   O     0.07005   0.21685   0.60577   0.00000  Uiso   1.00
Cl681  Cl    0.08595   0.18752   0.87040   0.00000  Uiso   1.00
Cl682  Cl    0.24739   0.14581   0.62960   0.00000  Uiso   1.00
Cl683  Cl    0.04185   0.15888   0.95066   0.00000  Uiso   1.00
Cl684  Cl    0.29148   0.17445   0.54934   0.00000  Uiso   1.00
Cl685  Cl    0.04371   0.07052   0.77133   0.00000  Uiso   1.00
Cl686  Cl    0.28962   0.26281   0.72866   0.00000  Uiso   1.00
Cl687  Cl    0.28973   0.07040   0.72914   0.00000  Uiso   1.00
Cl688  Cl    0.04361   0.26293   0.77086   0.00000  Uiso   1.00
N689   N     0.12532   0.04839   0.68109   0.00000  Uiso   1.00
O690   O     0.08641   0.05657   0.68402   0.00000  Uiso   1.00
O691   O     0.14123   0.04943   0.64206   0.00000  Uiso   1.00
N692   N     0.20801   0.28494   0.81891   0.00000  Uiso   1.00
O693   O     0.24692   0.27676   0.81598   0.00000  Uiso   1.00
O694   O     0.19211   0.28391   0.85794   0.00000  Uiso   1.00
N695   N     0.20777   0.04834   0.81900   0.00000  Uiso   1.00
O696   O     0.19205   0.04865   0.85813   0.00000  Uiso   1.00
O697   O     0.24645   0.05774   0.81580   0.00000  Uiso   1.00
N698   N     0.12556   0.28499   0.68099   0.00000  Uiso   1.00
O699   O     0.14129   0.28469   0.64187   0.00000  Uiso   1.00
O700   O     0.08689   0.27559   0.68420   0.00000  Uiso   1.00
O701   O     0.43988   0.20625   0.75000   0.00000  Uiso   1.00
O702   O     0.56012   0.12709   0.75001   0.00000  Uiso   1.00
O703   O     0.56012   0.20625   0.75001   0.00000  Uiso   1.00
O704   O     0.43988   0.12709   0.75000   0.00000  Uiso   1.00
C705   C     0.42090   0.16667   0.75330   0.00000  Uiso   1.00
C706   C     0.57910   0.16666   0.74670   0.00000  Uiso   1.00
O707   O     0.49999   0.20627   0.68513   0.00000  Uiso   1.00
O708   O     0.50001   0.12707   0.81487   0.00000  Uiso   1.00
O709   O     0.50001   0.20627   0.81487   0.00000  Uiso   1.00
O710   O     0.49999   0.12707   0.68513   0.00000  Uiso   1.00
C711   C     0.49970   0.16668   0.66467   0.00000  Uiso   1.00
C712   C     0.50030   0.16666   0.83533   0.00000  Uiso   1.00
Cu713  Cu    0.50000   0.21355   0.75000   0.00000  Uiso   1.00
Cu714  Cu    0.50000   0.11978   0.75000   0.00000  Uiso   1.00
C715   C     0.53695   0.16079   0.90781   0.00000  Uiso   1.00
C716   C     0.46305   0.17254   0.59219   0.00000  Uiso   1.00
C717   C     0.49999   0.16670   0.88349   0.00000  Uiso   1.00
C718   C     0.50001   0.16663   0.61651   0.00000  Uiso   1.00
C719   C     0.46265   0.17218   0.90455   0.00000  Uiso   1.00
C720   C     0.53735   0.16116   0.59545   0.00000  Uiso   1.00
C721   C     0.46163   0.16874   0.95150   0.00000  Uiso   1.00
C722   C     0.53837   0.16459   0.54851   0.00000  Uiso   1.00
C723   C     0.49962   0.16626   0.97643   0.00000  Uiso   1.00
C724   C     0.50038   0.16708   0.52357   0.00000  Uiso   1.00
C725   C     0.53701   0.16300   0.95437   0.00000  Uiso   1.00
C726   C     0.46299   0.17033   0.54563   0.00000  Uiso   1.00
C727   C     0.42464   0.16769   0.97489   0.00000  Uiso   1.00
C728   C     0.57536   0.16564   0.52511   0.00000  Uiso   1.00
C729   C     0.42589   0.16926   0.52098   0.00000  Uiso   1.00
C730   C     0.57411   0.16407   0.97902   0.00000  Uiso   1.00
H731   H     0.39705   0.16782   0.53753   0.00000  Uiso   1.00
H732   H     0.60295   0.16551   0.96247   0.00000  Uiso   1.00
C733   C     0.35430   0.12424   0.75501   0.00000  Uiso   1.00
C734   C     0.64570   0.20909   0.74499   0.00000  Uiso   1.00
C735   C     0.64574   0.12421   0.74521   0.00000  Uiso   1.00
C736   C     0.35426   0.20912   0.75478   0.00000  Uiso   1.00
C737   C     0.62392   0.16665   0.74394   0.00000  Uiso   1.00
C738   C     0.37608   0.16669   0.75606   0.00000  Uiso   1.00
C739   C     0.48002   0.02470   0.71666   0.00000  Uiso   1.00
C740   C     0.51998   0.30863   0.78334   0.00000  Uiso   1.00
C741   C     0.51996   0.02467   0.78334   0.00000  Uiso   1.00
C742   C     0.48004   0.30867   0.71666   0.00000  Uiso   1.00
N743   N     0.50000   0.28402   0.75000   0.00000  Uiso   1.00
N744   N     0.50000   0.04931   0.75000   0.00000  Uiso   1.00
N745   N     0.57439   0.15300   0.88509   0.00000  Uiso   1.00
O746   O     0.58648   0.18242   0.85547   0.00000  Uiso   1.00
O747   O     0.59662   0.11647   0.89423   0.00000  Uiso   1.00
N748   N     0.42561   0.18032   0.61491   0.00000  Uiso   1.00
O749   O     0.41352   0.15090   0.64453   0.00000  Uiso   1.00
O750   O     0.40338   0.21685   0.60577   0.00000  Uiso   1.00
Cl751  Cl    0.41928   0.18752   0.87040   0.00000  Uiso   1.00
Cl752  Cl    0.58072   0.14581   0.62960   0.00000  Uiso   1.00
Cl753  Cl    0.37519   0.15888   0.95066   0.00000  Uiso   1.00
Cl754  Cl    0.62481   0.17445   0.54934   0.00000  Uiso   1.00
Cl755  Cl    0.37704   0.07052   0.77133   0.00000  Uiso   1.00
Cl756  Cl    0.62296   0.26281   0.72866   0.00000  Uiso   1.00
Cl757  Cl    0.62306   0.07040   0.72914   0.00000  Uiso   1.00
Cl758  Cl    0.37694   0.26293   0.77086   0.00000  Uiso   1.00
N759   N     0.45866   0.04839   0.68109   0.00000  Uiso   1.00
O760   O     0.41974   0.05657   0.68402   0.00000  Uiso   1.00
O761   O     0.47456   0.04943   0.64206   0.00000  Uiso   1.00
N762   N     0.54134   0.28494   0.81891   0.00000  Uiso   1.00
O763   O     0.58025   0.27676   0.81598   0.00000  Uiso   1.00
O764   O     0.52544   0.28391   0.85794   0.00000  Uiso   1.00
N765   N     0.54111   0.04834   0.81900   0.00000  Uiso   1.00
O766   O     0.52538   0.04865   0.85813   0.00000  Uiso   1.00
O767   O     0.57978   0.05774   0.81580   0.00000  Uiso   1.00
N768   N     0.45890   0.28499   0.68099   0.00000  Uiso   1.00
O769   O     0.47462   0.28469   0.64187   0.00000  Uiso   1.00
O770   O     0.42022   0.27559   0.68420   0.00000  Uiso   1.00
O771   O     0.77321   0.20625   0.75000   0.00000  Uiso   1.00
O772   O     0.89345   0.12709   0.75001   0.00000  Uiso   1.00
O773   O     0.89345   0.20625   0.75001   0.00000  Uiso   1.00
O774   O     0.77321   0.12709   0.75000   0.00000  Uiso   1.00
C775   C     0.75424   0.16667   0.75330   0.00000  Uiso   1.00
C776   C     0.91243   0.16666   0.74670   0.00000  Uiso   1.00
O777   O     0.83332   0.20627   0.68513   0.00000  Uiso   1.00
O778   O     0.83334   0.12707   0.81487   0.00000  Uiso   1.00
O779   O     0.83334   0.20627   0.81487   0.00000  Uiso   1.00
O780   O     0.83332   0.12707   0.68513   0.00000  Uiso   1.00
C781   C     0.83303   0.16668   0.66467   0.00000  Uiso   1.00
C782   C     0.83363   0.16666   0.83533   0.00000  Uiso   1.00
Cu783  Cu    0.83333   0.21355   0.75000   0.00000  Uiso   1.00
Cu784  Cu    0.83333   0.11978   0.75000   0.00000  Uiso   1.00
C785   C     0.87028   0.16079   0.90781   0.00000  Uiso   1.00
C786   C     0.79638   0.17254   0.59219   0.00000  Uiso   1.00
C787   C     0.83332   0.16670   0.88349   0.00000  Uiso   1.00
C788   C     0.83335   0.16663   0.61651   0.00000  Uiso   1.00
C789   C     0.79599   0.17218   0.90455   0.00000  Uiso   1.00
C790   C     0.87068   0.16116   0.59545   0.00000  Uiso   1.00
C791   C     0.79496   0.16874   0.95150   0.00000  Uiso   1.00
C792   C     0.87170   0.16459   0.54851   0.00000  Uiso   1.00
C793   C     0.83295   0.16626   0.97643   0.00000  Uiso   1.00
C794   C     0.83371   0.16708   0.52357   0.00000  Uiso   1.00
C795   C     0.87034   0.16300   0.95437   0.00000  Uiso   1.00
C796   C     0.79633   0.17033   0.54563   0.00000  Uiso   1.00
C797   C     0.75797   0.16769   0.97489   0.00000  Uiso   1.00
C798   C     0.90869   0.16564   0.52511   0.00000  Uiso   1.00
C799   C     0.75923   0.16926   0.52098   0.00000  Uiso   1.00
C800   C     0.90744   0.16407   0.97902   0.00000  Uiso   1.00
H801   H     0.73038   0.16782   0.53753   0.00000  Uiso   1.00
H802   H     0.93629   0.16551   0.96247   0.00000  Uiso   1.00
C803   C     0.68763   0.12424   0.75501   0.00000  Uiso   1.00
C804   C     0.97904   0.20909   0.74499   0.00000  Uiso   1.00
C805   C     0.97907   0.12421   0.74521   0.00000  Uiso   1.00
C806   C     0.68760   0.20912   0.75478   0.00000  Uiso   1.00
C807   C     0.95725   0.16665   0.74394   0.00000  Uiso   1.00
C808   C     0.70942   0.16669   0.75606   0.00000  Uiso   1.00
C809   C     0.81335   0.02470   0.71666   0.00000  Uiso   1.00
C810   C     0.85331   0.30863   0.78334   0.00000  Uiso   1.00
C811   C     0.85329   0.02467   0.78334   0.00000  Uiso   1.00
C812   C     0.81338   0.30867   0.71666   0.00000  Uiso   1.00
N813   N     0.83333   0.28402   0.75000   0.00000  Uiso   1.00
N814   N     0.83333   0.04931   0.75000   0.00000  Uiso   1.00
N815   N     0.90772   0.15300   0.88509   0.00000  Uiso   1.00
O816   O     0.91981   0.18242   0.85547   0.00000  Uiso   1.00
O817   O     0.92995   0.11647   0.89423   0.00000  Uiso   1.00
N818   N     0.75894   0.18032   0.61491   0.00000  Uiso   1.00
O819   O     0.74685   0.15090   0.64453   0.00000  Uiso   1.00
O820   O     0.73671   0.21685   0.60577   0.00000  Uiso   1.00
Cl821  Cl    0.75261   0.18752   0.87040   0.00000  Uiso   1.00
Cl822  Cl    0.91405   0.14581   0.62960   0.00000  Uiso   1.00
Cl823  Cl    0.70852   0.15888   0.95066   0.00000  Uiso   1.00
Cl824  Cl    0.95815   0.17445   0.54934   0.00000  Uiso   1.00
Cl825  Cl    0.71038   0.07052   0.77133   0.00000  Uiso   1.00
Cl826  Cl    0.95629   0.26281   0.72866   0.00000  Uiso   1.00
Cl827  Cl    0.95639   0.07040   0.72914   0.00000  Uiso   1.00
Cl828  Cl    0.71027   0.26293   0.77086   0.00000  Uiso   1.00
N829   N     0.79199   0.04839   0.68109   0.00000  Uiso   1.00
O830   O     0.75308   0.05657   0.68402   0.00000  Uiso   1.00
O831   O     0.80790   0.04943   0.64206   0.00000  Uiso   1.00
N832   N     0.87468   0.28494   0.81891   0.00000  Uiso   1.00
O833   O     0.91359   0.27676   0.81598   0.00000  Uiso   1.00
O834   O     0.85877   0.28391   0.85794   0.00000  Uiso   1.00
N835   N     0.87444   0.04834   0.81900   0.00000  Uiso   1.00
O836   O     0.85871   0.04865   0.85813   0.00000  Uiso   1.00
O837   O     0.91312   0.05774   0.81580   0.00000  Uiso   1.00
N838   N     0.79223   0.28499   0.68099   0.00000  Uiso   1.00
O839   O     0.80795   0.28469   0.64187   0.00000  Uiso   1.00
O840   O     0.75355   0.27559   0.68420   0.00000  Uiso   1.00
O841   O     0.10655   0.53958   0.75000   0.00000  Uiso   1.00
O842   O     0.22679   0.46042   0.75001   0.00000  Uiso   1.00
O843   O     0.22679   0.53958   0.75001   0.00000  Uiso   1.00
O844   O     0.10655   0.46042   0.75000   0.00000  Uiso   1.00
C845   C     0.08757   0.50000   0.75330   0.00000  Uiso   1.00
C846   C     0.24576   0.50000   0.74670   0.00000  Uiso   1.00
O847   O     0.16666   0.53960   0.68513   0.00000  Uiso   1.00
O848   O     0.16668   0.46040   0.81487   0.00000  Uiso   1.00
O849   O     0.16668   0.53960   0.81487   0.00000  Uiso   1.00
O850   O     0.16666   0.46040   0.68513   0.00000  Uiso   1.00
C851   C     0.16637   0.50001   0.66467   0.00000  Uiso   1.00
C852   C     0.16697   0.49999   0.83533   0.00000  Uiso   1.00
Cu853  Cu    0.16667   0.54689   0.75000   0.00000  Uiso   1.00
Cu854  Cu    0.16667   0.45311   0.75000   0.00000  Uiso   1.00
C855   C     0.20361   0.49413   0.90781   0.00000  Uiso   1.00
C856   C     0.12972   0.50587   0.59219   0.00000  Uiso   1.00
C857   C     0.16665   0.50004   0.88349   0.00000  Uiso   1.00
C858   C     0.16668   0.49996   0.61651   0.00000  Uiso   1.00
C859   C     0.12932   0.50551   0.90455   0.00000  Uiso   1.00
C860   C     0.20401   0.49449   0.59545   0.00000  Uiso   1.00
C861   C     0.12830   0.50207   0.95150   0.00000  Uiso   1.00
C862   C     0.20503   0.49793   0.54851   0.00000  Uiso   1.00
C863   C     0.16629   0.49959   0.97643   0.00000  Uiso   1.00
C864   C     0.16705   0.50041   0.52357   0.00000  Uiso   1.00
C865   C     0.20367   0.49633   0.95437   0.00000  Uiso   1.00
C866   C     0.12966   0.50366   0.54563   0.00000  Uiso   1.00
C867   C     0.09131   0.50103   0.97489   0.00000  Uiso   1.00
C868   C     0.24203   0.49897   0.52511   0.00000  Uiso   1.00
C869   C     0.09256   0.50259   0.52098   0.00000  Uiso   1.00
C870   C     0.24077   0.49741   0.97902   0.00000  Uiso   1.00
H871   H     0.06371   0.50115   0.53753   0.00000  Uiso   1.00
H872   H     0.26962   0.49884   0.96247   0.00000  Uiso   1.00
C873   C     0.02096   0.45758   0.75501   0.00000  Uiso   1.00
C874   C     0.31237   0.54242   0.74499   0.00000  Uiso   1.00
C875   C     0.31240   0.45755   0.74521   0.00000  Uiso   1.00
C876   C     0.02093   0.54245   0.75478   0.00000  Uiso   1.00
C877   C     0.29058   0.49998   0.74394   0.00000  Uiso   1.00
C878   C     0.04275   0.50002   0.75606   0.00000  Uiso   1.00
C879   C     0.14669   0.35804   0.71666   0.00000  Uiso   1.00
C880   C     0.18665   0.64196   0.78334   0.00000  Uiso   1.00
C881   C     0.18662   0.35800   0.78334   0.00000  Uiso   1.00
C882   C     0.14671   0.64200   0.71666   0.00000  Uiso   1.00
N883   N     0.16667   0.61736   0.75000   0.00000  Uiso   1.00
N884   N     0.16667   0.38264   0.75000   0.00000  Uiso   1.00
N885   N     0.24105   0.48634   0.88509   0.00000  Uiso   1.00
O886   O     0.25315   0.51576   0.85547   0.00000  Uiso   1.00
O887   O     0.26328   0.44981   0.89423   0.00000  Uiso   1.00
N888   N     0.09228   0.51366   0.61491   0.00000  Uiso   1.00
O889   O     0.08019   0.48424   0.64453   0.00000  Uiso   1.00
O890   O     0.07005   0.55019   0.60577   0.00000  Uiso   1.00
Cl891  Cl    0.08595   0.52086   0.87040   0.00000  Uiso   1.00
Cl892  Cl    0.24739   0.47915   0.62960   0.00000  Uiso   1.00
Cl893  Cl    0.04185   0.49222   0.95066   0.00000  Uiso   1.00
Cl894  Cl    0.29148   0.50778   0.54934   0.00000  Uiso   1.00
Cl895  Cl    0.04371   0.40385   0.77133   0.00000  Uiso   1.00
Cl896  Cl    0.28962   0.59615   0.72866   0.00000  Uiso   1.00
Cl897  Cl    0.28973   0.40373   0.72914   0.00000  Uiso   1.00
Cl898  Cl    0.04361   0.59627   0.77086   0.00000  Uiso   1.00
N899   N     0.12532   0.38172   0.68109   0.00000  Uiso   1.00
O900   O     0.08641   0.38990   0.68402   0.00000  Uiso   1.00
O901   O     0.14123   0.38276   0.64206   0.00000  Uiso   1.00
N902   N     0.20801   0.61828   0.81891   0.00000  Uiso   1.00
O903   O     0.24692   0.61009   0.81598   0.00000  Uiso   1.00
O904   O     0.19211   0.61724   0.85794   0.00000  Uiso   1.00
N905   N     0.20777   0.38167   0.81900   0.00000  Uiso   1.00
O906   O     0.19205   0.38198   0.85813   0.00000  Uiso   1.00
O907   O     0.24645   0.39107   0.81580   0.00000  Uiso   1.00
N908   N     0.12556   0.61833   0.68099   0.00000  Uiso   1.00
O909   O     0.14129   0.61802   0.64187   0.00000  Uiso   1.00
O910   O     0.08689   0.60892   0.68420   0.00000  Uiso   1.00
O911   O     0.43988   0.53958   0.75000   0.00000  Uiso   1.00
O912   O     0.56012   0.46042   0.75001   0.00000  Uiso   1.00
O913   O     0.56012   0.53958   0.75001   0.00000  Uiso   1.00
O914   O     0.43988   0.46042   0.75000   0.00000  Uiso   1.00
C915   C     0.42090   0.50000   0.75330   0.00000  Uiso   1.00
C916   C     0.57910   0.50000   0.74670   0.00000  Uiso   1.00
O917   O     0.49999   0.53960   0.68513   0.00000  Uiso   1.00
O918   O     0.50001   0.46040   0.81487   0.00000  Uiso   1.00
O919   O     0.50001   0.53960   0.81487   0.00000  Uiso   1.00
O920   O     0.49999   0.46040   0.68513   0.00000  Uiso   1.00
C921   C     0.49970   0.50001   0.66467   0.00000  Uiso   1.00
C922   C     0.50030   0.49999   0.83533   0.00000  Uiso   1.00
Cu923  Cu    0.50000   0.54689   0.75000   0.00000  Uiso   1.00
Cu924  Cu    0.50000   0.45311   0.75000   0.00000  Uiso   1.00
C925   C     0.53695   0.49413   0.90781   0.00000  Uiso   1.00
C926   C     0.46305   0.50587   0.59219   0.00000  Uiso   1.00
C927   C     0.49999   0.50004   0.88349   0.00000  Uiso   1.00
C928   C     0.50001   0.49996   0.61651   0.00000  Uiso   1.00
C929   C     0.46265   0.50551   0.90455   0.00000  Uiso   1.00
C930   C     0.53735   0.49449   0.59545   0.00000  Uiso   1.00
C931   C     0.46163   0.50207   0.95150   0.00000  Uiso   1.00
C932   C     0.53837   0.49793   0.54851   0.00000  Uiso   1.00
C933   C     0.49962   0.49959   0.97643   0.00000  Uiso   1.00
C934   C     0.50038   0.50041   0.52357   0.00000  Uiso   1.00
C935   C     0.53701   0.49633   0.95437   0.00000  Uiso   1.00
C936   C     0.46299   0.50366   0.54563   0.00000  Uiso   1.00
C937   C     0.42464   0.50103   0.97489   0.00000  Uiso   1.00
C938   C     0.57536   0.49897   0.52511   0.00000  Uiso   1.00
C939   C     0.42589   0.50259   0.52098   0.00000  Uiso   1.00
C940   C     0.57411   0.49741   0.97902   0.00000  Uiso   1.00
H941   H     0.39705   0.50115   0.53753   0.00000  Uiso   1.00
H942   H     0.60295   0.49884   0.96247   0.00000  Uiso   1.00
C943   C     0.35430   0.45758   0.75501   0.00000  Uiso   1.00
C944   C     0.64570   0.54242   0.74499   0.00000  Uiso   1.00
C945   C     0.64574   0.45755   0.74521   0.00000  Uiso   1.00
C946   C     0.35426   0.54245   0.75478   0.00000  Uiso   1.00
C947   C     0.62392   0.49998   0.74394   0.00000  Uiso   1.00
C948   C     0.37608   0.50002   0.75606   0.00000  Uiso   1.00
C949   C     0.48002   0.35804   0.71666   0.00000  Uiso   1.00
C950   C     0.51998   0.64196   0.78334   0.00000  Uiso   1.00
C951   C     0.51996   0.35800   0.78334   0.00000  Uiso   1.00
C952   C     0.48004   0.64200   0.71666   0.00000  Uiso   1.00
N953   N     0.50000   0.61736   0.75000   0.00000  Uiso   1.00
N954   N     0.50000   0.38264   0.75000   0.00000  Uiso   1.00
N955   N     0.57439   0.48634   0.88509   0.00000  Uiso   1.00
O956   O     0.58648   0.51576   0.85547   0.00000  Uiso   1.00
O957   O     0.59662   0.44981   0.89423   0.00000  Uiso   1.00
N958   N     0.42561   0.51366   0.61491   0.00000  Uiso   1.00
O959   O     0.41352   0.48424   0.64453   0.00000  Uiso   1.00
O960   O     0.40338   0.55019   0.60577   0.00000  Uiso   1.00
Cl961  Cl    0.41928   0.52086   0.87040   0.00000  Uiso   1.00
Cl962  Cl    0.58072   0.47915   0.62960   0.00000  Uiso   1.00
Cl963  Cl    0.37519   0.49222   0.95066   0.00000  Uiso   1.00
Cl964  Cl    0.62481   0.50778   0.54934   0.00000  Uiso   1.00
Cl965  Cl    0.37704   0.40385   0.77133   0.00000  Uiso   1.00
Cl966  Cl    0.62296   0.59615   0.72866   0.00000  Uiso   1.00
Cl967  Cl    0.62306   0.40373   0.72914   0.00000  Uiso   1.00
Cl968  Cl    0.37694   0.59627   0.77086   0.00000  Uiso   1.00
N969   N     0.45866   0.38172   0.68109   0.00000  Uiso   1.00
O970   O     0.41974   0.38990   0.68402   0.00000  Uiso   1.00
O971   O     0.47456   0.38276   0.64206   0.00000  Uiso   1.00
N972   N     0.54134   0.61828   0.81891   0.00000  Uiso   1.00
O973   O     0.58025   0.61009   0.81598   0.00000  Uiso   1.00
O974   O     0.52544   0.61724   0.85794   0.00000  Uiso   1.00
N975   N     0.54111   0.38167   0.81900   0.00000  Uiso   1.00
O976   O     0.52538   0.38198   0.85813   0.00000  Uiso   1.00
O977   O     0.57978   0.39107   0.81580   0.00000  Uiso   1.00
N978   N     0.45890   0.61833   0.68099   0.00000  Uiso   1.00
O979   O     0.47462   0.61802   0.64187   0.00000  Uiso   1.00
O980   O     0.42022   0.60892   0.68420   0.00000  Uiso   1.00
O981   O     0.77321   0.53958   0.75000   0.00000  Uiso   1.00
O982   O     0.89345   0.46042   0.75001   0.00000  Uiso   1.00
O983   O     0.89345   0.53958   0.75001   0.00000  Uiso   1.00
O984   O     0.77321   0.46042   0.75000   0.00000  Uiso   1.00
C985   C     0.75424   0.50000   0.75330   0.00000  Uiso   1.00
C986   C     0.91243   0.50000   0.74670   0.00000  Uiso   1.00
O987   O     0.83332   0.53960   0.68513   0.00000  Uiso   1.00
O988   O     0.83334   0.46040   0.81487   0.00000  Uiso   1.00
O989   O     0.83334   0.53960   0.81487   0.00000  Uiso   1.00
O990   O     0.83332   0.46040   0.68513   0.00000  Uiso   1.00
C991   C     0.83303   0.50001   0.66467   0.00000  Uiso   1.00
C992   C     0.83363   0.49999   0.83533   0.00000  Uiso   1.00
Cu993  Cu    0.83333   0.54689   0.75000   0.00000  Uiso   1.00
Cu994  Cu    0.83333   0.45311   0.75000   0.00000  Uiso   1.00
C995   C     0.87028   0.49413   0.90781   0.00000  Uiso   1.00
C996   C     0.79638   0.50587   0.59219   0.00000  Uiso   1.00
C997   C     0.83332   0.50004   0.88349   0.00000  Uiso   1.00
C998   C     0.83335   0.49996   0.61651   0.00000  Uiso   1.00
C999   C     0.79599   0.50551   0.90455   0.00000  Uiso   1.00
C1000  C     0.87068   0.49449   0.59545   0.00000  Uiso   1.00
C1001  C     0.79496   0.50207   0.95150   0.00000  Uiso   1.00
C1002  C     0.87170   0.49793   0.54851   0.00000  Uiso   1.00
C1003  C     0.83295   0.49959   0.97643   0.00000  Uiso   1.00
C1004  C     0.83371   0.50041   0.52357   0.00000  Uiso   1.00
C1005  C     0.87034   0.49633   0.95437   0.00000  Uiso   1.00
C1006  C     0.79633   0.50366   0.54563   0.00000  Uiso   1.00
C1007  C     0.75797   0.50103   0.97489   0.00000  Uiso   1.00
C1008  C     0.90869   0.49897   0.52511   0.00000  Uiso   1.00
C1009  C     0.75923   0.50259   0.52098   0.00000  Uiso   1.00
C1010  C     0.90744   0.49741   0.97902   0.00000  Uiso   1.00
H1011  H     0.73038   0.50115   0.53753   0.00000  Uiso   1.00
H1012  H     0.93629   0.49884   0.96247   0.00000  Uiso   1.00
C1013  C     0.68763   0.45758   0.75501   0.00000  Uiso   1.00
C1014  C     0.97904   0.54242   0.74499   0.00000  Uiso   1.00
C1015  C     0.97907   0.45755   0.74521   0.00000  Uiso   1.00
C1016  C     0.68760   0.54245   0.75478   0.00000  Uiso   1.00
C1017  C     0.95725   0.49998   0.74394   0.00000  Uiso   1.00
C1018  C     0.70942   0.50002   0.75606   0.00000  Uiso   1.00
C1019  C     0.81335   0.35804   0.71666   0.00000  Uiso   1.00
C1020  C     0.85331   0.64196   0.78334   0.00000  Uiso   1.00
C1021  C     0.85329   0.35800   0.78334   0.00000  Uiso   1.00
C1022  C     0.81338   0.64200   0.71666   0.00000  Uiso   1.00
N1023  N     0.83333   0.61736   0.75000   0.00000  Uiso   1.00
N1024  N     0.83333   0.38264   0.75000   0.00000  Uiso   1.00
N1025  N     0.90772   0.48634   0.88509   0.00000  Uiso   1.00
O1026  O     0.91981   0.51576   0.85547   0.00000  Uiso   1.00
O1027  O     0.92995   0.44981   0.89423   0.00000  Uiso   1.00
N1028  N     0.75894   0.51366   0.61491   0.00000  Uiso   1.00
O1029  O     0.74685   0.48424   0.64453   0.00000  Uiso   1.00
O1030  O     0.73671   0.55019   0.60577   0.00000  Uiso   1.00
Cl1031 Cl    0.75261   0.52086   0.87040   0.00000  Uiso   1.00
Cl1032 Cl    0.91405   0.47915   0.62960   0.00000  Uiso   1.00
Cl1033 Cl    0.70852   0.49222   0.95066   0.00000  Uiso   1.00
Cl1034 Cl    0.95815   0.50778   0.54934   0.00000  Uiso   1.00
Cl1035 Cl    0.71038   0.40385   0.77133   0.00000  Uiso   1.00
Cl1036 Cl    0.95629   0.59615   0.72866   0.00000  Uiso   1.00
Cl1037 Cl    0.95639   0.40373   0.72914   0.00000  Uiso   1.00
Cl1038 Cl    0.71027   0.59627   0.77086   0.00000  Uiso   1.00
N1039  N     0.79199   0.38172   0.68109   0.00000  Uiso   1.00
O1040  O     0.75308   0.38990   0.68402   0.00000  Uiso   1.00
O1041  O     0.80790   0.38276   0.64206   0.00000  Uiso   1.00
N1042  N     0.87468   0.61828   0.81891   0.00000  Uiso   1.00
O1043  O     0.91359   0.61009   0.81598   0.00000  Uiso   1.00
O1044  O     0.85877   0.61724   0.85794   0.00000  Uiso   1.00
N1045  N     0.87444   0.38167   0.81900   0.00000  Uiso   1.00
O1046  O     0.85871   0.38198   0.85813   0.00000  Uiso   1.00
O1047  O     0.91312   0.39107   0.81580   0.00000  Uiso   1.00
N1048  N     0.79223   0.61833   0.68099   0.00000  Uiso   1.00
O1049  O     0.80795   0.61802   0.64187   0.00000  Uiso   1.00
O1050  O     0.75355   0.60892   0.68420   0.00000  Uiso   1.00
O1051  O     0.10655   0.87291   0.75000   0.00000  Uiso   1.00
O1052  O     0.22679   0.79375   0.75001   0.00000  Uiso   1.00
O1053  O     0.22679   0.87291   0.75001   0.00000  Uiso   1.00
O1054  O     0.10655   0.79375   0.75000   0.00000  Uiso   1.00
C1055  C     0.08757   0.83334   0.75330   0.00000  Uiso   1.00
C1056  C     0.24576   0.83333   0.74670   0.00000  Uiso   1.00
O1057  O     0.16666   0.87293   0.68513   0.00000  Uiso   1.00
O1058  O     0.16668   0.79373   0.81487   0.00000  Uiso   1.00
O1059  O     0.16668   0.87293   0.81487   0.00000  Uiso   1.00
O1060  O     0.16666   0.79373   0.68513   0.00000  Uiso   1.00
C1061  C     0.16637   0.83334   0.66467   0.00000  Uiso   1.00
C1062  C     0.16697   0.83332   0.83533   0.00000  Uiso   1.00
Cu1063 Cu    0.16667   0.88022   0.75000   0.00000  Uiso   1.00
Cu1064 Cu    0.16667   0.78645   0.75000   0.00000  Uiso   1.00
C1065  C     0.20361   0.82746   0.90781   0.00000  Uiso   1.00
C1066  C     0.12972   0.83921   0.59219   0.00000  Uiso   1.00
C1067  C     0.16665   0.83337   0.88349   0.00000  Uiso   1.00
C1068  C     0.16668   0.83329   0.61651   0.00000  Uiso   1.00
C1069  C     0.12932   0.83884   0.90455   0.00000  Uiso   1.00
C1070  C     0.20401   0.82782   0.59545   0.00000  Uiso   1.00
C1071  C     0.12830   0.83541   0.95150   0.00000  Uiso   1.00
C1072  C     0.20503   0.83126   0.54851   0.00000  Uiso   1.00
C1073  C     0.16629   0.83292   0.97643   0.00000  Uiso   1.00
C1074  C     0.16705   0.83374   0.52357   0.00000  Uiso   1.00
C1075  C     0.20367   0.82967   0.95437   0.00000  Uiso   1.00
C1076  C     0.12966   0.83700   0.54563   0.00000  Uiso   1.00
C1077  C     0.09131   0.83436   0.97489   0.00000  Uiso   1.00
C1078  C     0.24203   0.83230   0.52511   0.00000  Uiso   1.00
C1079  C     0.09256   0.83592   0.52098   0.00000  Uiso   1.00
C1080  C     0.24077   0.83074   0.97902   0.00000  Uiso   1.00
H1081  H     0.06371   0.83449   0.53753   0.00000  Uiso   1.00
H1082  H     0.26962   0.83218   0.96247   0.00000  Uiso   1.00
C1083  C     0.02096   0.79091   0.75501   0.00000  Uiso   1.00
C1084  C     0.31237   0.87576   0.74499   0.00000  Uiso   1.00
C1085  C     0.31240   0.79088   0.74521   0.00000  Uiso   1.00
C1086  C     0.02093   0.87579   0.75478   0.00000  Uiso   1.00
C1087  C     0.29058   0.83331   0.74394   0.00000  Uiso   1.00
C1088  C     0.04275   0.83335   0.75606   0.00000  Uiso   1.00
C1089  C     0.14669   0.69137   0.71666   0.00000  Uiso   1.00
C1090  C     0.18665   0.97530   0.78334   0.00000  Uiso   1.00
C1091  C     0.18662   0.69133   0.78334   0.00000  Uiso   1.00
C1092  C     0.14671   0.97533   0.71666   0.00000  Uiso   1.00
N1093  N     0.16667   0.95069   0.75000   0.00000  Uiso   1.00
N1094  N     0.16667   0.71598   0.75000   0.00000  Uiso   1.00
N1095  N     0.24105   0.81967   0.88509   0.00000  Uiso   1.00
O1096  O     0.25315   0.84909   0.85547   0.00000  Uiso   1.00
O1097  O     0.26328   0.78314   0.89423   0.00000  Uiso   1.00
N1098  N     0.09228   0.84699   0.61491   0.00000  Uiso   1.00
O1099  O     0.08019   0.81757   0.64453   0.00000  Uiso   1.00
O1100  O     0.07005   0.88352   0.60577   0.00000  Uiso   1.00
Cl1101 Cl    0.08595   0.85419   0.87040   0.00000  Uiso   1.00
Cl1102 Cl    0.24739   0.81248   0.62960   0.00000  Uiso   1.00
Cl1103 Cl    0.04185   0.82555   0.95066   0.00000  Uiso   1.00
Cl1104 Cl    0.29148   0.84111   0.54934   0.00000  Uiso   1.00
Cl1105 Cl    0.04371   0.73719   0.77133   0.00000  Uiso   1.00
Cl1106 Cl    0.28962   0.92948   0.72866   0.00000  Uiso   1.00
Cl1107 Cl    0.28973   0.73707   0.72914   0.00000  Uiso   1.00
Cl1108 Cl    0.04361   0.92960   0.77086   0.00000  Uiso   1.00
N1109  N     0.12532   0.71506   0.68109   0.00000  Uiso   1.00
O1110  O     0.08641   0.72323   0.68402   0.00000  Uiso   1.00
O1111  O     0.14123   0.71610   0.64206   0.00000  Uiso   1.00
N1112  N     0.20801   0.95161   0.81891   0.00000  Uiso   1.00
O1113  O     0.24692   0.94342   0.81598   0.00000  Uiso   1.00
O1114  O     0.19211   0.95058   0.85794   0.00000  Uiso   1.00
N1115  N     0.20777   0.71501   0.81900   0.00000  Uiso   1.00
O1116  O     0.19205   0.71531   0.85813   0.00000  Uiso   1.00
O1117  O     0.24645   0.72441   0.81580   0.00000  Uiso   1.00
N1118  N     0.12556   0.95166   0.68099   0.00000  Uiso   1.00
O1119  O     0.14129   0.95136   0.64187   0.00000  Uiso   1.00
O1120  O     0.08689   0.94225   0.68420   0.00000  Uiso   1.00
O1121  O     0.43988   0.87291   0.75000   0.00000  Uiso   1.00
O1122  O     0.56012   0.79375   0.75001   0.00000  Uiso   1.00
O1123  O     0.56012   0.87291   0.75001   0.00000  Uiso   1.00
O1124  O     0.43988   0.79375   0.75000   0.00000  Uiso   1.00
C1125  C     0.42090   0.83334   0.75330   0.00000  Uiso   1.00
C1126  C     0.57910   0.83333   0.74670   0.00000  Uiso   1.00
O1127  O     0.49999   0.87293   0.68513   0.00000  Uiso   1.00
O1128  O     0.50001   0.79373   0.81487   0.00000  Uiso   1.00
O1129  O     0.50001   0.87293   0.81487   0.00000  Uiso   1.00
O1130  O     0.49999   0.79373   0.68513   0.00000  Uiso   1.00
C1131  C     0.49970   0.83334   0.66467   0.00000  Uiso   1.00
C1132  C     0.50030   0.83332   0.83533   0.00000  Uiso   1.00
Cu1133 Cu    0.50000   0.88022   0.75000   0.00000  Uiso   1.00
Cu1134 Cu    0.50000   0.78645   0.75000   0.00000  Uiso   1.00
C1135  C     0.53695   0.82746   0.90781   0.00000  Uiso   1.00
C1136  C     0.46305   0.83921   0.59219   0.00000  Uiso   1.00
C1137  C     0.49999   0.83337   0.88349   0.00000  Uiso   1.00
C1138  C     0.50001   0.83329   0.61651   0.00000  Uiso   1.00
C1139  C     0.46265   0.83884   0.90455   0.00000  Uiso   1.00
C1140  C     0.53735   0.82782   0.59545   0.00000  Uiso   1.00
C1141  C     0.46163   0.83541   0.95150   0.00000  Uiso   1.00
C1142  C     0.53837   0.83126   0.54851   0.00000  Uiso   1.00
C1143  C     0.49962   0.83292   0.97643   0.00000  Uiso   1.00
C1144  C     0.50038   0.83374   0.52357   0.00000  Uiso   1.00
C1145  C     0.53701   0.82967   0.95437   0.00000  Uiso   1.00
C1146  C     0.46299   0.83700   0.54563   0.00000  Uiso   1.00
C1147  C     0.42464   0.83436   0.97489   0.00000  Uiso   1.00
C1148  C     0.57536   0.83230   0.52511   0.00000  Uiso   1.00
C1149  C     0.42589   0.83592   0.52098   0.00000  Uiso   1.00
C1150  C     0.57411   0.83074   0.97902   0.00000  Uiso   1.00
H1151  H     0.39705   0.83449   0.53753   0.00000  Uiso   1.00
H1152  H     0.60295   0.83218   0.96247   0.00000  Uiso   1.00
C1153  C     0.35430   0.79091   0.75501   0.00000  Uiso   1.00
C1154  C     0.64570   0.87576   0.74499   0.00000  Uiso   1.00
C1155  C     0.64574   0.79088   0.74521   0.00000  Uiso   1.00
C1156  C     0.35426   0.87579   0.75478   0.00000  Uiso   1.00
C1157  C     0.62392   0.83331   0.74394   0.00000  Uiso   1.00
C1158  C     0.37608   0.83335   0.75606   0.00000  Uiso   1.00
C1159  C     0.48002   0.69137   0.71666   0.00000  Uiso   1.00
C1160  C     0.51998   0.97530   0.78334   0.00000  Uiso   1.00
C1161  C     0.51996   0.69133   0.78334   0.00000  Uiso   1.00
C1162  C     0.48004   0.97533   0.71666   0.00000  Uiso   1.00
N1163  N     0.50000   0.95069   0.75000   0.00000  Uiso   1.00
N1164  N     0.50000   0.71598   0.75000   0.00000  Uiso   1.00
N1165  N     0.57439   0.81967   0.88509   0.00000  Uiso   1.00
O1166  O     0.58648   0.84909   0.85547   0.00000  Uiso   1.00
O1167  O     0.59662   0.78314   0.89423   0.00000  Uiso   1.00
N1168  N     0.42561   0.84699   0.61491   0.00000  Uiso   1.00
O1169  O     0.41352   0.81757   0.64453   0.00000  Uiso   1.00
O1170  O     0.40338   0.88352   0.60577   0.00000  Uiso   1.00
Cl1171 Cl    0.41928   0.85419   0.87040   0.00000  Uiso   1.00
Cl1172 Cl    0.58072   0.81248   0.62960   0.00000  Uiso   1.00
Cl1173 Cl    0.37519   0.82555   0.95066   0.00000  Uiso   1.00
Cl1174 Cl    0.62481   0.84111   0.54934   0.00000  Uiso   1.00
Cl1175 Cl    0.37704   0.73719   0.77133   0.00000  Uiso   1.00
Cl1176 Cl    0.62296   0.92948   0.72866   0.00000  Uiso   1.00
Cl1177 Cl    0.62306   0.73707   0.72914   0.00000  Uiso   1.00
Cl1178 Cl    0.37694   0.92960   0.77086   0.00000  Uiso   1.00
N1179  N     0.45866   0.71506   0.68109   0.00000  Uiso   1.00
O1180  O     0.41974   0.72323   0.68402   0.00000  Uiso   1.00
O1181  O     0.47456   0.71610   0.64206   0.00000  Uiso   1.00
N1182  N     0.54134   0.95161   0.81891   0.00000  Uiso   1.00
O1183  O     0.58025   0.94342   0.81598   0.00000  Uiso   1.00
O1184  O     0.52544   0.95058   0.85794   0.00000  Uiso   1.00
N1185  N     0.54111   0.71501   0.81900   0.00000  Uiso   1.00
O1186  O     0.52538   0.71531   0.85813   0.00000  Uiso   1.00
O1187  O     0.57978   0.72441   0.81580   0.00000  Uiso   1.00
N1188  N     0.45890   0.95166   0.68099   0.00000  Uiso   1.00
O1189  O     0.47462   0.95136   0.64187   0.00000  Uiso   1.00
O1190  O     0.42022   0.94225   0.68420   0.00000  Uiso   1.00
O1191  O     0.77321   0.87291   0.75000   0.00000  Uiso   1.00
O1192  O     0.89345   0.79375   0.75001   0.00000  Uiso   1.00
O1193  O     0.89345   0.87291   0.75001   0.00000  Uiso   1.00
O1194  O     0.77321   0.79375   0.75000   0.00000  Uiso   1.00
C1195  C     0.75424   0.83334   0.75330   0.00000  Uiso   1.00
C1196  C     0.91243   0.83333   0.74670   0.00000  Uiso   1.00
O1197  O     0.83332   0.87293   0.68513   0.00000  Uiso   1.00
O1198  O     0.83334   0.79373   0.81487   0.00000  Uiso   1.00
O1199  O     0.83334   0.87293   0.81487   0.00000  Uiso   1.00
O1200  O     0.83332   0.79373   0.68513   0.00000  Uiso   1.00
C1201  C     0.83303   0.83334   0.66467   0.00000  Uiso   1.00
C1202  C     0.83363   0.83332   0.83533   0.00000  Uiso   1.00
Cu1203 Cu    0.83333   0.88022   0.75000   0.00000  Uiso   1.00
Cu1204 Cu    0.83333   0.78645   0.75000   0.00000  Uiso   1.00
C1205  C     0.87028   0.82746   0.90781   0.00000  Uiso   1.00
C1206  C     0.79638   0.83921   0.59219   0.00000  Uiso   1.00
C1207  C     0.83332   0.83337   0.88349   0.00000  Uiso   1.00
C1208  C     0.83335   0.83329   0.61651   0.00000  Uiso   1.00
C1209  C     0.79599   0.83884   0.90455   0.00000  Uiso   1.00
C1210  C     0.87068   0.82782   0.59545   0.00000  Uiso   1.00
C1211  C     0.79496   0.83541   0.95150   0.00000  Uiso   1.00
C1212  C     0.87170   0.83126   0.54851   0.00000  Uiso   1.00
C1213  C     0.83295   0.83292   0.97643   0.00000  Uiso   1.00
C1214  C     0.83371   0.83374   0.52357   0.00000  Uiso   1.00
C1215  C     0.87034   0.82967   0.95437   0.00000  Uiso   1.00
C1216  C     0.79633   0.83700   0.54563   0.00000  Uiso   1.00
C1217  C     0.75797   0.83436   0.97489   0.00000  Uiso   1.00
C1218  C     0.90869   0.83230   0.52511   0.00000  Uiso   1.00
C1219  C     0.75923   0.83592   0.52098   0.00000  Uiso   1.00
C1220  C     0.90744   0.83074   0.97902   0.00000  Uiso   1.00
H1221  H     0.73038   0.83449   0.53753   0.00000  Uiso   1.00
H1222  H     0.93629   0.83218   0.96247   0.00000  Uiso   1.00
C1223  C     0.68763   0.79091   0.75501   0.00000  Uiso   1.00
C1224  C     0.97904   0.87576   0.74499   0.00000  Uiso   1.00
C1225  C     0.97907   0.79088   0.74521   0.00000  Uiso   1.00
C1226  C     0.68760   0.87579   0.75478   0.00000  Uiso   1.00
C1227  C     0.95725   0.83331   0.74394   0.00000  Uiso   1.00
C1228  C     0.70942   0.83335   0.75606   0.00000  Uiso   1.00
C1229  C     0.81335   0.69137   0.71666   0.00000  Uiso   1.00
C1230  C     0.85331   0.97530   0.78334   0.00000  Uiso   1.00
C1231  C     0.85329   0.69133   0.78334   0.00000  Uiso   1.00
C1232  C     0.81338   0.97533   0.71666   0.00000  Uiso   1.00
N1233  N     0.83333   0.95069   0.75000   0.00000  Uiso   1.00
N1234  N     0.83333   0.71598   0.75000   0.00000  Uiso   1.00
N1235  N     0.90772   0.81967   0.88509   0.00000  Uiso   1.00
O1236  O     0.91981   0.84909   0.85547   0.00000  Uiso   1.00
O1237  O     0.92995   0.78314   0.89423   0.00000  Uiso   1.00
N1238  N     0.75894   0.84699   0.61491   0.00000  Uiso   1.00
O1239  O     0.74685   0.81757   0.64453   0.00000  Uiso   1.00
O1240  O     0.73671   0.88352   0.60577   0.00000  Uiso   1.00
Cl1241 Cl    0.75261   0.85419   0.87040   0.00000  Uiso   1.00
Cl1242 Cl    0.91405   0.81248   0.62960   0.00000  Uiso   1.00
Cl1243 Cl    0.70852   0.82555   0.95066   0.00000  Uiso   1.00
Cl1244 Cl    0.95815   0.84111   0.54934   0.00000  Uiso   1.00
Cl1245 Cl    0.71038   0.73719   0.77133   0.00000  Uiso   1.00
Cl1246 Cl    0.95629   0.92948   0.72866   0.00000  Uiso   1.00
Cl1247 Cl    0.95639   0.73707   0.72914   0.00000  Uiso   1.00
Cl1248 Cl    0.71027   0.92960   0.77086   0.00000  Uiso   1.00
N1249  N     0.79199   0.71506   0.68109   0.00000  Uiso   1.00
O1250  O     0.75308   0.72323   0.68402   0.00000  Uiso   1.00
O1251  O     0.80790   0.71610   0.64206   0.00000  Uiso   1.00
N1252  N     0.87468   0.95161   0.81891   0.00000  Uiso   1.00
O1253  O     0.91359   0.94342   0.81598   0.00000  Uiso   1.00
O1254  O     0.85877   0.95058   0.85794   0.00000  Uiso   1.00
N1255  N     0.87444   0.71501   0.81900   0.00000  Uiso   1.00
O1256  O     0.85871   0.71531   0.85813   0.00000  Uiso   1.00
O1257  O     0.91312   0.72441   0.81580   0.00000  Uiso   1.00
N1258  N     0.79223   0.95166   0.68099   0.00000  Uiso   1.00
O1259  O     0.80795   0.95136   0.64187   0.00000  Uiso   1.00
O1260  O     0.75355   0.94225   0.68420   0.00000  Uiso   1.00
loop_
_geom_bond_atom_site_label_1
_geom_bond_atom_site_label_2
_geom_bond_distance
_geom_bond_site_symmetry_2
_ccdc_geom_bond_type
O1     C5      1.302   .     A
O1     Cu13    1.976   .     S
O2     C6      1.302   .     A
O2     Cu14    1.976   .     S
O3     Cu13    1.976   .     S
O3     C6      1.302   .     A
O4     Cu14    1.976   .     S
O4     C5      1.302   .     A
C5     C38     1.470   .     S
C6     C37     1.470   .     S
O7     Cu13    1.963   .     S
O7     C11     1.295   .     A
O8     C12     1.295   .     A
O8     Cu14    1.963   .     S
O9     C12     1.295   .     A
O9     Cu13    1.963   .     S
O10    C11     1.295   .     A
O10    Cu14    1.963   .     S
C11    C18     1.449   .     S
C12    C17     1.449   .     S
Cu13   N43     2.028   .     S
Cu13   Cu14    2.698   .     S
Cu14   N44     2.028   .     S
C15    C25     1.402   .     A
C15    N45     1.440   .     S
C15    C17     1.400   .     A
C16    N48     1.440   .     S
C16    C18     1.400   .     A
C16    C26     1.402   .     A
C17    C19     1.404   .     A
C18    C20     1.404   .     A
C19    Cl51    1.776   .     S
C19    C21     1.417   .     A
C20    Cl52    1.776   .     S
C20    C22     1.417   .     A
C21    C27     1.421   .     A
C21    C23     1.429   .     A
C22    C28     1.421   .     A
C22    C24     1.429   .     A
C23    C25     1.414   .     A
C23    C654    1.418   .     S
C24    C26     1.414   .     A
C24    C653    1.418   1_554 S
C25    C30     1.399   .     A
C26    C29     1.399   .     A
C27    Cl53    1.767   .     S
C27    C659    1.387   .     S
C28    Cl54    1.767   .     S
C28    C660    1.387   1_554 S
C29    H31     1.082   .     S
C29    C657    1.387   1_554 S
C30    H32     1.082   .     S
C30    C658    1.387   .     S
C33    Cl55    1.777   .     S
C33    C38     1.413   .     A
C33    C175    1.390   1_455 S
C34    Cl56    1.777   .     S
C34    C37     1.413   .     A
C34    C106    1.390   .     S
C35    Cl57    1.777   .     S
C35    C37     1.414   .     A
C35    C103    1.390   .     S
C36    Cl58    1.777   .     S
C36    C38     1.414   .     A
C36    C174    1.390   1_455 S
C39    N59     1.429   .     S
C39    N44     1.374   .     A
C39    C462    1.421   1_545 S
C40    N62     1.429   .     S
C40    N43     1.374   .     A
C40    C251    1.421   .     S
C41    N44     1.373   .     A
C41    N65     1.429   .     S
C41    C460    1.421   1_545 S
C42    N68     1.429   .     S
C42    N43     1.373   .     A
C42    C249    1.421   .     S
N45    O46     1.301   .     A
N45    O47     1.301   .     A
N48    O50     1.301   .     A
N48    O49     1.300   .     A
N59    O60     1.299   .     A
N59    O61     1.301   .     A
N62    O63     1.299   .     A
N62    O64     1.301   .     A
N65    O66     1.301   .     A
N65    O67     1.299   .     A
N68    O70     1.299   .     A
N68    O69     1.301   .     A
O71    C75     1.302   .     A
O71    Cu83    1.976   .     S
O72    C76     1.302   .     A
O72    Cu84    1.976   .     S
O73    Cu83    1.976   .     S
O73    C76     1.302   .     A
O74    Cu84    1.976   .     S
O74    C75     1.302   .     A
C75    C108    1.470   .     S
C76    C107    1.470   .     S
O77    Cu83    1.963   .     S
O77    C81     1.295   .     A
O78    C82     1.295   .     A
O78    Cu84    1.963   .     S
O79    C82     1.295   .     A
O79    Cu83    1.963   .     S
O80    C81     1.295   .     A
O80    Cu84    1.963   .     S
C81    C88     1.449   .     S
C82    C87     1.449   .     S
Cu83   N113    2.028   .     S
Cu83   Cu84    2.698   .     S
Cu84   N114    2.028   .     S
C85    C95     1.402   .     A
C85    N115    1.440   .     S
C85    C87     1.400   .     A
C86    N118    1.440   .     S
C86    C88     1.400   .     A
C86    C96     1.402   .     A
C87    C89     1.404   .     A
C88    C90     1.404   .     A
C89    Cl121   1.776   .     S
C89    C91     1.417   .     A
C90    Cl122   1.776   .     S
C90    C92     1.417   .     A
C91    C97     1.421   .     A
C91    C93     1.429   .     A
C92    C98     1.421   .     A
C92    C94     1.429   .     A
C93    C95     1.414   .     A
C93    C724    1.418   .     S
C94    C96     1.414   .     A
C94    C723    1.418   1_554 S
C95    C100    1.399   .     A
C96    C99     1.399   .     A
C97    Cl123   1.767   .     S
C97    C729    1.387   .     S
C98    Cl124   1.767   .     S
C98    C730    1.387   1_554 S
C99    H101    1.082   .     S
C99    C727    1.387   1_554 S
C100   H102    1.082   .     S
C100   C728    1.387   .     S
C103   Cl125   1.777   .     S
C103   C108    1.413   .     A
C104   Cl126   1.777   .     S
C104   C107    1.413   .     A
C104   C176    1.390   .     S
C105   Cl127   1.777   .     S
C105   C107    1.414   .     A
C105   C173    1.390   .     S
C106   Cl128   1.777   .     S
C106   C108    1.414   .     A
C109   N129    1.429   .     S
C109   N114    1.374   .     A
C109   C532    1.421   1_545 S
C110   N132    1.429   .     S
C110   N113    1.374   .     A
C110   C321    1.421   .     S
C111   N114    1.373   .     A
C111   N135    1.429   .     S
C111   C530    1.421   1_545 S
C112   N138    1.429   .     S
C112   N113    1.373   .     A
C112   C319    1.421   .     S
N115   O116    1.301   .     A
N115   O117    1.301   .     A
N118   O120    1.301   .     A
N118   O119    1.300   .     A
N129   O130    1.299   .     A
N129   O131    1.301   .     A
N132   O133    1.299   .     A
N132   O134    1.301   .     A
N135   O136    1.301   .     A
N135   O137    1.299   .     A
N138   O140    1.299   .     A
N138   O139    1.301   .     A
O141   C145    1.302   .     A
O141   Cu153   1.976   .     S
O142   C146    1.302   .     A
O142   Cu154   1.976   .     S
O143   Cu153   1.976   .     S
O143   C146    1.302   .     A
O144   Cu154   1.976   .     S
O144   C145    1.302   .     A
C145   C178    1.470   .     S
C146   C177    1.470   .     S
O147   Cu153   1.963   .     S
O147   C151    1.295   .     A
O148   C152    1.295   .     A
O148   Cu154   1.963   .     S
O149   C152    1.295   .     A
O149   Cu153   1.963   .     S
O150   C151    1.295   .     A
O150   Cu154   1.963   .     S
C151   C158    1.449   .     S
C152   C157    1.449   .     S
Cu153  N183    2.028   .     S
Cu153  Cu154   2.698   .     S
Cu154  N184    2.028   .     S
C155   C165    1.402   .     A
C155   N185    1.440   .     S
C155   C157    1.400   .     A
C156   N188    1.440   .     S
C156   C158    1.400   .     A
C156   C166    1.402   .     A
C157   C159    1.404   .     A
C158   C160    1.404   .     A
C159   Cl191   1.776   .     S
C159   C161    1.417   .     A
C160   Cl192   1.776   .     S
C160   C162    1.417   .     A
C161   C167    1.421   .     A
C161   C163    1.429   .     A
C162   C168    1.421   .     A
C162   C164    1.429   .     A
C163   C165    1.414   .     A
C163   C794    1.418   .     S
C164   C166    1.414   .     A
C164   C793    1.418   1_554 S
C165   C170    1.399   .     A
C166   C169    1.399   .     A
C167   Cl193   1.767   .     S
C167   C799    1.387   .     S
C168   Cl194   1.767   .     S
C168   C800    1.387   1_554 S
C169   H171    1.082   .     S
C169   C797    1.387   1_554 S
C170   H172    1.082   .     S
C170   C798    1.387   .     S
C173   Cl195   1.777   .     S
C173   C178    1.413   .     A
C174   Cl196   1.777   .     S
C174   C177    1.413   .     A
C174   C36     1.390   1_655 S
C175   Cl197   1.777   .     S
C175   C177    1.414   .     A
C175   C33     1.390   1_655 S
C176   Cl198   1.777   .     S
C176   C178    1.414   .     A
C179   N199    1.429   .     S
C179   N184    1.374   .     A
C179   C602    1.421   1_545 S
C180   N202    1.429   .     S
C180   N183    1.374   .     A
C180   C391    1.421   .     S
C181   N184    1.373   .     A
C181   N205    1.429   .     S
C181   C600    1.421   1_545 S
C182   N208    1.429   .     S
C182   N183    1.373   .     A
C182   C389    1.421   .     S
N185   O186    1.301   .     A
N185   O187    1.301   .     A
N188   O190    1.301   .     A
N188   O189    1.300   .     A
N199   O200    1.299   .     A
N199   O201    1.301   .     A
N202   O203    1.299   .     A
N202   O204    1.301   .     A
N205   O206    1.301   .     A
N205   O207    1.299   .     A
N208   O210    1.299   .     A
N208   O209    1.301   .     A
O211   C215    1.302   .     A
O211   Cu223   1.976   .     S
O212   C216    1.302   .     A
O212   Cu224   1.976   .     S
O213   Cu223   1.976   .     S
O213   C216    1.302   .     A
O214   Cu224   1.976   .     S
O214   C215    1.302   .     A
C215   C248    1.470   .     S
C216   C247    1.470   .     S
O217   Cu223   1.963   .     S
O217   C221    1.295   .     A
O218   C222    1.295   .     A
O218   Cu224   1.963   .     S
O219   C222    1.295   .     A
O219   Cu223   1.963   .     S
O220   C221    1.295   .     A
O220   Cu224   1.963   .     S
C221   C228    1.449   .     S
C222   C227    1.449   .     S
Cu223  N253    2.028   .     S
Cu223  Cu224   2.698   .     S
Cu224  N254    2.028   .     S
C225   C235    1.402   .     A
C225   N255    1.440   .     S
C225   C227    1.400   .     A
C226   N258    1.440   .     S
C226   C228    1.400   .     A
C226   C236    1.402   .     A
C227   C229    1.404   .     A
C228   C230    1.404   .     A
C229   Cl261   1.776   .     S
C229   C231    1.417   .     A
C230   Cl262   1.776   .     S
C230   C232    1.417   .     A
C231   C237    1.421   .     A
C231   C233    1.429   .     A
C232   C238    1.421   .     A
C232   C234    1.429   .     A
C233   C235    1.414   .     A
C233   C864    1.418   .     S
C234   C236    1.414   .     A
C234   C863    1.418   1_554 S
C235   C240    1.399   .     A
C236   C239    1.399   .     A
C237   Cl263   1.767   .     S
C237   C869    1.387   .     S
C238   Cl264   1.767   .     S
C238   C870    1.387   1_554 S
C239   H241    1.082   .     S
C239   C867    1.387   1_554 S
C240   H242    1.082   .     S
C240   C868    1.387   .     S
C243   Cl265   1.777   .     S
C243   C248    1.413   .     A
C243   C385    1.390   1_455 S
C244   Cl266   1.777   .     S
C244   C247    1.413   .     A
C244   C316    1.390   .     S
C245   Cl267   1.777   .     S
C245   C247    1.414   .     A
C245   C313    1.390   .     S
C246   Cl268   1.777   .     S
C246   C248    1.414   .     A
C246   C384    1.390   1_455 S
C249   N269    1.429   .     S
C249   N254    1.374   .     A
C250   N272    1.429   .     S
C250   N253    1.374   .     A
C250   C461    1.421   .     S
C251   N254    1.373   .     A
C251   N275    1.429   .     S
C252   N278    1.429   .     S
C252   N253    1.373   .     A
C252   C459    1.421   .     S
N255   O256    1.301   .     A
N255   O257    1.301   .     A
N258   O260    1.301   .     A
N258   O259    1.300   .     A
N269   O270    1.299   .     A
N269   O271    1.301   .     A
N272   O273    1.299   .     A
N272   O274    1.301   .     A
N275   O276    1.301   .     A
N275   O277    1.299   .     A
N278   O280    1.299   .     A
N278   O279    1.301   .     A
O281   C285    1.302   .     A
O281   Cu293   1.976   .     S
O282   C286    1.302   .     A
O282   Cu294   1.976   .     S
O283   Cu293   1.976   .     S
O283   C286    1.302   .     A
O284   Cu294   1.976   .     S
O284   C285    1.302   .     A
C285   C318    1.470   .     S
C286   C317    1.470   .     S
O287   Cu293   1.963   .     S
O287   C291    1.295   .     A
O288   C292    1.295   .     A
O288   Cu294   1.963   .     S
O289   C292    1.295   .     A
O289   Cu293   1.963   .     S
O290   C291    1.295   .     A
O290   Cu294   1.963   .     S
C291   C298    1.449   .     S
C292   C297    1.449   .     S
Cu293  N323    2.028   .     S
Cu293  Cu294   2.698   .     S
Cu294  N324    2.028   .     S
C295   C305    1.402   .     A
C295   N325    1.440   .     S
C295   C297    1.400   .     A
C296   N328    1.440   .     S
C296   C298    1.400   .     A
C296   C306    1.402   .     A
C297   C299    1.404   .     A
C298   C300    1.404   .     A
C299   Cl331   1.776   .     S
C299   C301    1.417   .     A
C300   Cl332   1.776   .     S
C300   C302    1.417   .     A
C301   C307    1.421   .     A
C301   C303    1.429   .     A
C302   C308    1.421   .     A
C302   C304    1.429   .     A
C303   C305    1.414   .     A
C303   C934    1.418   .     S
C304   C306    1.414   .     A
C304   C933    1.418   1_554 S
C305   C310    1.399   .     A
C306   C309    1.399   .     A
C307   Cl333   1.767   .     S
C307   C939    1.387   .     S
C308   Cl334   1.767   .     S
C308   C940    1.387   1_554 S
C309   H311    1.082   .     S
C309   C937    1.387   1_554 S
C310   H312    1.082   .     S
C310   C938    1.387   .     S
C313   Cl335   1.777   .     S
C313   C318    1.413   .     A
C314   Cl336   1.777   .     S
C314   C317    1.413   .     A
C314   C386    1.390   .     S
C315   Cl337   1.777   .     S
C315   C317    1.414   .     A
C315   C383    1.390   .     S
C316   Cl338   1.777   .     S
C316   C318    1.414   .     A
C319   N339    1.429   .     S
C319   N324    1.374   .     A
C320   N342    1.429   .     S
C320   N323    1.374   .     A
C320   C531    1.421   .     S
C321   N324    1.373   .     A
C321   N345    1.429   .     S
C322   N348    1.429   .     S
C322   N323    1.373   .     A
C322   C529    1.421   .     S
N325   O326    1.301   .     A
N325   O327    1.301   .     A
N328   O330    1.301   .     A
N328   O329    1.300   .     A
N339   O340    1.299   .     A
N339   O341    1.301   .     A
N342   O343    1.299   .     A
N342   O344    1.301   .     A
N345   O346    1.301   .     A
N345   O347    1.299   .     A
N348   O350    1.299   .     A
N348   O349    1.301   .     A
O351   C355    1.302   .     A
O351   Cu363   1.976   .     S
O352   C356    1.302   .     A
O352   Cu364   1.976   .     S
O353   Cu363   1.976   .     S
O353   C356    1.302   .     A
O354   Cu364   1.976   .     S
O354   C355    1.302   .     A
C355   C388    1.470   .     S
C356   C387    1.470   .     S
O357   Cu363   1.963   .     S
O357   C361    1.295   .     A
O358   C362    1.295   .     A
O358   Cu364   1.963   .     S
O359   C362    1.295   .     A
O359   Cu363   1.963   .     S
O360   C361    1.295   .     A
O360   Cu364   1.963   .     S
C361   C368    1.449   .     S
C362   C367    1.449   .     S
Cu363  N393    2.028   .     S
Cu363  Cu364   2.698   .     S
Cu364  N394    2.028   .     S
C365   C375    1.402   .     A
C365   N395    1.440   .     S
C365   C367    1.400   .     A
C366   N398    1.440   .     S
C366   C368    1.400   .     A
C366   C376    1.402   .     A
C367   C369    1.404   .     A
C368   C370    1.404   .     A
C369   Cl401   1.776   .     S
C369   C371    1.417   .     A
C370   Cl402   1.776   .     S
C370   C372    1.417   .     A
C371   C377    1.421   .     A
C371   C373    1.429   .     A
C372   C378    1.421   .     A
C372   C374    1.429   .     A
C373   C375    1.414   .     A
C373   C1004   1.418   .     S
C374   C376    1.414   .     A
C374   C1003   1.418   1_554 S
C375   C380    1.399   .     A
C376   C379    1.399   .     A
C377   Cl403   1.767   .     S
C377   C1009   1.387   .     S
C378   Cl404   1.767   .     S
C378   C1010   1.387   1_554 S
C379   H381    1.082   .     S
C379   C1007   1.387   1_554 S
C380   H382    1.082   .     S
C380   C1008   1.387   .     S
C383   Cl405   1.777   .     S
C383   C388    1.413   .     A
C384   Cl406   1.777   .     S
C384   C387    1.413   .     A
C384   C246    1.390   1_655 S
C385   Cl407   1.777   .     S
C385   C387    1.414   .     A
C385   C243    1.390   1_655 S
C386   Cl408   1.777   .     S
C386   C388    1.414   .     A
C389   N409    1.429   .     S
C389   N394    1.374   .     A
C390   N412    1.429   .     S
C390   N393    1.374   .     A
C390   C601    1.421   .     S
C391   N394    1.373   .     A
C391   N415    1.429   .     S
C392   N418    1.429   .     S
C392   N393    1.373   .     A
C392   C599    1.421   .     S
N395   O396    1.301   .     A
N395   O397    1.301   .     A
N398   O400    1.301   .     A
N398   O399    1.300   .     A
N409   O410    1.299   .     A
N409   O411    1.301   .     A
N412   O413    1.299   .     A
N412   O414    1.301   .     A
N415   O416    1.301   .     A
N415   O417    1.299   .     A
N418   O420    1.299   .     A
N418   O419    1.301   .     A
O421   C425    1.302   .     A
O421   Cu433   1.976   .     S
O422   C426    1.302   .     A
O422   Cu434   1.976   .     S
O423   Cu433   1.976   .     S
O423   C426    1.302   .     A
O424   Cu434   1.976   .     S
O424   C425    1.302   .     A
C425   C458    1.470   .     S
C426   C457    1.470   .     S
O427   Cu433   1.963   .     S
O427   C431    1.295   .     A
O428   C432    1.295   .     A
O428   Cu434   1.963   .     S
O429   C432    1.295   .     A
O429   Cu433   1.963   .     S
O430   C431    1.295   .     A
O430   Cu434   1.963   .     S
C431   C438    1.449   .     S
C432   C437    1.449   .     S
Cu433  N463    2.028   .     S
Cu433  Cu434   2.698   .     S
Cu434  N464    2.028   .     S
C435   C445    1.402   .     A
C435   N465    1.440   .     S
C435   C437    1.400   .     A
C436   N468    1.440   .     S
C436   C438    1.400   .     A
C436   C446    1.402   .     A
C437   C439    1.404   .     A
C438   C440    1.404   .     A
C439   Cl471   1.776   .     S
C439   C441    1.417   .     A
C440   Cl472   1.776   .     S
C440   C442    1.417   .     A
C441   C447    1.421   .     A
C441   C443    1.429   .     A
C442   C448    1.421   .     A
C442   C444    1.429   .     A
C443   C445    1.414   .     A
C443   C1074   1.418   .     S
C444   C446    1.414   .     A
C444   C1073   1.418   1_554 S
C445   C450    1.399   .     A
C446   C449    1.399   .     A
C447   Cl473   1.767   .     S
C447   C1079   1.387   .     S
C448   Cl474   1.767   .     S
C448   C1080   1.387   1_554 S
C449   H451    1.082   .     S
C449   C1077   1.387   1_554 S
C450   H452    1.082   .     S
C450   C1078   1.387   .     S
C453   Cl475   1.777   .     S
C453   C458    1.413   .     A
C453   C595    1.390   1_455 S
C454   Cl476   1.777   .     S
C454   C457    1.413   .     A
C454   C526    1.390   .     S
C455   Cl477   1.777   .     S
C455   C457    1.414   .     A
C455   C523    1.390   .     S
C456   Cl478   1.777   .     S
C456   C458    1.414   .     A
C456   C594    1.390   1_455 S
C459   N479    1.429   .     S
C459   N464    1.374   .     A
C460   N482    1.429   .     S
C460   N463    1.374   .     A
C460   C41     1.421   1_565 S
C461   N464    1.373   .     A
C461   N485    1.429   .     S
C462   N488    1.429   .     S
C462   N463    1.373   .     A
C462   C39     1.421   1_565 S
N465   O466    1.301   .     A
N465   O467    1.301   .     A
N468   O470    1.301   .     A
N468   O469    1.300   .     A
N479   O480    1.299   .     A
N479   O481    1.301   .     A
N482   O483    1.299   .     A
N482   O484    1.301   .     A
N485   O486    1.301   .     A
N485   O487    1.299   .     A
N488   O490    1.299   .     A
N488   O489    1.301   .     A
O491   C495    1.302   .     A
O491   Cu503   1.976   .     S
O492   C496    1.302   .     A
O492   Cu504   1.976   .     S
O493   Cu503   1.976   .     S
O493   C496    1.302   .     A
O494   Cu504   1.976   .     S
O494   C495    1.302   .     A
C495   C528    1.470   .     S
C496   C527    1.470   .     S
O497   Cu503   1.963   .     S
O497   C501    1.295   .     A
O498   C502    1.295   .     A
O498   Cu504   1.963   .     S
O499   C502    1.295   .     A
O499   Cu503   1.963   .     S
O500   C501    1.295   .     A
O500   Cu504   1.963   .     S
C501   C508    1.449   .     S
C502   C507    1.449   .     S
Cu503  N533    2.028   .     S
Cu503  Cu504   2.698   .     S
Cu504  N534    2.028   .     S
C505   C515    1.402   .     A
C505   N535    1.440   .     S
C505   C507    1.400   .     A
C506   N538    1.440   .     S
C506   C508    1.400   .     A
C506   C516    1.402   .     A
C507   C509    1.404   .     A
C508   C510    1.404   .     A
C509   Cl541   1.776   .     S
C509   C511    1.417   .     A
C510   Cl542   1.776   .     S
C510   C512    1.417   .     A
C511   C517    1.421   .     A
C511   C513    1.429   .     A
C512   C518    1.421   .     A
C512   C514    1.429   .     A
C513   C515    1.414   .     A
C513   C1144   1.418   .     S
C514   C516    1.414   .     A
C514   C1143   1.418   1_554 S
C515   C520    1.399   .     A
C516   C519    1.399   .     A
C517   Cl543   1.767   .     S
C517   C1149   1.387   .     S
C518   Cl544   1.767   .     S
C518   C1150   1.387   1_554 S
C519   H521    1.082   .     S
C519   C1147   1.387   1_554 S
C520   H522    1.082   .     S
C520   C1148   1.387   .     S
C523   Cl545   1.777   .     S
C523   C528    1.413   .     A
C524   Cl546   1.777   .     S
C524   C527    1.413   .     A
C524   C596    1.390   .     S
C525   Cl547   1.777   .     S
C525   C527    1.414   .     A
C525   C593    1.390   .     S
C526   Cl548   1.777   .     S
C526   C528    1.414   .     A
C529   N549    1.429   .     S
C529   N534    1.374   .     A
C530   N552    1.429   .     S
C530   N533    1.374   .     A
C530   C111    1.421   1_565 S
C531   N534    1.373   .     A
C531   N555    1.429   .     S
C532   N558    1.429   .     S
C532   N533    1.373   .     A
C532   C109    1.421   1_565 S
N535   O536    1.301   .     A
N535   O537    1.301   .     A
N538   O540    1.301   .     A
N538   O539    1.300   .     A
N549   O550    1.299   .     A
N549   O551    1.301   .     A
N552   O553    1.299   .     A
N552   O554    1.301   .     A
N555   O556    1.301   .     A
N555   O557    1.299   .     A
N558   O560    1.299   .     A
N558   O559    1.301   .     A
O561   C565    1.302   .     A
O561   Cu573   1.976   .     S
O562   C566    1.302   .     A
O562   Cu574   1.976   .     S
O563   Cu573   1.976   .     S
O563   C566    1.302   .     A
O564   Cu574   1.976   .     S
O564   C565    1.302   .     A
C565   C598    1.470   .     S
C566   C597    1.470   .     S
O567   Cu573   1.963   .     S
O567   C571    1.295   .     A
O568   C572    1.295   .     A
O568   Cu574   1.963   .     S
O569   C572    1.295   .     A
O569   Cu573   1.963   .     S
O570   C571    1.295   .     A
O570   Cu574   1.963   .     S
C571   C578    1.449   .     S
C572   C577    1.449   .     S
Cu573  N603    2.028   .     S
Cu573  Cu574   2.698   .     S
Cu574  N604    2.028   .     S
C575   C585    1.402   .     A
C575   N605    1.440   .     S
C575   C577    1.400   .     A
C576   N608    1.440   .     S
C576   C578    1.400   .     A
C576   C586    1.402   .     A
C577   C579    1.404   .     A
C578   C580    1.404   .     A
C579   Cl611   1.776   .     S
C579   C581    1.417   .     A
C580   Cl612   1.776   .     S
C580   C582    1.417   .     A
C581   C587    1.421   .     A
C581   C583    1.429   .     A
C582   C588    1.421   .     A
C582   C584    1.429   .     A
C583   C585    1.414   .     A
C583   C1214   1.418   .     S
C584   C586    1.414   .     A
C584   C1213   1.418   1_554 S
C585   C590    1.399   .     A
C586   C589    1.399   .     A
C587   Cl613   1.767   .     S
C587   C1219   1.387   .     S
C588   Cl614   1.767   .     S
C588   C1220   1.387   1_554 S
C589   H591    1.082   .     S
C589   C1217   1.387   1_554 S
C590   H592    1.082   .     S
C590   C1218   1.387   .     S
C593   Cl615   1.777   .     S
C593   C598    1.413   .     A
C594   Cl616   1.777   .     S
C594   C597    1.413   .     A
C594   C456    1.390   1_655 S
C595   Cl617   1.777   .     S
C595   C597    1.414   .     A
C595   C453    1.390   1_655 S
C596   Cl618   1.777   .     S
C596   C598    1.414   .     A
C599   N619    1.429   .     S
C599   N604    1.374   .     A
C600   N622    1.429   .     S
C600   N603    1.374   .     A
C600   C181    1.421   1_565 S
C601   N604    1.373   .     A
C601   N625    1.429   .     S
C602   N628    1.429   .     S
C602   N603    1.373   .     A
C602   C179    1.421   1_565 S
N605   O606    1.301   .     A
N605   O607    1.301   .     A
N608   O610    1.301   .     A
N608   O609    1.300   .     A
N619   O620    1.299   .     A
N619   O621    1.301   .     A
N622   O623    1.299   .     A
N622   O624    1.301   .     A
N625   O626    1.301   .     A
N625   O627    1.299   .     A
N628   O630    1.299   .     A
N628   O629    1.301   .     A
O631   C635    1.302   .     A
O631   Cu643   1.976   .     S
O632   C636    1.302   .     A
O632   Cu644   1.976   .     S
O633   Cu643   1.976   .     S
O633   C636    1.302   .     A
O634   Cu644   1.976   .     S
O634   C635    1.302   .     A
C635   C668    1.470   .     S
C636   C667    1.470   .     S
O637   Cu643   1.963   .     S
O637   C641    1.295   .     A
O638   C642    1.295   .     A
O638   Cu644   1.963   .     S
O639   C642    1.295   .     A
O639   Cu643   1.963   .     S
O640   C641    1.295   .     A
O640   Cu644   1.963   .     S
C641   C648    1.449   .     S
C642   C647    1.449   .     S
Cu643  N673    2.028   .     S
Cu643  Cu644   2.698   .     S
Cu644  N674    2.028   .     S
C645   C655    1.402   .     A
C645   N675    1.440   .     S
C645   C647    1.400   .     A
C646   N678    1.440   .     S
C646   C648    1.400   .     A
C646   C656    1.402   .     A
C647   C649    1.404   .     A
C648   C650    1.404   .     A
C649   Cl681   1.776   .     S
C649   C651    1.417   .     A
C650   Cl682   1.776   .     S
C650   C652    1.417   .     A
C651   C657    1.421   .     A
C651   C653    1.429   .     A
C652   C658    1.421   .     A
C652   C654    1.429   .     A
C653   C655    1.414   .     A
C653   C24     1.418   1_556 S
C654   C656    1.414   .     A
C655   C660    1.399   .     A
C656   C659    1.399   .     A
C657   Cl683   1.767   .     S
C657   C29     1.387   1_556 S
C658   Cl684   1.767   .     S
C659   H661    1.082   .     S
C660   H662    1.082   .     S
C660   C28     1.387   1_556 S
C663   Cl685   1.777   .     S
C663   C668    1.413   .     A
C663   C805    1.390   1_455 S
C664   Cl686   1.777   .     S
C664   C667    1.413   .     A
C664   C736    1.390   .     S
C665   Cl687   1.777   .     S
C665   C667    1.414   .     A
C665   C733    1.390   .     S
C666   Cl688   1.777   .     S
C666   C668    1.414   .     A
C666   C804    1.390   1_455 S
C669   N689    1.429   .     S
C669   N674    1.374   .     A
C669   C1092   1.421   1_545 S
C670   N692    1.429   .     S
C670   N673    1.374   .     A
C670   C881    1.421   .     S
C671   N674    1.373   .     A
C671   N695    1.429   .     S
C671   C1090   1.421   1_545 S
C672   N698    1.429   .     S
C672   N673    1.373   .     A
C672   C879    1.421   .     S
N675   O676    1.301   .     A
N675   O677    1.301   .     A
N678   O680    1.301   .     A
N678   O679    1.300   .     A
N689   O690    1.299   .     A
N689   O691    1.301   .     A
N692   O693    1.299   .     A
N692   O694    1.301   .     A
N695   O696    1.301   .     A
N695   O697    1.299   .     A
N698   O700    1.299   .     A
N698   O699    1.301   .     A
O701   C705    1.302   .     A
O701   Cu713   1.976   .     S
O702   C706    1.302   .     A
O702   Cu714   1.976   .     S
O703   Cu713   1.976   .     S
O703   C706    1.302   .     A
O704   Cu714   1.976   .     S
O704   C705    1.302   .     A
C705   C738    1.470   .     S
C706   C737    1.470   .     S
O707   Cu713   1.963   .     S
O707   C711    1.295   .     A
O708   C712    1.295   .     A
O708   Cu714   1.963   .     S
O709   C712    1.295   .     A
O709   Cu713   1.963   .     S
O710   C711    1.295   .     A
O710   Cu714   1.963   .     S
C711   C718    1.449   .     S
C712   C717    1.449   .     S
Cu713  N743    2.028   .     S
Cu713  Cu714   2.698   .     S
Cu714  N744    2.028   .     S
C715   C725    1.402   .     A
C715   N745    1.440   .     S
C715   C717    1.400   .     A
C716   N748    1.440   .     S
C716   C718    1.400   .     A
C716   C726    1.402   .     A
C717   C719    1.404   .     A
C718   C720    1.404   .     A
C719   Cl751   1.776   .     S
C719   C721    1.417   .     A
C720   Cl752   1.776   .     S
C720   C722    1.417   .     A
C721   C727    1.421   .     A
C721   C723    1.429   .     A
C722   C728    1.421   .     A
C722   C724    1.429   .     A
C723   C725    1.414   .     A
C723   C94     1.418   1_556 S
C724   C726    1.414   .     A
C725   C730    1.399   .     A
C726   C729    1.399   .     A
C727   Cl753   1.767   .     S
C727   C99     1.387   1_556 S
C728   Cl754   1.767   .     S
C729   H731    1.082   .     S
C730   H732    1.082   .     S
C730   C98     1.387   1_556 S
C733   Cl755   1.777   .     S
C733   C738    1.413   .     A
C734   Cl756   1.777   .     S
C734   C737    1.413   .     A
C734   C806    1.390   .     S
C735   Cl757   1.777   .     S
C735   C737    1.414   .     A
C735   C803    1.390   .     S
C736   Cl758   1.777   .     S
C736   C738    1.414   .     A
C739   N759    1.429   .     S
C739   N744    1.374   .     A
C739   C1162   1.421   1_545 S
C740   N762    1.429   .     S
C740   N743    1.374   .     A
C740   C951    1.421   .     S
C741   N744    1.373   .     A
C741   N765    1.429   .     S
C741   C1160   1.421   1_545 S
C742   N768    1.429   .     S
C742   N743    1.373   .     A
C742   C949    1.421   .     S
N745   O746    1.301   .     A
N745   O747    1.301   .     A
N748   O750    1.301   .     A
N748   O749    1.300   .     A
N759   O760    1.299   .     A
N759   O761    1.301   .     A
N762   O763    1.299   .     A
N762   O764    1.301   .     A
N765   O766    1.301   .     A
N765   O767    1.299   .     A
N768   O770    1.299   .     A
N768   O769    1.301   .     A
O771   C775    1.302   .     A
O771   Cu783   1.976   .     S
O772   C776    1.302   .     A
O772   Cu784   1.976   .     S
O773   Cu783   1.976   .     S
O773   C776    1.302   .     A
O774   Cu784   1.976   .     S
O774   C775    1.302   .     A
C775   C808    1.470   .     S
C776   C807    1.470   .     S
O777   Cu783   1.963   .     S
O777   C781    1.295   .     A
O778   C782    1.295   .     A
O778   Cu784   1.963   .     S
O779   C782    1.295   .     A
O779   Cu783   1.963   .     S
O780   C781    1.295   .     A
O780   Cu784   1.963   .     S
C781   C788    1.449   .     S
C782   C787    1.449   .     S
Cu783  N813    2.028   .     S
Cu783  Cu784   2.698   .     S
Cu784  N814    2.028   .     S
C785   C795    1.402   .     A
C785   N815    1.440   .     S
C785   C787    1.400   .     A
C786   N818    1.440   .     S
C786   C788    1.400   .     A
C786   C796    1.402   .     A
C787   C789    1.404   .     A
C788   C790    1.404   .     A
C789   Cl821   1.776   .     S
C789   C791    1.417   .     A
C790   Cl822   1.776   .     S
C790   C792    1.417   .     A
C791   C797    1.421   .     A
C791   C793    1.429   .     A
C792   C798    1.421   .     A
C792   C794    1.429   .     A
C793   C795    1.414   .     A
C793   C164    1.418   1_556 S
C794   C796    1.414   .     A
C795   C800    1.399   .     A
C796   C799    1.399   .     A
C797   Cl823   1.767   .     S
C797   C169    1.387   1_556 S
C798   Cl824   1.767   .     S
C799   H801    1.082   .     S
C800   H802    1.082   .     S
C800   C168    1.387   1_556 S
C803   Cl825   1.777   .     S
C803   C808    1.413   .     A
C804   Cl826   1.777   .     S
C804   C807    1.413   .     A
C804   C666    1.390   1_655 S
C805   Cl827   1.777   .     S
C805   C807    1.414   .     A
C805   C663    1.390   1_655 S
C806   Cl828   1.777   .     S
C806   C808    1.414   .     A
C809   N829    1.429   .     S
C809   N814    1.374   .     A
C809   C1232   1.421   1_545 S
C810   N832    1.429   .     S
C810   N813    1.374   .     A
C810   C1021   1.421   .     S
C811   N814    1.373   .     A
C811   N835    1.429   .     S
C811   C1230   1.421   1_545 S
C812   N838    1.429   .     S
C812   N813    1.373   .     A
C812   C1019   1.421   .     S
N815   O816    1.301   .     A
N815   O817    1.301   .     A
N818   O820    1.301   .     A
N818   O819    1.300   .     A
N829   O830    1.299   .     A
N829   O831    1.301   .     A
N832   O833    1.299   .     A
N832   O834    1.301   .     A
N835   O836    1.301   .     A
N835   O837    1.299   .     A
N838   O840    1.299   .     A
N838   O839    1.301   .     A
O841   C845    1.302   .     A
O841   Cu853   1.976   .     S
O842   C846    1.302   .     A
O842   Cu854   1.976   .     S
O843   Cu853   1.976   .     S
O843   C846    1.302   .     A
O844   Cu854   1.976   .     S
O844   C845    1.302   .     A
C845   C878    1.470   .     S
C846   C877    1.470   .     S
O847   Cu853   1.963   .     S
O847   C851    1.295   .     A
O848   C852    1.295   .     A
O848   Cu854   1.963   .     S
O849   C852    1.295   .     A
O849   Cu853   1.963   .     S
O850   C851    1.295   .     A
O850   Cu854   1.963   .     S
C851   C858    1.449   .     S
C852   C857    1.449   .     S
Cu853  N883    2.028   .     S
Cu853  Cu854   2.698   .     S
Cu854  N884    2.028   .     S
C855   C865    1.402   .     A
C855   N885    1.440   .     S
C855   C857    1.400   .     A
C856   N888    1.440   .     S
C856   C858    1.400   .     A
C856   C866    1.402   .     A
C857   C859    1.404   .     A
C858   C860    1.404   .     A
C859   Cl891   1.776   .     S
C859   C861    1.417   .     A
C860   Cl892   1.776   .     S
C860   C862    1.417   .     A
C861   C867    1.421   .     A
C861   C863    1.429   .     A
C862   C868    1.421   .     A
C862   C864    1.429   .     A
C863   C865    1.414   .     A
C863   C234    1.418   1_556 S
C864   C866    1.414   .     A
C865   C870    1.399   .     A
C866   C869    1.399   .     A
C867   Cl893   1.767   .     S
C867   C239    1.387   1_556 S
C868   Cl894   1.767   .     S
C869   H871    1.082   .     S
C870   H872    1.082   .     S
C870   C238    1.387   1_556 S
C873   Cl895   1.777   .     S
C873   C878    1.413   .     A
C873   C1015   1.390   1_455 S
C874   Cl896   1.777   .     S
C874   C877    1.413   .     A
C874   C946    1.390   .     S
C875   Cl897   1.777   .     S
C875   C877    1.414   .     A
C875   C943    1.390   .     S
C876   Cl898   1.777   .     S
C876   C878    1.414   .     A
C876   C1014   1.390   1_455 S
C879   N899    1.429   .     S
C879   N884    1.374   .     A
C880   N902    1.429   .     S
C880   N883    1.374   .     A
C880   C1091   1.421   .     S
C881   N884    1.373   .     A
C881   N905    1.429   .     S
C882   N908    1.429   .     S
C882   N883    1.373   .     A
C882   C1089   1.421   .     S
N885   O886    1.301   .     A
N885   O887    1.301   .     A
N888   O890    1.301   .     A
N888   O889    1.300   .     A
N899   O900    1.299   .     A
N899   O901    1.301   .     A
N902   O903    1.299   .     A
N902   O904    1.301   .     A
N905   O906    1.301   .     A
N905   O907    1.299   .     A
N908   O910    1.299   .     A
N908   O909    1.301   .     A
O911   C915    1.302   .     A
O911   Cu923   1.976   .     S
O912   C916    1.302   .     A
O912   Cu924   1.976   .     S
O913   Cu923   1.976   .     S
O913   C916    1.302   .     A
O914   Cu924   1.976   .     S
O914   C915    1.302   .     A
C915   C948    1.470   .     S
C916   C947    1.470   .     S
O917   Cu923   1.963   .     S
O917   C921    1.295   .     A
O918   C922    1.295   .     A
O918   Cu924   1.963   .     S
O919   C922    1.295   .     A
O919   Cu923   1.963   .     S
O920   C921    1.295   .     A
O920   Cu924   1.963   .     S
C921   C928    1.449   .     S
C922   C927    1.449   .     S
Cu923  N953    2.028   .     S
Cu923  Cu924   2.698   .     S
Cu924  N954    2.028   .     S
C925   C935    1.402   .     A
C925   N955    1.440   .     S
C925   C927    1.400   .     A
C926   N958    1.440   .     S
C926   C928    1.400   .     A
C926   C936    1.402   .     A
C927   C929    1.404   .     A
C928   C930    1.404   .     A
C929   Cl961   1.776   .     S
C929   C931    1.417   .     A
C930   Cl962   1.776   .     S
C930   C932    1.417   .     A
C931   C937    1.421   .     A
C931   C933    1.429   .     A
C932   C938    1.421   .     A
C932   C934    1.429   .     A
C933   C935    1.414   .     A
C933   C304    1.418   1_556 S
C934   C936    1.414   .     A
C935   C940    1.399   .     A
C936   C939    1.399   .     A
C937   Cl963   1.767   .     S
C937   C309    1.387   1_556 S
C938   Cl964   1.767   .     S
C939   H941    1.082   .     S
C940   H942    1.082   .     S
C940   C308    1.387   1_556 S
C943   Cl965   1.777   .     S
C943   C948    1.413   .     A
C944   Cl966   1.777   .     S
C944   C947    1.413   .     A
C944   C1016   1.390   .     S
C945   Cl967   1.777   .     S
C945   C947    1.414   .     A
C945   C1013   1.390   .     S
C946   Cl968   1.777   .     S
C946   C948    1.414   .     A
C949   N969    1.429   .     S
C949   N954    1.374   .     A
C950   N972    1.429   .     S
C950   N953    1.374   .     A
C950   C1161   1.421   .     S
C951   N954    1.373   .     A
C951   N975    1.429   .     S
C952   N978    1.429   .     S
C952   N953    1.373   .     A
C952   C1159   1.421   .     S
N955   O956    1.301   .     A
N955   O957    1.301   .     A
N958   O960    1.301   .     A
N958   O959    1.300   .     A
N969   O970    1.299   .     A
N969   O971    1.301   .     A
N972   O973    1.299   .     A
N972   O974    1.301   .     A
N975   O976    1.301   .     A
N975   O977    1.299   .     A
N978   O980    1.299   .     A
N978   O979    1.301   .     A
O981   C985    1.302   .     A
O981   Cu993   1.976   .     S
O982   C986    1.302   .     A
O982   Cu994   1.976   .     S
O983   Cu993   1.976   .     S
O983   C986    1.302   .     A
O984   Cu994   1.976   .     S
O984   C985    1.302   .     A
C985   C1018   1.470   .     S
C986   C1017   1.470   .     S
O987   Cu993   1.963   .     S
O987   C991    1.295   .     A
O988   C992    1.295   .     A
O988   Cu994   1.963   .     S
O989   C992    1.295   .     A
O989   Cu993   1.963   .     S
O990   C991    1.295   .     A
O990   Cu994   1.963   .     S
C991   C998    1.449   .     S
C992   C997    1.449   .     S
Cu993  N1023   2.028   .     S
Cu993  Cu994   2.698   .     S
Cu994  N1024   2.028   .     S
C995   C1005   1.402   .     A
C995   N1025   1.440   .     S
C995   C997    1.400   .     A
C996   N1028   1.440   .     S
C996   C998    1.400   .     A
C996   C1006   1.402   .     A
C997   C999    1.404   .     A
C998   C1000   1.404   .     A
C999   Cl1031  1.776   .     S
C999   C1001   1.417   .     A
C1000  Cl1032  1.776   .     S
C1000  C1002   1.417   .     A
C1001  C1007   1.421   .     A
C1001  C1003   1.429   .     A
C1002  C1008   1.421   .     A
C1002  C1004   1.429   .     A
C1003  C1005   1.414   .     A
C1003  C374    1.418   1_556 S
C1004  C1006   1.414   .     A
C1005  C1010   1.399   .     A
C1006  C1009   1.399   .     A
C1007  Cl1033  1.767   .     S
C1007  C379    1.387   1_556 S
C1008  Cl1034  1.767   .     S
C1009  H1011   1.082   .     S
C1010  H1012   1.082   .     S
C1010  C378    1.387   1_556 S
C1013  Cl1035  1.777   .     S
C1013  C1018   1.413   .     A
C1014  Cl1036  1.777   .     S
C1014  C1017   1.413   .     A
C1014  C876    1.390   1_655 S
C1015  Cl1037  1.777   .     S
C1015  C1017   1.414   .     A
C1015  C873    1.390   1_655 S
C1016  Cl1038  1.777   .     S
C1016  C1018   1.414   .     A
C1019  N1039   1.429   .     S
C1019  N1024   1.374   .     A
C1020  N1042   1.429   .     S
C1020  N1023   1.374   .     A
C1020  C1231   1.421   .     S
C1021  N1024   1.373   .     A
C1021  N1045   1.429   .     S
C1022  N1048   1.429   .     S
C1022  N1023   1.373   .     A
C1022  C1229   1.421   .     S
N1025  O1026   1.301   .     A
N1025  O1027   1.301   .     A
N1028  O1030   1.301   .     A
N1028  O1029   1.300   .     A
N1039  O1040   1.299   .     A
N1039  O1041   1.301   .     A
N1042  O1043   1.299   .     A
N1042  O1044   1.301   .     A
N1045  O1046   1.301   .     A
N1045  O1047   1.299   .     A
N1048  O1050   1.299   .     A
N1048  O1049   1.301   .     A
O1051  C1055   1.302   .     A
O1051  Cu1063  1.976   .     S
O1052  C1056   1.302   .     A
O1052  Cu1064  1.976   .     S
O1053  Cu1063  1.976   .     S
O1053  C1056   1.302   .     A
O1054  Cu1064  1.976   .     S
O1054  C1055   1.302   .     A
C1055  C1088   1.470   .     S
C1056  C1087   1.470   .     S
O1057  Cu1063  1.963   .     S
O1057  C1061   1.295   .     A
O1058  C1062   1.295   .     A
O1058  Cu1064  1.963   .     S
O1059  C1062   1.295   .     A
O1059  Cu1063  1.963   .     S
O1060  C1061   1.295   .     A
O1060  Cu1064  1.963   .     S
C1061  C1068   1.449   .     S
C1062  C1067   1.449   .     S
Cu1063 N1093   2.028   .     S
Cu1063 Cu1064  2.698   .     S
Cu1064 N1094   2.028   .     S
C1065  C1075   1.402   .     A
C1065  N1095   1.440   .     S
C1065  C1067   1.400   .     A
C1066  N1098   1.440   .     S
C1066  C1068   1.400   .     A
C1066  C1076   1.402   .     A
C1067  C1069   1.404   .     A
C1068  C1070   1.404   .     A
C1069  Cl1101  1.776   .     S
C1069  C1071   1.417   .     A
C1070  Cl1102  1.776   .     S
C1070  C1072   1.417   .     A
C1071  C1077   1.421   .     A
C1071  C1073   1.429   .     A
C1072  C1078   1.421   .     A
C1072  C1074   1.429   .     A
C1073  C1075   1.414   .     A
C1073  C444    1.418   1_556 S
C1074  C1076   1.414   .     A
C1075  C1080   1.399   .     A
C1076  C1079   1.399   .     A
C1077  Cl1103  1.767   .     S
C1077  C449    1.387   1_556 S
C1078  Cl1104  1.767   .     S
C1079  H1081   1.082   .     S
C1080  H1082   1.082   .     S
C1080  C448    1.387   1_556 S
C1083  Cl1105  1.777   .     S
C1083  C1088   1.413   .     A
C1083  C1225   1.390   1_455 S
C1084  Cl1106  1.777   .     S
C1084  C1087   1.413   .     A
C1084  C1156   1.390   .     S
C1085  Cl1107  1.777   .     S
C1085  C1087   1.414   .     A
C1085  C1153   1.390   .     S
C1086  Cl1108  1.777   .     S
C1086  C1088   1.414   .     A
C1086  C1224   1.390   1_455 S
C1089  N1109   1.429   .     S
C1089  N1094   1.374   .     A
C1090  N1112   1.429   .     S
C1090  N1093   1.374   .     A
C1090  C671    1.421   1_565 S
C1091  N1094   1.373   .     A
C1091  N1115   1.429   .     S
C1092  N1118   1.429   .     S
C1092  N1093   1.373   .     A
C1092  C669    1.421   1_565 S
N1095  O1096   1.301   .     A
N1095  O1097   1.301   .     A
N1098  O1100   1.301   .     A
N1098  O1099   1.300   .     A
N1109  O1110   1.299   .     A
N1109  O1111   1.301   .     A
N1112  O1113   1.299   .     A
N1112  O1114   1.301   .     A
N1115  O1116   1.301   .     A
N1115  O1117   1.299   .     A
N1118  O1120   1.299   .     A
N1118  O1119   1.301   .     A
O1121  C1125   1.302   .     A
O1121  Cu1133  1.976   .     S
O1122  C1126   1.302   .     A
O1122  Cu1134  1.976   .     S
O1123  Cu1133  1.976   .     S
O1123  C1126   1.302   .     A
O1124  Cu1134  1.976   .     S
O1124  C1125   1.302   .     A
C1125  C1158   1.470   .     S
C1126  C1157   1.470   .     S
O1127  Cu1133  1.963   .     S
O1127  C1131   1.295   .     A
O1128  C1132   1.295   .     A
O1128  Cu1134  1.963   .     S
O1129  C1132   1.295   .     A
O1129  Cu1133  1.963   .     S
O1130  C1131   1.295   .     A
O1130  Cu1134  1.963   .     S
C1131  C1138   1.449   .     S
C1132  C1137   1.449   .     S
Cu1133 N1163   2.028   .     S
Cu1133 Cu1134  2.698   .     S
Cu1134 N1164   2.028   .     S
C1135  C1145   1.402   .     A
C1135  N1165   1.440   .     S
C1135  C1137   1.400   .     A
C1136  N1168   1.440   .     S
C1136  C1138   1.400   .     A
C1136  C1146   1.402   .     A
C1137  C1139   1.404   .     A
C1138  C1140   1.404   .     A
C1139  Cl1171  1.776   .     S
C1139  C1141   1.417   .     A
C1140  Cl1172  1.776   .     S
C1140  C1142   1.417   .     A
C1141  C1147   1.421   .     A
C1141  C1143   1.429   .     A
C1142  C1148   1.421   .     A
C1142  C1144   1.429   .     A
C1143  C1145   1.414   .     A
C1143  C514    1.418   1_556 S
C1144  C1146   1.414   .     A
C1145  C1150   1.399   .     A
C1146  C1149   1.399   .     A
C1147  Cl1173  1.767   .     S
C1147  C519    1.387   1_556 S
C1148  Cl1174  1.767   .     S
C1149  H1151   1.082   .     S
C1150  H1152   1.082   .     S
C1150  C518    1.387   1_556 S
C1153  Cl1175  1.777   .     S
C1153  C1158   1.413   .     A
C1154  Cl1176  1.777   .     S
C1154  C1157   1.413   .     A
C1154  C1226   1.390   .     S
C1155  Cl1177  1.777   .     S
C1155  C1157   1.414   .     A
C1155  C1223   1.390   .     S
C1156  Cl1178  1.777   .     S
C1156  C1158   1.414   .     A
C1159  N1179   1.429   .     S
C1159  N1164   1.374   .     A
C1160  N1182   1.429   .     S
C1160  N1163   1.374   .     A
C1160  C741    1.421   1_565 S
C1161  N1164   1.373   .     A
C1161  N1185   1.429   .     S
C1162  N1188   1.429   .     S
C1162  N1163   1.373   .     A
C1162  C739    1.421   1_565 S
N1165  O1166   1.301   .     A
N1165  O1167   1.301   .     A
N1168  O1170   1.301   .     A
N1168  O1169   1.300   .     A
N1179  O1180   1.299   .     A
N1179  O1181   1.301   .     A
N1182  O1183   1.299   .     A
N1182  O1184   1.301   .     A
N1185  O1186   1.301   .     A
N1185  O1187   1.299   .     A
N1188  O1190   1.299   .     A
N1188  O1189   1.301   .     A
O1191  C1195   1.302   .     A
O1191  Cu1203  1.976   .     S
O1192  C1196   1.302   .     A
O1192  Cu1204  1.976   .     S
O1193  Cu1203  1.976   .     S
O1193  C1196   1.302   .     A
O1194  Cu1204  1.976   .     S
O1194  C1195   1.302   .     A
C1195  C1228   1.470   .     S
C1196  C1227   1.470   .     S
O1197  Cu1203  1.963   .     S
O1197  C1201   1.295   .     A
O1198  C1202   1.295   .     A
O1198  Cu1204  1.963   .     S
O1199  C1202   1.295   .     A
O1199  Cu1203  1.963   .     S
O1200  C1201   1.295   .     A
O1200  Cu1204  1.963   .     S
C1201  C1208   1.449   .     S
C1202  C1207   1.449   .     S
Cu1203 N1233   2.028   .     S
Cu1203 Cu1204  2.698   .     S
Cu1204 N1234   2.028   .     S
C1205  C1215   1.402   .     A
C1205  N1235   1.440   .     S
C1205  C1207   1.400   .     A
C1206  N1238   1.440   .     S
C1206  C1208   1.400   .     A
C1206  C1216   1.402   .     A
C1207  C1209   1.404   .     A
C1208  C1210   1.404   .     A
C1209  Cl1241  1.776   .     S
C1209  C1211   1.417   .     A
C1210  Cl1242  1.776   .     S
C1210  C1212   1.417   .     A
C1211  C1217   1.421   .     A
C1211  C1213   1.429   .     A
C1212  C1218   1.421   .     A
C1212  C1214   1.429   .     A
C1213  C1215   1.414   .     A
C1213  C584    1.418   1_556 S
C1214  C1216   1.414   .     A
C1215  C1220   1.399   .     A
C1216  C1219   1.399   .     A
C1217  Cl1243  1.767   .     S
C1217  C589    1.387   1_556 S
C1218  Cl1244  1.767   .     S
C1219  H1221   1.082   .     S
C1220  H1222   1.082   .     S
C1220  C588    1.387   1_556 S
C1223  Cl1245  1.777   .     S
C1223  C1228   1.413   .     A
C1224  Cl1246  1.777   .     S
C1224  C1227   1.413   .     A
C1224  C1086   1.390   1_655 S
C1225  Cl1247  1.777   .     S
C1225  C1227   1.414   .     A
C1225  C1083   1.390   1_655 S
C1226  Cl1248  1.777   .     S
C1226  C1228   1.414   .     A
C1229  N1249   1.429   .     S
C1229  N1234   1.374   .     A
C1230  N1252   1.429   .     S
C1230  N1233   1.374   .     A
C1230  C811    1.421   1_565 S
C1231  N1234   1.373   .     A
C1231  N1255   1.429   .     S
C1232  N1258   1.429   .     S
C1232  N1233   1.373   .     A
C1232  C809    1.421   1_565 S
N1235  O1236   1.301   .     A
N1235  O1237   1.301   .     A
N1238  O1240   1.301   .     A
N1238  O1239   1.300   .     A
N1249  O1250   1.299   .     A
N1249  O1251   1.301   .     A
N1252  O1253   1.299   .     A
N1252  O1254   1.301   .     A
N1255  O1256   1.301   .     A
N1255  O1257   1.299   .     A
N1258  O1260   1.299   .     A
N1258  O1259   1.301   .     A
