data_str_m2_o10_o17_pcu_sym.167
_audit_creation_date              2020-01-03
_audit_creation_method            'Materials Studio'
_symmetry_space_group_name_H-M    'P1'
_symmetry_Int_Tables_number       1
_symmetry_cell_setting            triclinic
loop_
_symmetry_equiv_pos_as_xyz
  x,y,z
_cell_length_a                    29.9136
_cell_length_b                    26.1926
_cell_length_c                    22.3299
_cell_angle_alpha                 102.3960
_cell_angle_beta                  94.7895
_cell_angle_gamma                 91.5849
loop_
_atom_site_label
_atom_site_type_symbol
_atom_site_fract_x
_atom_site_fract_y
_atom_site_fract_z
_atom_site_U_iso_or_equiv
_atom_site_adp_type
_atom_site_occupancy
C1     C     0.24845   0.06690   0.15171   0.00000  Uiso   1.00
C2     C     0.25155   0.26644   0.18162   0.00000  Uiso   1.00
C3     C     0.02301   0.08110   0.19313   0.00000  Uiso   1.00
C4     C     0.47699   0.25224   0.14021   0.00000  Uiso   1.00
C5     C     0.24009   0.01210   0.14560   0.00000  Uiso   1.00
C6     C     0.25991   0.32124   0.18773   0.00000  Uiso   1.00
C7     C     0.16454   0.16696   0.16735   0.00000  Uiso   1.00
C8     C     0.33546   0.16637   0.16598   0.00000  Uiso   1.00
C9     C     0.40655   0.20811   0.15033   0.00000  Uiso   1.00
C10    C     0.09345   0.12522   0.18300   0.00000  Uiso   1.00
C11    C     0.38351   0.16575   0.16440   0.00000  Uiso   1.00
C12    C     0.11649   0.16758   0.16893   0.00000  Uiso   1.00
C13    C     0.40629   0.12324   0.17806   0.00000  Uiso   1.00
C14    C     0.09371   0.21009   0.15528   0.00000  Uiso   1.00
C15    C     0.45290   0.12297   0.17837   0.00000  Uiso   1.00
C16    C     0.04710   0.21036   0.15496   0.00000  Uiso   1.00
C17    C     0.47653   0.16636   0.16590   0.00000  Uiso   1.00
C18    C     0.02347   0.16698   0.16744   0.00000  Uiso   1.00
C19    C     0.45322   0.20911   0.15184   0.00000  Uiso   1.00
C20    C     0.04678   0.12422   0.18149   0.00000  Uiso   1.00
C21    C     0.47630   0.08039   0.19124   0.00000  Uiso   1.00
C22    C     0.02370   0.25295   0.14209   0.00000  Uiso   1.00
Cu23   Cu    0.25500   0.17246   0.22813   0.00000  Uiso   1.00
Cu24   Cu    0.24499   0.16087   0.10521   0.00000  Uiso   1.00
H25    H     0.38817   0.24052   0.13945   0.00000  Uiso   1.00
H26    H     0.11183   0.09282   0.19389   0.00000  Uiso   1.00
H27    H     0.38760   0.09055   0.18806   0.00000  Uiso   1.00
H28    H     0.11240   0.24279   0.14527   0.00000  Uiso   1.00
H29    H     0.45857   0.04652   0.19968   0.00000  Uiso   1.00
H30    H     0.04142   0.28682   0.13365   0.00000  Uiso   1.00
H31    H     0.04052   0.04791   0.20346   0.00000  Uiso   1.00
H32    H     0.45948   0.28543   0.12988   0.00000  Uiso   1.00
H33    H     0.21489   0.12663   0.31612   0.00000  Uiso   1.00
H34    H     0.28511   0.20670   0.01721   0.00000  Uiso   1.00
N35    N     0.23744   0.15214   0.01284   0.00000  Uiso   1.00
N36    N     0.26255   0.18119   0.32049   0.00000  Uiso   1.00
O37    O     0.25325   0.09538   0.20659   0.00000  Uiso   1.00
O38    O     0.24674   0.23796   0.12674   0.00000  Uiso   1.00
O39    O     0.24480   0.08559   0.10279   0.00000  Uiso   1.00
O40    O     0.25520   0.24774   0.23055   0.00000  Uiso   1.00
O41    O     0.18935   0.17155   0.21857   0.00000  Uiso   1.00
O42    O     0.31064   0.16179   0.11476   0.00000  Uiso   1.00
O43    O     0.18090   0.16176   0.11477   0.00000  Uiso   1.00
O44    O     0.31910   0.17157   0.21857   0.00000  Uiso   1.00
C45    C     0.20255   0.32177   0.09912   0.00000  Uiso   1.00
C46    C     0.15809   0.32960   0.11332   0.00000  Uiso   1.00
C47    C     0.12258   0.31558   0.06727   0.00000  Uiso   1.00
C48    C     0.13110   0.29278   0.00708   0.00000  Uiso   1.00
C49    C     0.17524   0.28481   0.32598   0.00000  Uiso   1.00
C50    C     0.21097   0.29955   0.03833   0.00000  Uiso   1.00
H51    H     0.15116   0.01461   0.15963   0.00000  Uiso   1.00
H52    H     0.08854   0.32336   0.07788   0.00000  Uiso   1.00
H53    H     0.10358   0.28207   0.30476   0.00000  Uiso   1.00
H54    H     0.18159   0.26847   0.27902   0.00000  Uiso   1.00
H55    H     0.24514   0.29479   0.02628   0.00000  Uiso   1.00
C56    C     0.29745   0.01156   0.23422   0.00000  Uiso   1.00
C57    C     0.28902   0.03378   0.29501   0.00000  Uiso   1.00
C58    C     0.32476   0.04852   0.00736   0.00000  Uiso   1.00
C59    C     0.36890   0.04055   0.32625   0.00000  Uiso   1.00
C60    C     0.37742   0.01776   0.26607   0.00000  Uiso   1.00
C61    C     0.34191   0.00373   0.22001   0.00000  Uiso   1.00
H62    H     0.25486   0.03854   0.30706   0.00000  Uiso   1.00
H63    H     0.31840   0.06487   0.05431   0.00000  Uiso   1.00
H64    H     0.39642   0.05126   0.02858   0.00000  Uiso   1.00
H65    H     0.41146   0.00998   0.25545   0.00000  Uiso   1.00
H66    H     0.34884   0.31873   0.17370   0.00000  Uiso   1.00
C67    C     0.74845   0.06690   0.15171   0.00000  Uiso   1.00
C68    C     0.75155   0.26644   0.18162   0.00000  Uiso   1.00
C69    C     0.52301   0.08110   0.19313   0.00000  Uiso   1.00
C70    C     0.97699   0.25224   0.14021   0.00000  Uiso   1.00
C71    C     0.74009   0.01210   0.14560   0.00000  Uiso   1.00
C72    C     0.75991   0.32124   0.18773   0.00000  Uiso   1.00
C73    C     0.66454   0.16696   0.16735   0.00000  Uiso   1.00
C74    C     0.83546   0.16637   0.16598   0.00000  Uiso   1.00
C75    C     0.90655   0.20811   0.15033   0.00000  Uiso   1.00
C76    C     0.59345   0.12522   0.18300   0.00000  Uiso   1.00
C77    C     0.88351   0.16575   0.16440   0.00000  Uiso   1.00
C78    C     0.61649   0.16758   0.16893   0.00000  Uiso   1.00
C79    C     0.90629   0.12324   0.17806   0.00000  Uiso   1.00
C80    C     0.59371   0.21009   0.15528   0.00000  Uiso   1.00
C81    C     0.95290   0.12297   0.17837   0.00000  Uiso   1.00
C82    C     0.54710   0.21036   0.15496   0.00000  Uiso   1.00
C83    C     0.97653   0.16636   0.16590   0.00000  Uiso   1.00
C84    C     0.52347   0.16698   0.16744   0.00000  Uiso   1.00
C85    C     0.95322   0.20911   0.15184   0.00000  Uiso   1.00
C86    C     0.54678   0.12422   0.18149   0.00000  Uiso   1.00
C87    C     0.97630   0.08039   0.19124   0.00000  Uiso   1.00
C88    C     0.52370   0.25295   0.14209   0.00000  Uiso   1.00
Cu89   Cu    0.75500   0.17246   0.22813   0.00000  Uiso   1.00
Cu90   Cu    0.74499   0.16087   0.10521   0.00000  Uiso   1.00
H91    H     0.88817   0.24052   0.13945   0.00000  Uiso   1.00
H92    H     0.61183   0.09282   0.19389   0.00000  Uiso   1.00
H93    H     0.88760   0.09055   0.18806   0.00000  Uiso   1.00
H94    H     0.61240   0.24279   0.14527   0.00000  Uiso   1.00
H95    H     0.95857   0.04652   0.19968   0.00000  Uiso   1.00
H96    H     0.54142   0.28682   0.13365   0.00000  Uiso   1.00
H97    H     0.54052   0.04791   0.20346   0.00000  Uiso   1.00
H98    H     0.95948   0.28543   0.12988   0.00000  Uiso   1.00
H99    H     0.71489   0.12663   0.31612   0.00000  Uiso   1.00
H100   H     0.78511   0.20670   0.01721   0.00000  Uiso   1.00
N101   N     0.73744   0.15214   0.01284   0.00000  Uiso   1.00
N102   N     0.76255   0.18119   0.32049   0.00000  Uiso   1.00
O103   O     0.75325   0.09538   0.20659   0.00000  Uiso   1.00
O104   O     0.74674   0.23796   0.12674   0.00000  Uiso   1.00
O105   O     0.74480   0.08559   0.10279   0.00000  Uiso   1.00
O106   O     0.75520   0.24774   0.23055   0.00000  Uiso   1.00
O107   O     0.68935   0.17155   0.21857   0.00000  Uiso   1.00
O108   O     0.81064   0.16179   0.11476   0.00000  Uiso   1.00
O109   O     0.68090   0.16176   0.11477   0.00000  Uiso   1.00
O110   O     0.81910   0.17157   0.21857   0.00000  Uiso   1.00
C111   C     0.70255   0.32177   0.09912   0.00000  Uiso   1.00
C112   C     0.65809   0.32960   0.11332   0.00000  Uiso   1.00
C113   C     0.62258   0.31558   0.06727   0.00000  Uiso   1.00
C114   C     0.63110   0.29278   0.00708   0.00000  Uiso   1.00
C115   C     0.67524   0.28481   0.32598   0.00000  Uiso   1.00
C116   C     0.71097   0.29955   0.03833   0.00000  Uiso   1.00
H117   H     0.65116   0.01461   0.15963   0.00000  Uiso   1.00
H118   H     0.58854   0.32336   0.07788   0.00000  Uiso   1.00
H119   H     0.60358   0.28207   0.30476   0.00000  Uiso   1.00
H120   H     0.68159   0.26847   0.27902   0.00000  Uiso   1.00
H121   H     0.74514   0.29479   0.02628   0.00000  Uiso   1.00
C122   C     0.79745   0.01156   0.23422   0.00000  Uiso   1.00
C123   C     0.78902   0.03378   0.29501   0.00000  Uiso   1.00
C124   C     0.82476   0.04852   0.00736   0.00000  Uiso   1.00
C125   C     0.86890   0.04055   0.32625   0.00000  Uiso   1.00
C126   C     0.87742   0.01776   0.26607   0.00000  Uiso   1.00
C127   C     0.84191   0.00373   0.22001   0.00000  Uiso   1.00
H128   H     0.75486   0.03854   0.30706   0.00000  Uiso   1.00
H129   H     0.81840   0.06487   0.05431   0.00000  Uiso   1.00
H130   H     0.89642   0.05126   0.02858   0.00000  Uiso   1.00
H131   H     0.91146   0.00998   0.25545   0.00000  Uiso   1.00
H132   H     0.84884   0.31873   0.17370   0.00000  Uiso   1.00
C133   C     0.24845   0.40023   0.15171   0.00000  Uiso   1.00
C134   C     0.25155   0.59977   0.18162   0.00000  Uiso   1.00
C135   C     0.02301   0.41443   0.19313   0.00000  Uiso   1.00
C136   C     0.47699   0.58557   0.14021   0.00000  Uiso   1.00
C137   C     0.24009   0.34543   0.14560   0.00000  Uiso   1.00
C138   C     0.25991   0.65457   0.18773   0.00000  Uiso   1.00
C139   C     0.16454   0.50030   0.16735   0.00000  Uiso   1.00
C140   C     0.33546   0.49970   0.16598   0.00000  Uiso   1.00
C141   C     0.40655   0.54144   0.15033   0.00000  Uiso   1.00
C142   C     0.09345   0.45856   0.18300   0.00000  Uiso   1.00
C143   C     0.38351   0.49909   0.16440   0.00000  Uiso   1.00
C144   C     0.11649   0.50091   0.16893   0.00000  Uiso   1.00
C145   C     0.40629   0.45657   0.17806   0.00000  Uiso   1.00
C146   C     0.09371   0.54343   0.15528   0.00000  Uiso   1.00
C147   C     0.45290   0.45630   0.17837   0.00000  Uiso   1.00
C148   C     0.04710   0.54370   0.15496   0.00000  Uiso   1.00
C149   C     0.47653   0.49969   0.16590   0.00000  Uiso   1.00
C150   C     0.02347   0.50031   0.16744   0.00000  Uiso   1.00
C151   C     0.45322   0.54245   0.15184   0.00000  Uiso   1.00
C152   C     0.04678   0.45755   0.18149   0.00000  Uiso   1.00
C153   C     0.47630   0.41372   0.19124   0.00000  Uiso   1.00
C154   C     0.02370   0.58628   0.14209   0.00000  Uiso   1.00
Cu155  Cu    0.25500   0.50579   0.22813   0.00000  Uiso   1.00
Cu156  Cu    0.24499   0.49421   0.10521   0.00000  Uiso   1.00
H157   H     0.38817   0.57385   0.13945   0.00000  Uiso   1.00
H158   H     0.11183   0.42615   0.19389   0.00000  Uiso   1.00
H159   H     0.38760   0.42388   0.18806   0.00000  Uiso   1.00
H160   H     0.11240   0.57612   0.14527   0.00000  Uiso   1.00
H161   H     0.45857   0.37985   0.19968   0.00000  Uiso   1.00
H162   H     0.04142   0.62015   0.13365   0.00000  Uiso   1.00
H163   H     0.04052   0.38124   0.20346   0.00000  Uiso   1.00
H164   H     0.45948   0.61876   0.12988   0.00000  Uiso   1.00
H165   H     0.21489   0.45996   0.31612   0.00000  Uiso   1.00
H166   H     0.28511   0.54003   0.01721   0.00000  Uiso   1.00
N167   N     0.23744   0.48547   0.01284   0.00000  Uiso   1.00
N168   N     0.26255   0.51453   0.32049   0.00000  Uiso   1.00
O169   O     0.25325   0.42871   0.20659   0.00000  Uiso   1.00
O170   O     0.24674   0.57129   0.12674   0.00000  Uiso   1.00
O171   O     0.24480   0.41892   0.10279   0.00000  Uiso   1.00
O172   O     0.25520   0.58108   0.23055   0.00000  Uiso   1.00
O173   O     0.18935   0.50488   0.21857   0.00000  Uiso   1.00
O174   O     0.31064   0.49512   0.11476   0.00000  Uiso   1.00
O175   O     0.18090   0.49510   0.11477   0.00000  Uiso   1.00
O176   O     0.31910   0.50490   0.21857   0.00000  Uiso   1.00
C177   C     0.20255   0.65510   0.09912   0.00000  Uiso   1.00
C178   C     0.15809   0.66293   0.11332   0.00000  Uiso   1.00
C179   C     0.12258   0.64891   0.06727   0.00000  Uiso   1.00
C180   C     0.13110   0.62611   0.00708   0.00000  Uiso   1.00
C181   C     0.17524   0.61814   0.32598   0.00000  Uiso   1.00
C182   C     0.21097   0.63288   0.03833   0.00000  Uiso   1.00
H183   H     0.15116   0.34794   0.15963   0.00000  Uiso   1.00
H184   H     0.08854   0.65669   0.07788   0.00000  Uiso   1.00
H185   H     0.10358   0.61540   0.30476   0.00000  Uiso   1.00
H186   H     0.18159   0.60180   0.27902   0.00000  Uiso   1.00
H187   H     0.24514   0.62812   0.02628   0.00000  Uiso   1.00
C188   C     0.29745   0.34490   0.23422   0.00000  Uiso   1.00
C189   C     0.28902   0.36712   0.29501   0.00000  Uiso   1.00
C190   C     0.32476   0.38186   0.00736   0.00000  Uiso   1.00
C191   C     0.36890   0.37389   0.32625   0.00000  Uiso   1.00
C192   C     0.37742   0.35109   0.26607   0.00000  Uiso   1.00
C193   C     0.34191   0.33707   0.22001   0.00000  Uiso   1.00
H194   H     0.25486   0.37188   0.30706   0.00000  Uiso   1.00
H195   H     0.31840   0.39820   0.05431   0.00000  Uiso   1.00
H196   H     0.39642   0.38460   0.02858   0.00000  Uiso   1.00
H197   H     0.41146   0.34331   0.25545   0.00000  Uiso   1.00
H198   H     0.34884   0.65206   0.17370   0.00000  Uiso   1.00
C199   C     0.74845   0.40023   0.15171   0.00000  Uiso   1.00
C200   C     0.75155   0.59977   0.18162   0.00000  Uiso   1.00
C201   C     0.52301   0.41443   0.19313   0.00000  Uiso   1.00
C202   C     0.97699   0.58557   0.14021   0.00000  Uiso   1.00
C203   C     0.74009   0.34543   0.14560   0.00000  Uiso   1.00
C204   C     0.75991   0.65457   0.18773   0.00000  Uiso   1.00
C205   C     0.66454   0.50030   0.16735   0.00000  Uiso   1.00
C206   C     0.83546   0.49970   0.16598   0.00000  Uiso   1.00
C207   C     0.90655   0.54144   0.15033   0.00000  Uiso   1.00
C208   C     0.59345   0.45856   0.18300   0.00000  Uiso   1.00
C209   C     0.88351   0.49909   0.16440   0.00000  Uiso   1.00
C210   C     0.61649   0.50091   0.16893   0.00000  Uiso   1.00
C211   C     0.90629   0.45657   0.17806   0.00000  Uiso   1.00
C212   C     0.59371   0.54343   0.15528   0.00000  Uiso   1.00
C213   C     0.95290   0.45630   0.17837   0.00000  Uiso   1.00
C214   C     0.54710   0.54370   0.15496   0.00000  Uiso   1.00
C215   C     0.97653   0.49969   0.16590   0.00000  Uiso   1.00
C216   C     0.52347   0.50031   0.16744   0.00000  Uiso   1.00
C217   C     0.95322   0.54245   0.15184   0.00000  Uiso   1.00
C218   C     0.54678   0.45755   0.18149   0.00000  Uiso   1.00
C219   C     0.97630   0.41372   0.19124   0.00000  Uiso   1.00
C220   C     0.52370   0.58628   0.14209   0.00000  Uiso   1.00
Cu221  Cu    0.75500   0.50579   0.22813   0.00000  Uiso   1.00
Cu222  Cu    0.74499   0.49421   0.10521   0.00000  Uiso   1.00
H223   H     0.88817   0.57385   0.13945   0.00000  Uiso   1.00
H224   H     0.61183   0.42615   0.19389   0.00000  Uiso   1.00
H225   H     0.88760   0.42388   0.18806   0.00000  Uiso   1.00
H226   H     0.61240   0.57612   0.14527   0.00000  Uiso   1.00
H227   H     0.95857   0.37985   0.19968   0.00000  Uiso   1.00
H228   H     0.54142   0.62015   0.13365   0.00000  Uiso   1.00
H229   H     0.54052   0.38124   0.20346   0.00000  Uiso   1.00
H230   H     0.95948   0.61876   0.12988   0.00000  Uiso   1.00
H231   H     0.71489   0.45996   0.31612   0.00000  Uiso   1.00
H232   H     0.78511   0.54003   0.01721   0.00000  Uiso   1.00
N233   N     0.73744   0.48547   0.01284   0.00000  Uiso   1.00
N234   N     0.76255   0.51453   0.32049   0.00000  Uiso   1.00
O235   O     0.75325   0.42871   0.20659   0.00000  Uiso   1.00
O236   O     0.74674   0.57129   0.12674   0.00000  Uiso   1.00
O237   O     0.74480   0.41892   0.10279   0.00000  Uiso   1.00
O238   O     0.75520   0.58108   0.23055   0.00000  Uiso   1.00
O239   O     0.68935   0.50488   0.21857   0.00000  Uiso   1.00
O240   O     0.81064   0.49512   0.11476   0.00000  Uiso   1.00
O241   O     0.68090   0.49510   0.11477   0.00000  Uiso   1.00
O242   O     0.81910   0.50490   0.21857   0.00000  Uiso   1.00
C243   C     0.70255   0.65510   0.09912   0.00000  Uiso   1.00
C244   C     0.65809   0.66293   0.11332   0.00000  Uiso   1.00
C245   C     0.62258   0.64891   0.06727   0.00000  Uiso   1.00
C246   C     0.63110   0.62611   0.00708   0.00000  Uiso   1.00
C247   C     0.67524   0.61814   0.32598   0.00000  Uiso   1.00
C248   C     0.71097   0.63288   0.03833   0.00000  Uiso   1.00
H249   H     0.65116   0.34794   0.15963   0.00000  Uiso   1.00
H250   H     0.58854   0.65669   0.07788   0.00000  Uiso   1.00
H251   H     0.60358   0.61540   0.30476   0.00000  Uiso   1.00
H252   H     0.68159   0.60180   0.27902   0.00000  Uiso   1.00
H253   H     0.74514   0.62812   0.02628   0.00000  Uiso   1.00
C254   C     0.79745   0.34490   0.23422   0.00000  Uiso   1.00
C255   C     0.78902   0.36712   0.29501   0.00000  Uiso   1.00
C256   C     0.82476   0.38186   0.00736   0.00000  Uiso   1.00
C257   C     0.86890   0.37389   0.32625   0.00000  Uiso   1.00
C258   C     0.87742   0.35109   0.26607   0.00000  Uiso   1.00
C259   C     0.84191   0.33707   0.22001   0.00000  Uiso   1.00
H260   H     0.75486   0.37188   0.30706   0.00000  Uiso   1.00
H261   H     0.81840   0.39820   0.05431   0.00000  Uiso   1.00
H262   H     0.89642   0.38460   0.02858   0.00000  Uiso   1.00
H263   H     0.91146   0.34331   0.25545   0.00000  Uiso   1.00
H264   H     0.84884   0.65206   0.17370   0.00000  Uiso   1.00
C265   C     0.24845   0.73356   0.15171   0.00000  Uiso   1.00
C266   C     0.25155   0.93310   0.18162   0.00000  Uiso   1.00
C267   C     0.02301   0.74776   0.19313   0.00000  Uiso   1.00
C268   C     0.47699   0.91890   0.14021   0.00000  Uiso   1.00
C269   C     0.24009   0.67876   0.14560   0.00000  Uiso   1.00
C270   C     0.25991   0.98790   0.18773   0.00000  Uiso   1.00
C271   C     0.16454   0.83363   0.16735   0.00000  Uiso   1.00
C272   C     0.33546   0.83304   0.16598   0.00000  Uiso   1.00
C273   C     0.40655   0.87478   0.15033   0.00000  Uiso   1.00
C274   C     0.09345   0.79189   0.18300   0.00000  Uiso   1.00
C275   C     0.38351   0.83242   0.16440   0.00000  Uiso   1.00
C276   C     0.11649   0.83425   0.16893   0.00000  Uiso   1.00
C277   C     0.40629   0.78991   0.17806   0.00000  Uiso   1.00
C278   C     0.09371   0.87676   0.15528   0.00000  Uiso   1.00
C279   C     0.45290   0.78964   0.17837   0.00000  Uiso   1.00
C280   C     0.04710   0.87703   0.15496   0.00000  Uiso   1.00
C281   C     0.47653   0.83302   0.16590   0.00000  Uiso   1.00
C282   C     0.02347   0.83364   0.16744   0.00000  Uiso   1.00
C283   C     0.45322   0.87578   0.15184   0.00000  Uiso   1.00
C284   C     0.04678   0.79089   0.18149   0.00000  Uiso   1.00
C285   C     0.47630   0.74705   0.19124   0.00000  Uiso   1.00
C286   C     0.02370   0.91961   0.14209   0.00000  Uiso   1.00
Cu287  Cu    0.25500   0.83913   0.22813   0.00000  Uiso   1.00
Cu288  Cu    0.24499   0.82754   0.10521   0.00000  Uiso   1.00
H289   H     0.38817   0.90718   0.13945   0.00000  Uiso   1.00
H290   H     0.11183   0.75948   0.19389   0.00000  Uiso   1.00
H291   H     0.38760   0.75721   0.18806   0.00000  Uiso   1.00
H292   H     0.11240   0.90945   0.14527   0.00000  Uiso   1.00
H293   H     0.45857   0.71318   0.19968   0.00000  Uiso   1.00
H294   H     0.04142   0.95348   0.13365   0.00000  Uiso   1.00
H295   H     0.04052   0.71457   0.20346   0.00000  Uiso   1.00
H296   H     0.45948   0.95209   0.12988   0.00000  Uiso   1.00
H297   H     0.21489   0.79330   0.31612   0.00000  Uiso   1.00
H298   H     0.28511   0.87337   0.01721   0.00000  Uiso   1.00
N299   N     0.23744   0.81881   0.01284   0.00000  Uiso   1.00
N300   N     0.26255   0.84786   0.32049   0.00000  Uiso   1.00
O301   O     0.25325   0.76204   0.20659   0.00000  Uiso   1.00
O302   O     0.24674   0.90462   0.12674   0.00000  Uiso   1.00
O303   O     0.24480   0.75226   0.10279   0.00000  Uiso   1.00
O304   O     0.25520   0.91441   0.23055   0.00000  Uiso   1.00
O305   O     0.18935   0.83821   0.21857   0.00000  Uiso   1.00
O306   O     0.31064   0.82845   0.11476   0.00000  Uiso   1.00
O307   O     0.18090   0.82843   0.11477   0.00000  Uiso   1.00
O308   O     0.31910   0.83824   0.21857   0.00000  Uiso   1.00
C309   C     0.20255   0.98844   0.09912   0.00000  Uiso   1.00
C310   C     0.15809   0.99627   0.11332   0.00000  Uiso   1.00
C311   C     0.12258   0.98224   0.06727   0.00000  Uiso   1.00
C312   C     0.13110   0.95945   0.00708   0.00000  Uiso   1.00
C313   C     0.17524   0.95148   0.32598   0.00000  Uiso   1.00
C314   C     0.21097   0.96622   0.03833   0.00000  Uiso   1.00
H315   H     0.15116   0.68127   0.15963   0.00000  Uiso   1.00
H316   H     0.08854   0.99002   0.07788   0.00000  Uiso   1.00
H317   H     0.10358   0.94874   0.30476   0.00000  Uiso   1.00
H318   H     0.18159   0.93513   0.27902   0.00000  Uiso   1.00
H319   H     0.24514   0.96146   0.02628   0.00000  Uiso   1.00
C320   C     0.29745   0.67823   0.23422   0.00000  Uiso   1.00
C321   C     0.28902   0.70045   0.29501   0.00000  Uiso   1.00
C322   C     0.32476   0.71519   0.00736   0.00000  Uiso   1.00
C323   C     0.36890   0.70722   0.32625   0.00000  Uiso   1.00
C324   C     0.37742   0.68442   0.26607   0.00000  Uiso   1.00
C325   C     0.34191   0.67040   0.22001   0.00000  Uiso   1.00
H326   H     0.25486   0.70521   0.30706   0.00000  Uiso   1.00
H327   H     0.31840   0.73153   0.05431   0.00000  Uiso   1.00
H328   H     0.39642   0.71793   0.02858   0.00000  Uiso   1.00
H329   H     0.41146   0.67664   0.25545   0.00000  Uiso   1.00
H330   H     0.34884   0.98539   0.17370   0.00000  Uiso   1.00
C331   C     0.74845   0.73356   0.15171   0.00000  Uiso   1.00
C332   C     0.75155   0.93310   0.18162   0.00000  Uiso   1.00
C333   C     0.52301   0.74776   0.19313   0.00000  Uiso   1.00
C334   C     0.97699   0.91890   0.14021   0.00000  Uiso   1.00
C335   C     0.74009   0.67876   0.14560   0.00000  Uiso   1.00
C336   C     0.75991   0.98790   0.18773   0.00000  Uiso   1.00
C337   C     0.66454   0.83363   0.16735   0.00000  Uiso   1.00
C338   C     0.83546   0.83304   0.16598   0.00000  Uiso   1.00
C339   C     0.90655   0.87478   0.15033   0.00000  Uiso   1.00
C340   C     0.59345   0.79189   0.18300   0.00000  Uiso   1.00
C341   C     0.88351   0.83242   0.16440   0.00000  Uiso   1.00
C342   C     0.61649   0.83425   0.16893   0.00000  Uiso   1.00
C343   C     0.90629   0.78991   0.17806   0.00000  Uiso   1.00
C344   C     0.59371   0.87676   0.15528   0.00000  Uiso   1.00
C345   C     0.95290   0.78964   0.17837   0.00000  Uiso   1.00
C346   C     0.54710   0.87703   0.15496   0.00000  Uiso   1.00
C347   C     0.97653   0.83302   0.16590   0.00000  Uiso   1.00
C348   C     0.52347   0.83364   0.16744   0.00000  Uiso   1.00
C349   C     0.95322   0.87578   0.15184   0.00000  Uiso   1.00
C350   C     0.54678   0.79089   0.18149   0.00000  Uiso   1.00
C351   C     0.97630   0.74705   0.19124   0.00000  Uiso   1.00
C352   C     0.52370   0.91961   0.14209   0.00000  Uiso   1.00
Cu353  Cu    0.75500   0.83913   0.22813   0.00000  Uiso   1.00
Cu354  Cu    0.74499   0.82754   0.10521   0.00000  Uiso   1.00
H355   H     0.88817   0.90718   0.13945   0.00000  Uiso   1.00
H356   H     0.61183   0.75948   0.19389   0.00000  Uiso   1.00
H357   H     0.88760   0.75721   0.18806   0.00000  Uiso   1.00
H358   H     0.61240   0.90945   0.14527   0.00000  Uiso   1.00
H359   H     0.95857   0.71318   0.19968   0.00000  Uiso   1.00
H360   H     0.54142   0.95348   0.13365   0.00000  Uiso   1.00
H361   H     0.54052   0.71457   0.20346   0.00000  Uiso   1.00
H362   H     0.95948   0.95209   0.12988   0.00000  Uiso   1.00
H363   H     0.71489   0.79330   0.31612   0.00000  Uiso   1.00
H364   H     0.78511   0.87337   0.01721   0.00000  Uiso   1.00
N365   N     0.73744   0.81881   0.01284   0.00000  Uiso   1.00
N366   N     0.76255   0.84786   0.32049   0.00000  Uiso   1.00
O367   O     0.75325   0.76204   0.20659   0.00000  Uiso   1.00
O368   O     0.74674   0.90462   0.12674   0.00000  Uiso   1.00
O369   O     0.74480   0.75226   0.10279   0.00000  Uiso   1.00
O370   O     0.75520   0.91441   0.23055   0.00000  Uiso   1.00
O371   O     0.68935   0.83821   0.21857   0.00000  Uiso   1.00
O372   O     0.81064   0.82845   0.11476   0.00000  Uiso   1.00
O373   O     0.68090   0.82843   0.11477   0.00000  Uiso   1.00
O374   O     0.81910   0.83824   0.21857   0.00000  Uiso   1.00
C375   C     0.70255   0.98844   0.09912   0.00000  Uiso   1.00
C376   C     0.65809   0.99627   0.11332   0.00000  Uiso   1.00
C377   C     0.62258   0.98224   0.06727   0.00000  Uiso   1.00
C378   C     0.63110   0.95945   0.00708   0.00000  Uiso   1.00
C379   C     0.67524   0.95148   0.32598   0.00000  Uiso   1.00
C380   C     0.71097   0.96622   0.03833   0.00000  Uiso   1.00
H381   H     0.65116   0.68127   0.15963   0.00000  Uiso   1.00
H382   H     0.58854   0.99002   0.07788   0.00000  Uiso   1.00
H383   H     0.60358   0.94874   0.30476   0.00000  Uiso   1.00
H384   H     0.68159   0.93513   0.27902   0.00000  Uiso   1.00
H385   H     0.74514   0.96146   0.02628   0.00000  Uiso   1.00
C386   C     0.79745   0.67823   0.23422   0.00000  Uiso   1.00
C387   C     0.78902   0.70045   0.29501   0.00000  Uiso   1.00
C388   C     0.82476   0.71519   0.00736   0.00000  Uiso   1.00
C389   C     0.86890   0.70722   0.32625   0.00000  Uiso   1.00
C390   C     0.87742   0.68442   0.26607   0.00000  Uiso   1.00
C391   C     0.84191   0.67040   0.22001   0.00000  Uiso   1.00
H392   H     0.75486   0.70521   0.30706   0.00000  Uiso   1.00
H393   H     0.81840   0.73153   0.05431   0.00000  Uiso   1.00
H394   H     0.89642   0.71793   0.02858   0.00000  Uiso   1.00
H395   H     0.91146   0.67664   0.25545   0.00000  Uiso   1.00
H396   H     0.84884   0.98539   0.17370   0.00000  Uiso   1.00
C397   C     0.24845   0.06690   0.48505   0.00000  Uiso   1.00
C398   C     0.25155   0.26644   0.51495   0.00000  Uiso   1.00
C399   C     0.02301   0.08110   0.52646   0.00000  Uiso   1.00
C400   C     0.47699   0.25224   0.47354   0.00000  Uiso   1.00
C401   C     0.24009   0.01210   0.47893   0.00000  Uiso   1.00
C402   C     0.25991   0.32124   0.52107   0.00000  Uiso   1.00
C403   C     0.16454   0.16696   0.50069   0.00000  Uiso   1.00
C404   C     0.33546   0.16637   0.49931   0.00000  Uiso   1.00
C405   C     0.40655   0.20811   0.48366   0.00000  Uiso   1.00
C406   C     0.09345   0.12522   0.51634   0.00000  Uiso   1.00
C407   C     0.38351   0.16575   0.49773   0.00000  Uiso   1.00
C408   C     0.11649   0.16758   0.50227   0.00000  Uiso   1.00
C409   C     0.40629   0.12324   0.51139   0.00000  Uiso   1.00
C410   C     0.09371   0.21009   0.48861   0.00000  Uiso   1.00
C411   C     0.45290   0.12297   0.51170   0.00000  Uiso   1.00
C412   C     0.04710   0.21036   0.48830   0.00000  Uiso   1.00
C413   C     0.47653   0.16636   0.49923   0.00000  Uiso   1.00
C414   C     0.02347   0.16698   0.50077   0.00000  Uiso   1.00
C415   C     0.45322   0.20911   0.48517   0.00000  Uiso   1.00
C416   C     0.04678   0.12422   0.51483   0.00000  Uiso   1.00
C417   C     0.47630   0.08039   0.52458   0.00000  Uiso   1.00
C418   C     0.02370   0.25295   0.47542   0.00000  Uiso   1.00
Cu419  Cu    0.25500   0.17246   0.56146   0.00000  Uiso   1.00
Cu420  Cu    0.24499   0.16087   0.43854   0.00000  Uiso   1.00
H421   H     0.38817   0.24052   0.47278   0.00000  Uiso   1.00
H422   H     0.11183   0.09282   0.52722   0.00000  Uiso   1.00
H423   H     0.38760   0.09055   0.52139   0.00000  Uiso   1.00
H424   H     0.11240   0.24279   0.47861   0.00000  Uiso   1.00
H425   H     0.45857   0.04652   0.53301   0.00000  Uiso   1.00
H426   H     0.04142   0.28682   0.46699   0.00000  Uiso   1.00
H427   H     0.04052   0.04791   0.53679   0.00000  Uiso   1.00
H428   H     0.45948   0.28543   0.46321   0.00000  Uiso   1.00
H429   H     0.21489   0.12663   0.64946   0.00000  Uiso   1.00
H430   H     0.28511   0.20670   0.35054   0.00000  Uiso   1.00
N431   N     0.23744   0.15214   0.34617   0.00000  Uiso   1.00
N432   N     0.26255   0.18119   0.65383   0.00000  Uiso   1.00
O433   O     0.25325   0.09538   0.53992   0.00000  Uiso   1.00
O434   O     0.24674   0.23796   0.46008   0.00000  Uiso   1.00
O435   O     0.24480   0.08559   0.43612   0.00000  Uiso   1.00
O436   O     0.25520   0.24774   0.56388   0.00000  Uiso   1.00
O437   O     0.18935   0.17155   0.55191   0.00000  Uiso   1.00
O438   O     0.31064   0.16179   0.44809   0.00000  Uiso   1.00
O439   O     0.18090   0.16176   0.44810   0.00000  Uiso   1.00
O440   O     0.31910   0.17157   0.55190   0.00000  Uiso   1.00
C441   C     0.20255   0.32177   0.43245   0.00000  Uiso   1.00
C442   C     0.15809   0.32960   0.44665   0.00000  Uiso   1.00
C443   C     0.12258   0.31558   0.40060   0.00000  Uiso   1.00
C444   C     0.13110   0.29278   0.34042   0.00000  Uiso   1.00
C445   C     0.17524   0.28481   0.65931   0.00000  Uiso   1.00
C446   C     0.21097   0.29955   0.37166   0.00000  Uiso   1.00
H447   H     0.15116   0.01461   0.49297   0.00000  Uiso   1.00
H448   H     0.08854   0.32336   0.41121   0.00000  Uiso   1.00
H449   H     0.10358   0.28207   0.63809   0.00000  Uiso   1.00
H450   H     0.18159   0.26847   0.61235   0.00000  Uiso   1.00
H451   H     0.24514   0.29479   0.35961   0.00000  Uiso   1.00
C452   C     0.29745   0.01156   0.56755   0.00000  Uiso   1.00
C453   C     0.28902   0.03378   0.62834   0.00000  Uiso   1.00
C454   C     0.32476   0.04852   0.34069   0.00000  Uiso   1.00
C455   C     0.36890   0.04055   0.65958   0.00000  Uiso   1.00
C456   C     0.37742   0.01776   0.59940   0.00000  Uiso   1.00
C457   C     0.34191   0.00373   0.55335   0.00000  Uiso   1.00
H458   H     0.25486   0.03854   0.64039   0.00000  Uiso   1.00
H459   H     0.31840   0.06487   0.38765   0.00000  Uiso   1.00
H460   H     0.39642   0.05126   0.36191   0.00000  Uiso   1.00
H461   H     0.41146   0.00998   0.58879   0.00000  Uiso   1.00
H462   H     0.34884   0.31873   0.50703   0.00000  Uiso   1.00
C463   C     0.74845   0.06690   0.48505   0.00000  Uiso   1.00
C464   C     0.75155   0.26644   0.51495   0.00000  Uiso   1.00
C465   C     0.52301   0.08110   0.52646   0.00000  Uiso   1.00
C466   C     0.97699   0.25224   0.47354   0.00000  Uiso   1.00
C467   C     0.74009   0.01210   0.47893   0.00000  Uiso   1.00
C468   C     0.75991   0.32124   0.52107   0.00000  Uiso   1.00
C469   C     0.66454   0.16696   0.50069   0.00000  Uiso   1.00
C470   C     0.83546   0.16637   0.49931   0.00000  Uiso   1.00
C471   C     0.90655   0.20811   0.48366   0.00000  Uiso   1.00
C472   C     0.59345   0.12522   0.51634   0.00000  Uiso   1.00
C473   C     0.88351   0.16575   0.49773   0.00000  Uiso   1.00
C474   C     0.61649   0.16758   0.50227   0.00000  Uiso   1.00
C475   C     0.90629   0.12324   0.51139   0.00000  Uiso   1.00
C476   C     0.59371   0.21009   0.48861   0.00000  Uiso   1.00
C477   C     0.95290   0.12297   0.51170   0.00000  Uiso   1.00
C478   C     0.54710   0.21036   0.48830   0.00000  Uiso   1.00
C479   C     0.97653   0.16636   0.49923   0.00000  Uiso   1.00
C480   C     0.52347   0.16698   0.50077   0.00000  Uiso   1.00
C481   C     0.95322   0.20911   0.48517   0.00000  Uiso   1.00
C482   C     0.54678   0.12422   0.51483   0.00000  Uiso   1.00
C483   C     0.97630   0.08039   0.52458   0.00000  Uiso   1.00
C484   C     0.52370   0.25295   0.47542   0.00000  Uiso   1.00
Cu485  Cu    0.75500   0.17246   0.56146   0.00000  Uiso   1.00
Cu486  Cu    0.74499   0.16087   0.43854   0.00000  Uiso   1.00
H487   H     0.88817   0.24052   0.47278   0.00000  Uiso   1.00
H488   H     0.61183   0.09282   0.52722   0.00000  Uiso   1.00
H489   H     0.88760   0.09055   0.52139   0.00000  Uiso   1.00
H490   H     0.61240   0.24279   0.47861   0.00000  Uiso   1.00
H491   H     0.95857   0.04652   0.53301   0.00000  Uiso   1.00
H492   H     0.54142   0.28682   0.46699   0.00000  Uiso   1.00
H493   H     0.54052   0.04791   0.53679   0.00000  Uiso   1.00
H494   H     0.95948   0.28543   0.46321   0.00000  Uiso   1.00
H495   H     0.71489   0.12663   0.64946   0.00000  Uiso   1.00
H496   H     0.78511   0.20670   0.35054   0.00000  Uiso   1.00
N497   N     0.73744   0.15214   0.34617   0.00000  Uiso   1.00
N498   N     0.76255   0.18119   0.65383   0.00000  Uiso   1.00
O499   O     0.75325   0.09538   0.53992   0.00000  Uiso   1.00
O500   O     0.74674   0.23796   0.46008   0.00000  Uiso   1.00
O501   O     0.74480   0.08559   0.43612   0.00000  Uiso   1.00
O502   O     0.75520   0.24774   0.56388   0.00000  Uiso   1.00
O503   O     0.68935   0.17155   0.55191   0.00000  Uiso   1.00
O504   O     0.81064   0.16179   0.44809   0.00000  Uiso   1.00
O505   O     0.68090   0.16176   0.44810   0.00000  Uiso   1.00
O506   O     0.81910   0.17157   0.55190   0.00000  Uiso   1.00
C507   C     0.70255   0.32177   0.43245   0.00000  Uiso   1.00
C508   C     0.65809   0.32960   0.44665   0.00000  Uiso   1.00
C509   C     0.62258   0.31558   0.40060   0.00000  Uiso   1.00
C510   C     0.63110   0.29278   0.34042   0.00000  Uiso   1.00
C511   C     0.67524   0.28481   0.65931   0.00000  Uiso   1.00
C512   C     0.71097   0.29955   0.37166   0.00000  Uiso   1.00
H513   H     0.65116   0.01461   0.49297   0.00000  Uiso   1.00
H514   H     0.58854   0.32336   0.41121   0.00000  Uiso   1.00
H515   H     0.60358   0.28207   0.63809   0.00000  Uiso   1.00
H516   H     0.68159   0.26847   0.61235   0.00000  Uiso   1.00
H517   H     0.74514   0.29479   0.35961   0.00000  Uiso   1.00
C518   C     0.79745   0.01156   0.56755   0.00000  Uiso   1.00
C519   C     0.78902   0.03378   0.62834   0.00000  Uiso   1.00
C520   C     0.82476   0.04852   0.34069   0.00000  Uiso   1.00
C521   C     0.86890   0.04055   0.65958   0.00000  Uiso   1.00
C522   C     0.87742   0.01776   0.59940   0.00000  Uiso   1.00
C523   C     0.84191   0.00373   0.55335   0.00000  Uiso   1.00
H524   H     0.75486   0.03854   0.64039   0.00000  Uiso   1.00
H525   H     0.81840   0.06487   0.38765   0.00000  Uiso   1.00
H526   H     0.89642   0.05126   0.36191   0.00000  Uiso   1.00
H527   H     0.91146   0.00998   0.58879   0.00000  Uiso   1.00
H528   H     0.84884   0.31873   0.50703   0.00000  Uiso   1.00
C529   C     0.24845   0.40023   0.48505   0.00000  Uiso   1.00
C530   C     0.25155   0.59977   0.51495   0.00000  Uiso   1.00
C531   C     0.02301   0.41443   0.52646   0.00000  Uiso   1.00
C532   C     0.47699   0.58557   0.47354   0.00000  Uiso   1.00
C533   C     0.24009   0.34543   0.47893   0.00000  Uiso   1.00
C534   C     0.25991   0.65457   0.52107   0.00000  Uiso   1.00
C535   C     0.16454   0.50030   0.50069   0.00000  Uiso   1.00
C536   C     0.33546   0.49970   0.49931   0.00000  Uiso   1.00
C537   C     0.40655   0.54144   0.48366   0.00000  Uiso   1.00
C538   C     0.09345   0.45856   0.51634   0.00000  Uiso   1.00
C539   C     0.38351   0.49909   0.49773   0.00000  Uiso   1.00
C540   C     0.11649   0.50091   0.50227   0.00000  Uiso   1.00
C541   C     0.40629   0.45657   0.51139   0.00000  Uiso   1.00
C542   C     0.09371   0.54343   0.48861   0.00000  Uiso   1.00
C543   C     0.45290   0.45630   0.51170   0.00000  Uiso   1.00
C544   C     0.04710   0.54370   0.48830   0.00000  Uiso   1.00
C545   C     0.47653   0.49969   0.49923   0.00000  Uiso   1.00
C546   C     0.02347   0.50031   0.50077   0.00000  Uiso   1.00
C547   C     0.45322   0.54245   0.48517   0.00000  Uiso   1.00
C548   C     0.04678   0.45755   0.51483   0.00000  Uiso   1.00
C549   C     0.47630   0.41372   0.52458   0.00000  Uiso   1.00
C550   C     0.02370   0.58628   0.47542   0.00000  Uiso   1.00
Cu551  Cu    0.25500   0.50579   0.56146   0.00000  Uiso   1.00
Cu552  Cu    0.24499   0.49421   0.43854   0.00000  Uiso   1.00
H553   H     0.38817   0.57385   0.47278   0.00000  Uiso   1.00
H554   H     0.11183   0.42615   0.52722   0.00000  Uiso   1.00
H555   H     0.38760   0.42388   0.52139   0.00000  Uiso   1.00
H556   H     0.11240   0.57612   0.47861   0.00000  Uiso   1.00
H557   H     0.45857   0.37985   0.53301   0.00000  Uiso   1.00
H558   H     0.04142   0.62015   0.46699   0.00000  Uiso   1.00
H559   H     0.04052   0.38124   0.53679   0.00000  Uiso   1.00
H560   H     0.45948   0.61876   0.46321   0.00000  Uiso   1.00
H561   H     0.21489   0.45996   0.64946   0.00000  Uiso   1.00
H562   H     0.28511   0.54003   0.35054   0.00000  Uiso   1.00
N563   N     0.23744   0.48547   0.34617   0.00000  Uiso   1.00
N564   N     0.26255   0.51453   0.65383   0.00000  Uiso   1.00
O565   O     0.25325   0.42871   0.53992   0.00000  Uiso   1.00
O566   O     0.24674   0.57129   0.46008   0.00000  Uiso   1.00
O567   O     0.24480   0.41892   0.43612   0.00000  Uiso   1.00
O568   O     0.25520   0.58108   0.56388   0.00000  Uiso   1.00
O569   O     0.18935   0.50488   0.55191   0.00000  Uiso   1.00
O570   O     0.31064   0.49512   0.44809   0.00000  Uiso   1.00
O571   O     0.18090   0.49510   0.44810   0.00000  Uiso   1.00
O572   O     0.31910   0.50490   0.55190   0.00000  Uiso   1.00
C573   C     0.20255   0.65510   0.43245   0.00000  Uiso   1.00
C574   C     0.15809   0.66293   0.44665   0.00000  Uiso   1.00
C575   C     0.12258   0.64891   0.40060   0.00000  Uiso   1.00
C576   C     0.13110   0.62611   0.34042   0.00000  Uiso   1.00
C577   C     0.17524   0.61814   0.65931   0.00000  Uiso   1.00
C578   C     0.21097   0.63288   0.37166   0.00000  Uiso   1.00
H579   H     0.15116   0.34794   0.49297   0.00000  Uiso   1.00
H580   H     0.08854   0.65669   0.41121   0.00000  Uiso   1.00
H581   H     0.10358   0.61540   0.63809   0.00000  Uiso   1.00
H582   H     0.18159   0.60180   0.61235   0.00000  Uiso   1.00
H583   H     0.24514   0.62812   0.35961   0.00000  Uiso   1.00
C584   C     0.29745   0.34490   0.56755   0.00000  Uiso   1.00
C585   C     0.28902   0.36712   0.62834   0.00000  Uiso   1.00
C586   C     0.32476   0.38186   0.34069   0.00000  Uiso   1.00
C587   C     0.36890   0.37389   0.65958   0.00000  Uiso   1.00
C588   C     0.37742   0.35109   0.59940   0.00000  Uiso   1.00
C589   C     0.34191   0.33707   0.55335   0.00000  Uiso   1.00
H590   H     0.25486   0.37188   0.64039   0.00000  Uiso   1.00
H591   H     0.31840   0.39820   0.38765   0.00000  Uiso   1.00
H592   H     0.39642   0.38460   0.36191   0.00000  Uiso   1.00
H593   H     0.41146   0.34331   0.58879   0.00000  Uiso   1.00
H594   H     0.34884   0.65206   0.50703   0.00000  Uiso   1.00
C595   C     0.74845   0.40023   0.48505   0.00000  Uiso   1.00
C596   C     0.75155   0.59977   0.51495   0.00000  Uiso   1.00
C597   C     0.52301   0.41443   0.52646   0.00000  Uiso   1.00
C598   C     0.97699   0.58557   0.47354   0.00000  Uiso   1.00
C599   C     0.74009   0.34543   0.47893   0.00000  Uiso   1.00
C600   C     0.75991   0.65457   0.52107   0.00000  Uiso   1.00
C601   C     0.66454   0.50030   0.50069   0.00000  Uiso   1.00
C602   C     0.83546   0.49970   0.49931   0.00000  Uiso   1.00
C603   C     0.90655   0.54144   0.48366   0.00000  Uiso   1.00
C604   C     0.59345   0.45856   0.51634   0.00000  Uiso   1.00
C605   C     0.88351   0.49909   0.49773   0.00000  Uiso   1.00
C606   C     0.61649   0.50091   0.50227   0.00000  Uiso   1.00
C607   C     0.90629   0.45657   0.51139   0.00000  Uiso   1.00
C608   C     0.59371   0.54343   0.48861   0.00000  Uiso   1.00
C609   C     0.95290   0.45630   0.51170   0.00000  Uiso   1.00
C610   C     0.54710   0.54370   0.48830   0.00000  Uiso   1.00
C611   C     0.97653   0.49969   0.49923   0.00000  Uiso   1.00
C612   C     0.52347   0.50031   0.50077   0.00000  Uiso   1.00
C613   C     0.95322   0.54245   0.48517   0.00000  Uiso   1.00
C614   C     0.54678   0.45755   0.51483   0.00000  Uiso   1.00
C615   C     0.97630   0.41372   0.52458   0.00000  Uiso   1.00
C616   C     0.52370   0.58628   0.47542   0.00000  Uiso   1.00
Cu617  Cu    0.75500   0.50579   0.56146   0.00000  Uiso   1.00
Cu618  Cu    0.74499   0.49421   0.43854   0.00000  Uiso   1.00
H619   H     0.88817   0.57385   0.47278   0.00000  Uiso   1.00
H620   H     0.61183   0.42615   0.52722   0.00000  Uiso   1.00
H621   H     0.88760   0.42388   0.52139   0.00000  Uiso   1.00
H622   H     0.61240   0.57612   0.47861   0.00000  Uiso   1.00
H623   H     0.95857   0.37985   0.53301   0.00000  Uiso   1.00
H624   H     0.54142   0.62015   0.46699   0.00000  Uiso   1.00
H625   H     0.54052   0.38124   0.53679   0.00000  Uiso   1.00
H626   H     0.95948   0.61876   0.46321   0.00000  Uiso   1.00
H627   H     0.71489   0.45996   0.64946   0.00000  Uiso   1.00
H628   H     0.78511   0.54003   0.35054   0.00000  Uiso   1.00
N629   N     0.73744   0.48547   0.34617   0.00000  Uiso   1.00
N630   N     0.76255   0.51453   0.65383   0.00000  Uiso   1.00
O631   O     0.75325   0.42871   0.53992   0.00000  Uiso   1.00
O632   O     0.74674   0.57129   0.46008   0.00000  Uiso   1.00
O633   O     0.74480   0.41892   0.43612   0.00000  Uiso   1.00
O634   O     0.75520   0.58108   0.56388   0.00000  Uiso   1.00
O635   O     0.68935   0.50488   0.55191   0.00000  Uiso   1.00
O636   O     0.81064   0.49512   0.44809   0.00000  Uiso   1.00
O637   O     0.68090   0.49510   0.44810   0.00000  Uiso   1.00
O638   O     0.81910   0.50490   0.55190   0.00000  Uiso   1.00
C639   C     0.70255   0.65510   0.43245   0.00000  Uiso   1.00
C640   C     0.65809   0.66293   0.44665   0.00000  Uiso   1.00
C641   C     0.62258   0.64891   0.40060   0.00000  Uiso   1.00
C642   C     0.63110   0.62611   0.34042   0.00000  Uiso   1.00
C643   C     0.67524   0.61814   0.65931   0.00000  Uiso   1.00
C644   C     0.71097   0.63288   0.37166   0.00000  Uiso   1.00
H645   H     0.65116   0.34794   0.49297   0.00000  Uiso   1.00
H646   H     0.58854   0.65669   0.41121   0.00000  Uiso   1.00
H647   H     0.60358   0.61540   0.63809   0.00000  Uiso   1.00
H648   H     0.68159   0.60180   0.61235   0.00000  Uiso   1.00
H649   H     0.74514   0.62812   0.35961   0.00000  Uiso   1.00
C650   C     0.79745   0.34490   0.56755   0.00000  Uiso   1.00
C651   C     0.78902   0.36712   0.62834   0.00000  Uiso   1.00
C652   C     0.82476   0.38186   0.34069   0.00000  Uiso   1.00
C653   C     0.86890   0.37389   0.65958   0.00000  Uiso   1.00
C654   C     0.87742   0.35109   0.59940   0.00000  Uiso   1.00
C655   C     0.84191   0.33707   0.55335   0.00000  Uiso   1.00
H656   H     0.75486   0.37188   0.64039   0.00000  Uiso   1.00
H657   H     0.81840   0.39820   0.38765   0.00000  Uiso   1.00
H658   H     0.89642   0.38460   0.36191   0.00000  Uiso   1.00
H659   H     0.91146   0.34331   0.58879   0.00000  Uiso   1.00
H660   H     0.84884   0.65206   0.50703   0.00000  Uiso   1.00
C661   C     0.24845   0.73356   0.48505   0.00000  Uiso   1.00
C662   C     0.25155   0.93310   0.51495   0.00000  Uiso   1.00
C663   C     0.02301   0.74776   0.52646   0.00000  Uiso   1.00
C664   C     0.47699   0.91890   0.47354   0.00000  Uiso   1.00
C665   C     0.24009   0.67876   0.47893   0.00000  Uiso   1.00
C666   C     0.25991   0.98790   0.52107   0.00000  Uiso   1.00
C667   C     0.16454   0.83363   0.50069   0.00000  Uiso   1.00
C668   C     0.33546   0.83304   0.49931   0.00000  Uiso   1.00
C669   C     0.40655   0.87478   0.48366   0.00000  Uiso   1.00
C670   C     0.09345   0.79189   0.51634   0.00000  Uiso   1.00
C671   C     0.38351   0.83242   0.49773   0.00000  Uiso   1.00
C672   C     0.11649   0.83425   0.50227   0.00000  Uiso   1.00
C673   C     0.40629   0.78991   0.51139   0.00000  Uiso   1.00
C674   C     0.09371   0.87676   0.48861   0.00000  Uiso   1.00
C675   C     0.45290   0.78964   0.51170   0.00000  Uiso   1.00
C676   C     0.04710   0.87703   0.48830   0.00000  Uiso   1.00
C677   C     0.47653   0.83302   0.49923   0.00000  Uiso   1.00
C678   C     0.02347   0.83364   0.50077   0.00000  Uiso   1.00
C679   C     0.45322   0.87578   0.48517   0.00000  Uiso   1.00
C680   C     0.04678   0.79089   0.51483   0.00000  Uiso   1.00
C681   C     0.47630   0.74705   0.52458   0.00000  Uiso   1.00
C682   C     0.02370   0.91961   0.47542   0.00000  Uiso   1.00
Cu683  Cu    0.25500   0.83913   0.56146   0.00000  Uiso   1.00
Cu684  Cu    0.24499   0.82754   0.43854   0.00000  Uiso   1.00
H685   H     0.38817   0.90718   0.47278   0.00000  Uiso   1.00
H686   H     0.11183   0.75948   0.52722   0.00000  Uiso   1.00
H687   H     0.38760   0.75721   0.52139   0.00000  Uiso   1.00
H688   H     0.11240   0.90945   0.47861   0.00000  Uiso   1.00
H689   H     0.45857   0.71318   0.53301   0.00000  Uiso   1.00
H690   H     0.04142   0.95348   0.46699   0.00000  Uiso   1.00
H691   H     0.04052   0.71457   0.53679   0.00000  Uiso   1.00
H692   H     0.45948   0.95209   0.46321   0.00000  Uiso   1.00
H693   H     0.21489   0.79330   0.64946   0.00000  Uiso   1.00
H694   H     0.28511   0.87337   0.35054   0.00000  Uiso   1.00
N695   N     0.23744   0.81881   0.34617   0.00000  Uiso   1.00
N696   N     0.26255   0.84786   0.65383   0.00000  Uiso   1.00
O697   O     0.25325   0.76204   0.53992   0.00000  Uiso   1.00
O698   O     0.24674   0.90462   0.46008   0.00000  Uiso   1.00
O699   O     0.24480   0.75226   0.43612   0.00000  Uiso   1.00
O700   O     0.25520   0.91441   0.56388   0.00000  Uiso   1.00
O701   O     0.18935   0.83821   0.55191   0.00000  Uiso   1.00
O702   O     0.31064   0.82845   0.44809   0.00000  Uiso   1.00
O703   O     0.18090   0.82843   0.44810   0.00000  Uiso   1.00
O704   O     0.31910   0.83824   0.55190   0.00000  Uiso   1.00
C705   C     0.20255   0.98844   0.43245   0.00000  Uiso   1.00
C706   C     0.15809   0.99627   0.44665   0.00000  Uiso   1.00
C707   C     0.12258   0.98224   0.40060   0.00000  Uiso   1.00
C708   C     0.13110   0.95945   0.34042   0.00000  Uiso   1.00
C709   C     0.17524   0.95148   0.65931   0.00000  Uiso   1.00
C710   C     0.21097   0.96622   0.37166   0.00000  Uiso   1.00
H711   H     0.15116   0.68127   0.49297   0.00000  Uiso   1.00
H712   H     0.08854   0.99002   0.41121   0.00000  Uiso   1.00
H713   H     0.10358   0.94874   0.63809   0.00000  Uiso   1.00
H714   H     0.18159   0.93513   0.61235   0.00000  Uiso   1.00
H715   H     0.24514   0.96146   0.35961   0.00000  Uiso   1.00
C716   C     0.29745   0.67823   0.56755   0.00000  Uiso   1.00
C717   C     0.28902   0.70045   0.62834   0.00000  Uiso   1.00
C718   C     0.32476   0.71519   0.34069   0.00000  Uiso   1.00
C719   C     0.36890   0.70722   0.65958   0.00000  Uiso   1.00
C720   C     0.37742   0.68442   0.59940   0.00000  Uiso   1.00
C721   C     0.34191   0.67040   0.55335   0.00000  Uiso   1.00
H722   H     0.25486   0.70521   0.64039   0.00000  Uiso   1.00
H723   H     0.31840   0.73153   0.38765   0.00000  Uiso   1.00
H724   H     0.39642   0.71793   0.36191   0.00000  Uiso   1.00
H725   H     0.41146   0.67664   0.58879   0.00000  Uiso   1.00
H726   H     0.34884   0.98539   0.50703   0.00000  Uiso   1.00
C727   C     0.74845   0.73356   0.48505   0.00000  Uiso   1.00
C728   C     0.75155   0.93310   0.51495   0.00000  Uiso   1.00
C729   C     0.52301   0.74776   0.52646   0.00000  Uiso   1.00
C730   C     0.97699   0.91890   0.47354   0.00000  Uiso   1.00
C731   C     0.74009   0.67876   0.47893   0.00000  Uiso   1.00
C732   C     0.75991   0.98790   0.52107   0.00000  Uiso   1.00
C733   C     0.66454   0.83363   0.50069   0.00000  Uiso   1.00
C734   C     0.83546   0.83304   0.49931   0.00000  Uiso   1.00
C735   C     0.90655   0.87478   0.48366   0.00000  Uiso   1.00
C736   C     0.59345   0.79189   0.51634   0.00000  Uiso   1.00
C737   C     0.88351   0.83242   0.49773   0.00000  Uiso   1.00
C738   C     0.61649   0.83425   0.50227   0.00000  Uiso   1.00
C739   C     0.90629   0.78991   0.51139   0.00000  Uiso   1.00
C740   C     0.59371   0.87676   0.48861   0.00000  Uiso   1.00
C741   C     0.95290   0.78964   0.51170   0.00000  Uiso   1.00
C742   C     0.54710   0.87703   0.48830   0.00000  Uiso   1.00
C743   C     0.97653   0.83302   0.49923   0.00000  Uiso   1.00
C744   C     0.52347   0.83364   0.50077   0.00000  Uiso   1.00
C745   C     0.95322   0.87578   0.48517   0.00000  Uiso   1.00
C746   C     0.54678   0.79089   0.51483   0.00000  Uiso   1.00
C747   C     0.97630   0.74705   0.52458   0.00000  Uiso   1.00
C748   C     0.52370   0.91961   0.47542   0.00000  Uiso   1.00
Cu749  Cu    0.75500   0.83913   0.56146   0.00000  Uiso   1.00
Cu750  Cu    0.74499   0.82754   0.43854   0.00000  Uiso   1.00
H751   H     0.88817   0.90718   0.47278   0.00000  Uiso   1.00
H752   H     0.61183   0.75948   0.52722   0.00000  Uiso   1.00
H753   H     0.88760   0.75721   0.52139   0.00000  Uiso   1.00
H754   H     0.61240   0.90945   0.47861   0.00000  Uiso   1.00
H755   H     0.95857   0.71318   0.53301   0.00000  Uiso   1.00
H756   H     0.54142   0.95348   0.46699   0.00000  Uiso   1.00
H757   H     0.54052   0.71457   0.53679   0.00000  Uiso   1.00
H758   H     0.95948   0.95209   0.46321   0.00000  Uiso   1.00
H759   H     0.71489   0.79330   0.64946   0.00000  Uiso   1.00
H760   H     0.78511   0.87337   0.35054   0.00000  Uiso   1.00
N761   N     0.73744   0.81881   0.34617   0.00000  Uiso   1.00
N762   N     0.76255   0.84786   0.65383   0.00000  Uiso   1.00
O763   O     0.75325   0.76204   0.53992   0.00000  Uiso   1.00
O764   O     0.74674   0.90462   0.46008   0.00000  Uiso   1.00
O765   O     0.74480   0.75226   0.43612   0.00000  Uiso   1.00
O766   O     0.75520   0.91441   0.56388   0.00000  Uiso   1.00
O767   O     0.68935   0.83821   0.55191   0.00000  Uiso   1.00
O768   O     0.81064   0.82845   0.44809   0.00000  Uiso   1.00
O769   O     0.68090   0.82843   0.44810   0.00000  Uiso   1.00
O770   O     0.81910   0.83824   0.55190   0.00000  Uiso   1.00
C771   C     0.70255   0.98844   0.43245   0.00000  Uiso   1.00
C772   C     0.65809   0.99627   0.44665   0.00000  Uiso   1.00
C773   C     0.62258   0.98224   0.40060   0.00000  Uiso   1.00
C774   C     0.63110   0.95945   0.34042   0.00000  Uiso   1.00
C775   C     0.67524   0.95148   0.65931   0.00000  Uiso   1.00
C776   C     0.71097   0.96622   0.37166   0.00000  Uiso   1.00
H777   H     0.65116   0.68127   0.49297   0.00000  Uiso   1.00
H778   H     0.58854   0.99002   0.41121   0.00000  Uiso   1.00
H779   H     0.60358   0.94874   0.63809   0.00000  Uiso   1.00
H780   H     0.68159   0.93513   0.61235   0.00000  Uiso   1.00
H781   H     0.74514   0.96146   0.35961   0.00000  Uiso   1.00
C782   C     0.79745   0.67823   0.56755   0.00000  Uiso   1.00
C783   C     0.78902   0.70045   0.62834   0.00000  Uiso   1.00
C784   C     0.82476   0.71519   0.34069   0.00000  Uiso   1.00
C785   C     0.86890   0.70722   0.65958   0.00000  Uiso   1.00
C786   C     0.87742   0.68442   0.59940   0.00000  Uiso   1.00
C787   C     0.84191   0.67040   0.55335   0.00000  Uiso   1.00
H788   H     0.75486   0.70521   0.64039   0.00000  Uiso   1.00
H789   H     0.81840   0.73153   0.38765   0.00000  Uiso   1.00
H790   H     0.89642   0.71793   0.36191   0.00000  Uiso   1.00
H791   H     0.91146   0.67664   0.58879   0.00000  Uiso   1.00
H792   H     0.84884   0.98539   0.50703   0.00000  Uiso   1.00
C793   C     0.24845   0.06690   0.81838   0.00000  Uiso   1.00
C794   C     0.25155   0.26644   0.84829   0.00000  Uiso   1.00
C795   C     0.02301   0.08110   0.85979   0.00000  Uiso   1.00
C796   C     0.47699   0.25224   0.80687   0.00000  Uiso   1.00
C797   C     0.24009   0.01210   0.81227   0.00000  Uiso   1.00
C798   C     0.25991   0.32124   0.85440   0.00000  Uiso   1.00
C799   C     0.16454   0.16696   0.83402   0.00000  Uiso   1.00
C800   C     0.33546   0.16637   0.83265   0.00000  Uiso   1.00
C801   C     0.40655   0.20811   0.81700   0.00000  Uiso   1.00
C802   C     0.09345   0.12522   0.84967   0.00000  Uiso   1.00
C803   C     0.38351   0.16575   0.83107   0.00000  Uiso   1.00
C804   C     0.11649   0.16758   0.83560   0.00000  Uiso   1.00
C805   C     0.40629   0.12324   0.84472   0.00000  Uiso   1.00
C806   C     0.09371   0.21009   0.82194   0.00000  Uiso   1.00
C807   C     0.45290   0.12297   0.84504   0.00000  Uiso   1.00
C808   C     0.04710   0.21036   0.82163   0.00000  Uiso   1.00
C809   C     0.47653   0.16636   0.83256   0.00000  Uiso   1.00
C810   C     0.02347   0.16698   0.83410   0.00000  Uiso   1.00
C811   C     0.45322   0.20911   0.81851   0.00000  Uiso   1.00
C812   C     0.04678   0.12422   0.84816   0.00000  Uiso   1.00
C813   C     0.47630   0.08039   0.85791   0.00000  Uiso   1.00
C814   C     0.02370   0.25295   0.80876   0.00000  Uiso   1.00
Cu815  Cu    0.25500   0.17246   0.89479   0.00000  Uiso   1.00
Cu816  Cu    0.24499   0.16087   0.77187   0.00000  Uiso   1.00
H817   H     0.38817   0.24052   0.80611   0.00000  Uiso   1.00
H818   H     0.11183   0.09282   0.86055   0.00000  Uiso   1.00
H819   H     0.38760   0.09055   0.85473   0.00000  Uiso   1.00
H820   H     0.11240   0.24279   0.81194   0.00000  Uiso   1.00
H821   H     0.45857   0.04652   0.86635   0.00000  Uiso   1.00
H822   H     0.04142   0.28682   0.80032   0.00000  Uiso   1.00
H823   H     0.04052   0.04791   0.87012   0.00000  Uiso   1.00
H824   H     0.45948   0.28543   0.79654   0.00000  Uiso   1.00
H825   H     0.21489   0.12663   0.98279   0.00000  Uiso   1.00
H826   H     0.28511   0.20670   0.68388   0.00000  Uiso   1.00
N827   N     0.23744   0.15214   0.67951   0.00000  Uiso   1.00
N828   N     0.26255   0.18119   0.98716   0.00000  Uiso   1.00
O829   O     0.25325   0.09538   0.87326   0.00000  Uiso   1.00
O830   O     0.24674   0.23796   0.79341   0.00000  Uiso   1.00
O831   O     0.24480   0.08559   0.76945   0.00000  Uiso   1.00
O832   O     0.25520   0.24774   0.89721   0.00000  Uiso   1.00
O833   O     0.18935   0.17155   0.88524   0.00000  Uiso   1.00
O834   O     0.31064   0.16179   0.78143   0.00000  Uiso   1.00
O835   O     0.18090   0.16176   0.78143   0.00000  Uiso   1.00
O836   O     0.31910   0.17157   0.88523   0.00000  Uiso   1.00
C837   C     0.20255   0.32177   0.76578   0.00000  Uiso   1.00
C838   C     0.15809   0.32960   0.77999   0.00000  Uiso   1.00
C839   C     0.12258   0.31558   0.73393   0.00000  Uiso   1.00
C840   C     0.13110   0.29278   0.67375   0.00000  Uiso   1.00
C841   C     0.17524   0.28481   0.99264   0.00000  Uiso   1.00
C842   C     0.21097   0.29955   0.70499   0.00000  Uiso   1.00
H843   H     0.15116   0.01461   0.82630   0.00000  Uiso   1.00
H844   H     0.08854   0.32336   0.74455   0.00000  Uiso   1.00
H845   H     0.10358   0.28207   0.97142   0.00000  Uiso   1.00
H846   H     0.18159   0.26847   0.94569   0.00000  Uiso   1.00
H847   H     0.24514   0.29479   0.69294   0.00000  Uiso   1.00
C848   C     0.29745   0.01156   0.90088   0.00000  Uiso   1.00
C849   C     0.28902   0.03378   0.96167   0.00000  Uiso   1.00
C850   C     0.32476   0.04852   0.67402   0.00000  Uiso   1.00
C851   C     0.36890   0.04055   0.99292   0.00000  Uiso   1.00
C852   C     0.37742   0.01776   0.93273   0.00000  Uiso   1.00
C853   C     0.34191   0.00373   0.88668   0.00000  Uiso   1.00
H854   H     0.25486   0.03854   0.97372   0.00000  Uiso   1.00
H855   H     0.31840   0.06487   0.72098   0.00000  Uiso   1.00
H856   H     0.39642   0.05126   0.69524   0.00000  Uiso   1.00
H857   H     0.41146   0.00998   0.92212   0.00000  Uiso   1.00
H858   H     0.34884   0.31873   0.84037   0.00000  Uiso   1.00
C859   C     0.74845   0.06690   0.81838   0.00000  Uiso   1.00
C860   C     0.75155   0.26644   0.84829   0.00000  Uiso   1.00
C861   C     0.52301   0.08110   0.85979   0.00000  Uiso   1.00
C862   C     0.97699   0.25224   0.80687   0.00000  Uiso   1.00
C863   C     0.74009   0.01210   0.81227   0.00000  Uiso   1.00
C864   C     0.75991   0.32124   0.85440   0.00000  Uiso   1.00
C865   C     0.66454   0.16696   0.83402   0.00000  Uiso   1.00
C866   C     0.83546   0.16637   0.83265   0.00000  Uiso   1.00
C867   C     0.90655   0.20811   0.81700   0.00000  Uiso   1.00
C868   C     0.59345   0.12522   0.84967   0.00000  Uiso   1.00
C869   C     0.88351   0.16575   0.83107   0.00000  Uiso   1.00
C870   C     0.61649   0.16758   0.83560   0.00000  Uiso   1.00
C871   C     0.90629   0.12324   0.84472   0.00000  Uiso   1.00
C872   C     0.59371   0.21009   0.82194   0.00000  Uiso   1.00
C873   C     0.95290   0.12297   0.84504   0.00000  Uiso   1.00
C874   C     0.54710   0.21036   0.82163   0.00000  Uiso   1.00
C875   C     0.97653   0.16636   0.83256   0.00000  Uiso   1.00
C876   C     0.52347   0.16698   0.83410   0.00000  Uiso   1.00
C877   C     0.95322   0.20911   0.81851   0.00000  Uiso   1.00
C878   C     0.54678   0.12422   0.84816   0.00000  Uiso   1.00
C879   C     0.97630   0.08039   0.85791   0.00000  Uiso   1.00
C880   C     0.52370   0.25295   0.80876   0.00000  Uiso   1.00
Cu881  Cu    0.75500   0.17246   0.89479   0.00000  Uiso   1.00
Cu882  Cu    0.74499   0.16087   0.77187   0.00000  Uiso   1.00
H883   H     0.88817   0.24052   0.80611   0.00000  Uiso   1.00
H884   H     0.61183   0.09282   0.86055   0.00000  Uiso   1.00
H885   H     0.88760   0.09055   0.85473   0.00000  Uiso   1.00
H886   H     0.61240   0.24279   0.81194   0.00000  Uiso   1.00
H887   H     0.95857   0.04652   0.86635   0.00000  Uiso   1.00
H888   H     0.54142   0.28682   0.80032   0.00000  Uiso   1.00
H889   H     0.54052   0.04791   0.87012   0.00000  Uiso   1.00
H890   H     0.95948   0.28543   0.79654   0.00000  Uiso   1.00
H891   H     0.71489   0.12663   0.98279   0.00000  Uiso   1.00
H892   H     0.78511   0.20670   0.68388   0.00000  Uiso   1.00
N893   N     0.73744   0.15214   0.67951   0.00000  Uiso   1.00
N894   N     0.76255   0.18119   0.98716   0.00000  Uiso   1.00
O895   O     0.75325   0.09538   0.87326   0.00000  Uiso   1.00
O896   O     0.74674   0.23796   0.79341   0.00000  Uiso   1.00
O897   O     0.74480   0.08559   0.76945   0.00000  Uiso   1.00
O898   O     0.75520   0.24774   0.89721   0.00000  Uiso   1.00
O899   O     0.68935   0.17155   0.88524   0.00000  Uiso   1.00
O900   O     0.81064   0.16179   0.78143   0.00000  Uiso   1.00
O901   O     0.68090   0.16176   0.78143   0.00000  Uiso   1.00
O902   O     0.81910   0.17157   0.88523   0.00000  Uiso   1.00
C903   C     0.70255   0.32177   0.76578   0.00000  Uiso   1.00
C904   C     0.65809   0.32960   0.77999   0.00000  Uiso   1.00
C905   C     0.62258   0.31558   0.73393   0.00000  Uiso   1.00
C906   C     0.63110   0.29278   0.67375   0.00000  Uiso   1.00
C907   C     0.67524   0.28481   0.99264   0.00000  Uiso   1.00
C908   C     0.71097   0.29955   0.70499   0.00000  Uiso   1.00
H909   H     0.65116   0.01461   0.82630   0.00000  Uiso   1.00
H910   H     0.58854   0.32336   0.74455   0.00000  Uiso   1.00
H911   H     0.60358   0.28207   0.97142   0.00000  Uiso   1.00
H912   H     0.68159   0.26847   0.94569   0.00000  Uiso   1.00
H913   H     0.74514   0.29479   0.69294   0.00000  Uiso   1.00
C914   C     0.79745   0.01156   0.90088   0.00000  Uiso   1.00
C915   C     0.78902   0.03378   0.96167   0.00000  Uiso   1.00
C916   C     0.82476   0.04852   0.67402   0.00000  Uiso   1.00
C917   C     0.86890   0.04055   0.99292   0.00000  Uiso   1.00
C918   C     0.87742   0.01776   0.93273   0.00000  Uiso   1.00
C919   C     0.84191   0.00373   0.88668   0.00000  Uiso   1.00
H920   H     0.75486   0.03854   0.97372   0.00000  Uiso   1.00
H921   H     0.81840   0.06487   0.72098   0.00000  Uiso   1.00
H922   H     0.89642   0.05126   0.69524   0.00000  Uiso   1.00
H923   H     0.91146   0.00998   0.92212   0.00000  Uiso   1.00
H924   H     0.84884   0.31873   0.84037   0.00000  Uiso   1.00
C925   C     0.24845   0.40023   0.81838   0.00000  Uiso   1.00
C926   C     0.25155   0.59977   0.84829   0.00000  Uiso   1.00
C927   C     0.02301   0.41443   0.85979   0.00000  Uiso   1.00
C928   C     0.47699   0.58557   0.80687   0.00000  Uiso   1.00
C929   C     0.24009   0.34543   0.81227   0.00000  Uiso   1.00
C930   C     0.25991   0.65457   0.85440   0.00000  Uiso   1.00
C931   C     0.16454   0.50030   0.83402   0.00000  Uiso   1.00
C932   C     0.33546   0.49970   0.83265   0.00000  Uiso   1.00
C933   C     0.40655   0.54144   0.81700   0.00000  Uiso   1.00
C934   C     0.09345   0.45856   0.84967   0.00000  Uiso   1.00
C935   C     0.38351   0.49909   0.83107   0.00000  Uiso   1.00
C936   C     0.11649   0.50091   0.83560   0.00000  Uiso   1.00
C937   C     0.40629   0.45657   0.84472   0.00000  Uiso   1.00
C938   C     0.09371   0.54343   0.82194   0.00000  Uiso   1.00
C939   C     0.45290   0.45630   0.84504   0.00000  Uiso   1.00
C940   C     0.04710   0.54370   0.82163   0.00000  Uiso   1.00
C941   C     0.47653   0.49969   0.83256   0.00000  Uiso   1.00
C942   C     0.02347   0.50031   0.83410   0.00000  Uiso   1.00
C943   C     0.45322   0.54245   0.81851   0.00000  Uiso   1.00
C944   C     0.04678   0.45755   0.84816   0.00000  Uiso   1.00
C945   C     0.47630   0.41372   0.85791   0.00000  Uiso   1.00
C946   C     0.02370   0.58628   0.80876   0.00000  Uiso   1.00
Cu947  Cu    0.25500   0.50579   0.89479   0.00000  Uiso   1.00
Cu948  Cu    0.24499   0.49421   0.77187   0.00000  Uiso   1.00
H949   H     0.38817   0.57385   0.80611   0.00000  Uiso   1.00
H950   H     0.11183   0.42615   0.86055   0.00000  Uiso   1.00
H951   H     0.38760   0.42388   0.85473   0.00000  Uiso   1.00
H952   H     0.11240   0.57612   0.81194   0.00000  Uiso   1.00
H953   H     0.45857   0.37985   0.86635   0.00000  Uiso   1.00
H954   H     0.04142   0.62015   0.80032   0.00000  Uiso   1.00
H955   H     0.04052   0.38124   0.87012   0.00000  Uiso   1.00
H956   H     0.45948   0.61876   0.79654   0.00000  Uiso   1.00
H957   H     0.21489   0.45996   0.98279   0.00000  Uiso   1.00
H958   H     0.28511   0.54003   0.68388   0.00000  Uiso   1.00
N959   N     0.23744   0.48547   0.67951   0.00000  Uiso   1.00
N960   N     0.26255   0.51453   0.98716   0.00000  Uiso   1.00
O961   O     0.25325   0.42871   0.87326   0.00000  Uiso   1.00
O962   O     0.24674   0.57129   0.79341   0.00000  Uiso   1.00
O963   O     0.24480   0.41892   0.76945   0.00000  Uiso   1.00
O964   O     0.25520   0.58108   0.89721   0.00000  Uiso   1.00
O965   O     0.18935   0.50488   0.88524   0.00000  Uiso   1.00
O966   O     0.31064   0.49512   0.78143   0.00000  Uiso   1.00
O967   O     0.18090   0.49510   0.78143   0.00000  Uiso   1.00
O968   O     0.31910   0.50490   0.88523   0.00000  Uiso   1.00
C969   C     0.20255   0.65510   0.76578   0.00000  Uiso   1.00
C970   C     0.15809   0.66293   0.77999   0.00000  Uiso   1.00
C971   C     0.12258   0.64891   0.73393   0.00000  Uiso   1.00
C972   C     0.13110   0.62611   0.67375   0.00000  Uiso   1.00
C973   C     0.17524   0.61814   0.99264   0.00000  Uiso   1.00
C974   C     0.21097   0.63288   0.70499   0.00000  Uiso   1.00
H975   H     0.15116   0.34794   0.82630   0.00000  Uiso   1.00
H976   H     0.08854   0.65669   0.74455   0.00000  Uiso   1.00
H977   H     0.10358   0.61540   0.97142   0.00000  Uiso   1.00
H978   H     0.18159   0.60180   0.94569   0.00000  Uiso   1.00
H979   H     0.24514   0.62812   0.69294   0.00000  Uiso   1.00
C980   C     0.29745   0.34490   0.90088   0.00000  Uiso   1.00
C981   C     0.28902   0.36712   0.96167   0.00000  Uiso   1.00
C982   C     0.32476   0.38186   0.67402   0.00000  Uiso   1.00
C983   C     0.36890   0.37389   0.99292   0.00000  Uiso   1.00
C984   C     0.37742   0.35109   0.93273   0.00000  Uiso   1.00
C985   C     0.34191   0.33707   0.88668   0.00000  Uiso   1.00
H986   H     0.25486   0.37188   0.97372   0.00000  Uiso   1.00
H987   H     0.31840   0.39820   0.72098   0.00000  Uiso   1.00
H988   H     0.39642   0.38460   0.69524   0.00000  Uiso   1.00
H989   H     0.41146   0.34331   0.92212   0.00000  Uiso   1.00
H990   H     0.34884   0.65206   0.84037   0.00000  Uiso   1.00
C991   C     0.74845   0.40023   0.81838   0.00000  Uiso   1.00
C992   C     0.75155   0.59977   0.84829   0.00000  Uiso   1.00
C993   C     0.52301   0.41443   0.85979   0.00000  Uiso   1.00
C994   C     0.97699   0.58557   0.80687   0.00000  Uiso   1.00
C995   C     0.74009   0.34543   0.81227   0.00000  Uiso   1.00
C996   C     0.75991   0.65457   0.85440   0.00000  Uiso   1.00
C997   C     0.66454   0.50030   0.83402   0.00000  Uiso   1.00
C998   C     0.83546   0.49970   0.83265   0.00000  Uiso   1.00
C999   C     0.90655   0.54144   0.81700   0.00000  Uiso   1.00
C1000  C     0.59345   0.45856   0.84967   0.00000  Uiso   1.00
C1001  C     0.88351   0.49909   0.83107   0.00000  Uiso   1.00
C1002  C     0.61649   0.50091   0.83560   0.00000  Uiso   1.00
C1003  C     0.90629   0.45657   0.84472   0.00000  Uiso   1.00
C1004  C     0.59371   0.54343   0.82194   0.00000  Uiso   1.00
C1005  C     0.95290   0.45630   0.84504   0.00000  Uiso   1.00
C1006  C     0.54710   0.54370   0.82163   0.00000  Uiso   1.00
C1007  C     0.97653   0.49969   0.83256   0.00000  Uiso   1.00
C1008  C     0.52347   0.50031   0.83410   0.00000  Uiso   1.00
C1009  C     0.95322   0.54245   0.81851   0.00000  Uiso   1.00
C1010  C     0.54678   0.45755   0.84816   0.00000  Uiso   1.00
C1011  C     0.97630   0.41372   0.85791   0.00000  Uiso   1.00
C1012  C     0.52370   0.58628   0.80876   0.00000  Uiso   1.00
Cu1013 Cu    0.75500   0.50579   0.89479   0.00000  Uiso   1.00
Cu1014 Cu    0.74499   0.49421   0.77187   0.00000  Uiso   1.00
H1015  H     0.88817   0.57385   0.80611   0.00000  Uiso   1.00
H1016  H     0.61183   0.42615   0.86055   0.00000  Uiso   1.00
H1017  H     0.88760   0.42388   0.85473   0.00000  Uiso   1.00
H1018  H     0.61240   0.57612   0.81194   0.00000  Uiso   1.00
H1019  H     0.95857   0.37985   0.86635   0.00000  Uiso   1.00
H1020  H     0.54142   0.62015   0.80032   0.00000  Uiso   1.00
H1021  H     0.54052   0.38124   0.87012   0.00000  Uiso   1.00
H1022  H     0.95948   0.61876   0.79654   0.00000  Uiso   1.00
H1023  H     0.71489   0.45996   0.98279   0.00000  Uiso   1.00
H1024  H     0.78511   0.54003   0.68388   0.00000  Uiso   1.00
N1025  N     0.73744   0.48547   0.67951   0.00000  Uiso   1.00
N1026  N     0.76255   0.51453   0.98716   0.00000  Uiso   1.00
O1027  O     0.75325   0.42871   0.87326   0.00000  Uiso   1.00
O1028  O     0.74674   0.57129   0.79341   0.00000  Uiso   1.00
O1029  O     0.74480   0.41892   0.76945   0.00000  Uiso   1.00
O1030  O     0.75520   0.58108   0.89721   0.00000  Uiso   1.00
O1031  O     0.68935   0.50488   0.88524   0.00000  Uiso   1.00
O1032  O     0.81064   0.49512   0.78143   0.00000  Uiso   1.00
O1033  O     0.68090   0.49510   0.78143   0.00000  Uiso   1.00
O1034  O     0.81910   0.50490   0.88523   0.00000  Uiso   1.00
C1035  C     0.70255   0.65510   0.76578   0.00000  Uiso   1.00
C1036  C     0.65809   0.66293   0.77999   0.00000  Uiso   1.00
C1037  C     0.62258   0.64891   0.73393   0.00000  Uiso   1.00
C1038  C     0.63110   0.62611   0.67375   0.00000  Uiso   1.00
C1039  C     0.67524   0.61814   0.99264   0.00000  Uiso   1.00
C1040  C     0.71097   0.63288   0.70499   0.00000  Uiso   1.00
H1041  H     0.65116   0.34794   0.82630   0.00000  Uiso   1.00
H1042  H     0.58854   0.65669   0.74455   0.00000  Uiso   1.00
H1043  H     0.60358   0.61540   0.97142   0.00000  Uiso   1.00
H1044  H     0.68159   0.60180   0.94569   0.00000  Uiso   1.00
H1045  H     0.74514   0.62812   0.69294   0.00000  Uiso   1.00
C1046  C     0.79745   0.34490   0.90088   0.00000  Uiso   1.00
C1047  C     0.78902   0.36712   0.96167   0.00000  Uiso   1.00
C1048  C     0.82476   0.38186   0.67402   0.00000  Uiso   1.00
C1049  C     0.86890   0.37389   0.99292   0.00000  Uiso   1.00
C1050  C     0.87742   0.35109   0.93273   0.00000  Uiso   1.00
C1051  C     0.84191   0.33707   0.88668   0.00000  Uiso   1.00
H1052  H     0.75486   0.37188   0.97372   0.00000  Uiso   1.00
H1053  H     0.81840   0.39820   0.72098   0.00000  Uiso   1.00
H1054  H     0.89642   0.38460   0.69524   0.00000  Uiso   1.00
H1055  H     0.91146   0.34331   0.92212   0.00000  Uiso   1.00
H1056  H     0.84884   0.65206   0.84037   0.00000  Uiso   1.00
C1057  C     0.24845   0.73356   0.81838   0.00000  Uiso   1.00
C1058  C     0.25155   0.93310   0.84829   0.00000  Uiso   1.00
C1059  C     0.02301   0.74776   0.85979   0.00000  Uiso   1.00
C1060  C     0.47699   0.91890   0.80687   0.00000  Uiso   1.00
C1061  C     0.24009   0.67876   0.81227   0.00000  Uiso   1.00
C1062  C     0.25991   0.98790   0.85440   0.00000  Uiso   1.00
C1063  C     0.16454   0.83363   0.83402   0.00000  Uiso   1.00
C1064  C     0.33546   0.83304   0.83265   0.00000  Uiso   1.00
C1065  C     0.40655   0.87478   0.81700   0.00000  Uiso   1.00
C1066  C     0.09345   0.79189   0.84967   0.00000  Uiso   1.00
C1067  C     0.38351   0.83242   0.83107   0.00000  Uiso   1.00
C1068  C     0.11649   0.83425   0.83560   0.00000  Uiso   1.00
C1069  C     0.40629   0.78991   0.84472   0.00000  Uiso   1.00
C1070  C     0.09371   0.87676   0.82194   0.00000  Uiso   1.00
C1071  C     0.45290   0.78964   0.84504   0.00000  Uiso   1.00
C1072  C     0.04710   0.87703   0.82163   0.00000  Uiso   1.00
C1073  C     0.47653   0.83302   0.83256   0.00000  Uiso   1.00
C1074  C     0.02347   0.83364   0.83410   0.00000  Uiso   1.00
C1075  C     0.45322   0.87578   0.81851   0.00000  Uiso   1.00
C1076  C     0.04678   0.79089   0.84816   0.00000  Uiso   1.00
C1077  C     0.47630   0.74705   0.85791   0.00000  Uiso   1.00
C1078  C     0.02370   0.91961   0.80876   0.00000  Uiso   1.00
Cu1079 Cu    0.25500   0.83913   0.89479   0.00000  Uiso   1.00
Cu1080 Cu    0.24499   0.82754   0.77187   0.00000  Uiso   1.00
H1081  H     0.38817   0.90718   0.80611   0.00000  Uiso   1.00
H1082  H     0.11183   0.75948   0.86055   0.00000  Uiso   1.00
H1083  H     0.38760   0.75721   0.85473   0.00000  Uiso   1.00
H1084  H     0.11240   0.90945   0.81194   0.00000  Uiso   1.00
H1085  H     0.45857   0.71318   0.86635   0.00000  Uiso   1.00
H1086  H     0.04142   0.95348   0.80032   0.00000  Uiso   1.00
H1087  H     0.04052   0.71457   0.87012   0.00000  Uiso   1.00
H1088  H     0.45948   0.95209   0.79654   0.00000  Uiso   1.00
H1089  H     0.21489   0.79330   0.98279   0.00000  Uiso   1.00
H1090  H     0.28511   0.87337   0.68388   0.00000  Uiso   1.00
N1091  N     0.23744   0.81881   0.67951   0.00000  Uiso   1.00
N1092  N     0.26255   0.84786   0.98716   0.00000  Uiso   1.00
O1093  O     0.25325   0.76204   0.87326   0.00000  Uiso   1.00
O1094  O     0.24674   0.90462   0.79341   0.00000  Uiso   1.00
O1095  O     0.24480   0.75226   0.76945   0.00000  Uiso   1.00
O1096  O     0.25520   0.91441   0.89721   0.00000  Uiso   1.00
O1097  O     0.18935   0.83821   0.88524   0.00000  Uiso   1.00
O1098  O     0.31064   0.82845   0.78143   0.00000  Uiso   1.00
O1099  O     0.18090   0.82843   0.78143   0.00000  Uiso   1.00
O1100  O     0.31910   0.83824   0.88523   0.00000  Uiso   1.00
C1101  C     0.20255   0.98844   0.76578   0.00000  Uiso   1.00
C1102  C     0.15809   0.99627   0.77999   0.00000  Uiso   1.00
C1103  C     0.12258   0.98224   0.73393   0.00000  Uiso   1.00
C1104  C     0.13110   0.95945   0.67375   0.00000  Uiso   1.00
C1105  C     0.17524   0.95148   0.99264   0.00000  Uiso   1.00
C1106  C     0.21097   0.96622   0.70499   0.00000  Uiso   1.00
H1107  H     0.15116   0.68127   0.82630   0.00000  Uiso   1.00
H1108  H     0.08854   0.99002   0.74455   0.00000  Uiso   1.00
H1109  H     0.10358   0.94874   0.97142   0.00000  Uiso   1.00
H1110  H     0.18159   0.93513   0.94569   0.00000  Uiso   1.00
H1111  H     0.24514   0.96146   0.69294   0.00000  Uiso   1.00
C1112  C     0.29745   0.67823   0.90088   0.00000  Uiso   1.00
C1113  C     0.28902   0.70045   0.96167   0.00000  Uiso   1.00
C1114  C     0.32476   0.71519   0.67402   0.00000  Uiso   1.00
C1115  C     0.36890   0.70722   0.99292   0.00000  Uiso   1.00
C1116  C     0.37742   0.68442   0.93273   0.00000  Uiso   1.00
C1117  C     0.34191   0.67040   0.88668   0.00000  Uiso   1.00
H1118  H     0.25486   0.70521   0.97372   0.00000  Uiso   1.00
H1119  H     0.31840   0.73153   0.72098   0.00000  Uiso   1.00
H1120  H     0.39642   0.71793   0.69524   0.00000  Uiso   1.00
H1121  H     0.41146   0.67664   0.92212   0.00000  Uiso   1.00
H1122  H     0.34884   0.98539   0.84037   0.00000  Uiso   1.00
C1123  C     0.74845   0.73356   0.81838   0.00000  Uiso   1.00
C1124  C     0.75155   0.93310   0.84829   0.00000  Uiso   1.00
C1125  C     0.52301   0.74776   0.85979   0.00000  Uiso   1.00
C1126  C     0.97699   0.91890   0.80687   0.00000  Uiso   1.00
C1127  C     0.74009   0.67876   0.81227   0.00000  Uiso   1.00
C1128  C     0.75991   0.98790   0.85440   0.00000  Uiso   1.00
C1129  C     0.66454   0.83363   0.83402   0.00000  Uiso   1.00
C1130  C     0.83546   0.83304   0.83265   0.00000  Uiso   1.00
C1131  C     0.90655   0.87478   0.81700   0.00000  Uiso   1.00
C1132  C     0.59345   0.79189   0.84967   0.00000  Uiso   1.00
C1133  C     0.88351   0.83242   0.83107   0.00000  Uiso   1.00
C1134  C     0.61649   0.83425   0.83560   0.00000  Uiso   1.00
C1135  C     0.90629   0.78991   0.84472   0.00000  Uiso   1.00
C1136  C     0.59371   0.87676   0.82194   0.00000  Uiso   1.00
C1137  C     0.95290   0.78964   0.84504   0.00000  Uiso   1.00
C1138  C     0.54710   0.87703   0.82163   0.00000  Uiso   1.00
C1139  C     0.97653   0.83302   0.83256   0.00000  Uiso   1.00
C1140  C     0.52347   0.83364   0.83410   0.00000  Uiso   1.00
C1141  C     0.95322   0.87578   0.81851   0.00000  Uiso   1.00
C1142  C     0.54678   0.79089   0.84816   0.00000  Uiso   1.00
C1143  C     0.97630   0.74705   0.85791   0.00000  Uiso   1.00
C1144  C     0.52370   0.91961   0.80876   0.00000  Uiso   1.00
Cu1145 Cu    0.75500   0.83913   0.89479   0.00000  Uiso   1.00
Cu1146 Cu    0.74499   0.82754   0.77187   0.00000  Uiso   1.00
H1147  H     0.88817   0.90718   0.80611   0.00000  Uiso   1.00
H1148  H     0.61183   0.75948   0.86055   0.00000  Uiso   1.00
H1149  H     0.88760   0.75721   0.85473   0.00000  Uiso   1.00
H1150  H     0.61240   0.90945   0.81194   0.00000  Uiso   1.00
H1151  H     0.95857   0.71318   0.86635   0.00000  Uiso   1.00
H1152  H     0.54142   0.95348   0.80032   0.00000  Uiso   1.00
H1153  H     0.54052   0.71457   0.87012   0.00000  Uiso   1.00
H1154  H     0.95948   0.95209   0.79654   0.00000  Uiso   1.00
H1155  H     0.71489   0.79330   0.98279   0.00000  Uiso   1.00
H1156  H     0.78511   0.87337   0.68388   0.00000  Uiso   1.00
N1157  N     0.73744   0.81881   0.67951   0.00000  Uiso   1.00
N1158  N     0.76255   0.84786   0.98716   0.00000  Uiso   1.00
O1159  O     0.75325   0.76204   0.87326   0.00000  Uiso   1.00
O1160  O     0.74674   0.90462   0.79341   0.00000  Uiso   1.00
O1161  O     0.74480   0.75226   0.76945   0.00000  Uiso   1.00
O1162  O     0.75520   0.91441   0.89721   0.00000  Uiso   1.00
O1163  O     0.68935   0.83821   0.88524   0.00000  Uiso   1.00
O1164  O     0.81064   0.82845   0.78143   0.00000  Uiso   1.00
O1165  O     0.68090   0.82843   0.78143   0.00000  Uiso   1.00
O1166  O     0.81910   0.83824   0.88523   0.00000  Uiso   1.00
C1167  C     0.70255   0.98844   0.76578   0.00000  Uiso   1.00
C1168  C     0.65809   0.99627   0.77999   0.00000  Uiso   1.00
C1169  C     0.62258   0.98224   0.73393   0.00000  Uiso   1.00
C1170  C     0.63110   0.95945   0.67375   0.00000  Uiso   1.00
C1171  C     0.67524   0.95148   0.99264   0.00000  Uiso   1.00
C1172  C     0.71097   0.96622   0.70499   0.00000  Uiso   1.00
H1173  H     0.65116   0.68127   0.82630   0.00000  Uiso   1.00
H1174  H     0.58854   0.99002   0.74455   0.00000  Uiso   1.00
H1175  H     0.60358   0.94874   0.97142   0.00000  Uiso   1.00
H1176  H     0.68159   0.93513   0.94569   0.00000  Uiso   1.00
H1177  H     0.74514   0.96146   0.69294   0.00000  Uiso   1.00
C1178  C     0.79745   0.67823   0.90088   0.00000  Uiso   1.00
C1179  C     0.78902   0.70045   0.96167   0.00000  Uiso   1.00
C1180  C     0.82476   0.71519   0.67402   0.00000  Uiso   1.00
C1181  C     0.86890   0.70722   0.99292   0.00000  Uiso   1.00
C1182  C     0.87742   0.68442   0.93273   0.00000  Uiso   1.00
C1183  C     0.84191   0.67040   0.88668   0.00000  Uiso   1.00
H1184  H     0.75486   0.70521   0.97372   0.00000  Uiso   1.00
H1185  H     0.81840   0.73153   0.72098   0.00000  Uiso   1.00
H1186  H     0.89642   0.71793   0.69524   0.00000  Uiso   1.00
H1187  H     0.91146   0.67664   0.92212   0.00000  Uiso   1.00
H1188  H     0.84884   0.98539   0.84037   0.00000  Uiso   1.00
loop_
_geom_bond_atom_site_label_1
_geom_bond_atom_site_label_2
_geom_bond_distance
_geom_bond_site_symmetry_2
_ccdc_geom_bond_type
C1     O37     1.285   .     A
C1     C5      1.425   .     S
C1     O39     1.288   .     A
C2     O38     1.285   .     A
C2     C6      1.425   .     S
C2     O40     1.288   .     A
C3     C20     1.400   .     A
C3     H31     1.084   .     S
C3     C87     1.394   1_455 S
C4     H32     1.084   .     S
C4     C19     1.400   .     A
C4     C88     1.394   .     S
C5     C270    1.350   1_545 S
C5     C309    1.488   1_545 S
C6     C137    1.350   .     S
C6     C188    1.488   .     S
C7     C12     1.441   .     S
C7     O41     1.292   .     A
C7     O43     1.292   .     A
C8     O44     1.292   .     A
C8     C11     1.441   .     S
C8     O42     1.292   .     A
C9     H25     1.084   .     S
C9     C11     1.396   .     A
C9     C19     1.393   .     A
C10    C20     1.393   .     A
C10    H26     1.084   .     S
C10    C12     1.396   .     A
C11    C13     1.396   .     A
C12    C14     1.396   .     A
C13    C15     1.394   .     A
C13    H27     1.083   .     S
C14    H28     1.083   .     S
C14    C16     1.394   .     A
C15    C21     1.401   .     A
C15    C17     1.412   .     A
C16    C18     1.412   .     A
C16    C22     1.401   .     A
C17    C19     1.413   .     A
C17    C84     1.401   .     S
C18    C20     1.413   .     A
C18    C83     1.401   1_455 S
C21    H29     1.080   .     S
C21    C69     1.394   .     S
C22    H30     1.080   .     S
C22    C70     1.394   1_455 S
Cu23   Cu24    2.686   .     S
Cu23   O37     1.971   .     S
Cu23   O41     1.957   .     S
Cu23   N36     2.018   .     S
Cu23   O40     1.961   .     S
Cu23   O44     1.947   .     S
Cu24   O38     1.971   .     S
Cu24   N35     2.018   .     S
Cu24   O39     1.961   .     S
Cu24   O42     1.957   .     S
Cu24   O43     1.947   .     S
H33    N431    1.029   .     S
H34    N828    1.029   1_554 S
N35    H825    1.029   1_554 S
N35    N828    1.304   1_554 S
N36    N431    1.304   .     S
N36    H430    1.029   .     S
C45    C46     1.403   .     A
C45    C50     1.404   .     A
C45    C137    1.488   .     S
C46    C47     1.398   .     A
C46    H183    1.082   .     S
C47    H52     1.080   .     S
C47    C48     1.396   .     A
C48    C841    1.396   1_554 S
C48    H845    1.083   1_554 S
C49    H54     1.079   .     S
C49    C444    1.396   .     S
C49    C446    1.399   .     S
C50    H55     1.082   .     S
C50    C841    1.399   1_554 S
H51    C310    1.082   1_545 S
H53    C444    1.083   .     S
C56    C57     1.404   .     A
C56    C61     1.403   .     A
C56    C270    1.488   1_545 S
C57    H62     1.082   .     S
C57    C454    1.399   .     S
C58    H63     1.079   .     S
C58    C849    1.399   1_554 S
C58    C851    1.396   1_554 S
C59    C60     1.396   .     A
C59    C454    1.396   .     S
C59    H460    1.083   .     S
C60    H65     1.080   .     S
C60    C61     1.398   .     A
C61    H330    1.082   1_545 S
H64    C851    1.083   1_554 S
H66    C193    1.082   .     S
C67    O103    1.285   .     A
C67    C71     1.425   .     S
C67    O105    1.288   .     A
C68    O104    1.285   .     A
C68    C72     1.425   .     S
C68    O106    1.288   .     A
C69    C86     1.400   .     A
C69    H97     1.084   .     S
C70    H98     1.084   .     S
C70    C85     1.400   .     A
C70    C22     1.394   1_655 S
C71    C336    1.350   1_545 S
C71    C375    1.488   1_545 S
C72    C203    1.350   .     S
C72    C254    1.488   .     S
C73    C78     1.441   .     S
C73    O107    1.292   .     A
C73    O109    1.292   .     A
C74    O110    1.292   .     A
C74    C77     1.441   .     S
C74    O108    1.292   .     A
C75    H91     1.084   .     S
C75    C77     1.396   .     A
C75    C85     1.393   .     A
C76    C86     1.393   .     A
C76    H92     1.084   .     S
C76    C78     1.396   .     A
C77    C79     1.396   .     A
C78    C80     1.396   .     A
C79    C81     1.394   .     A
C79    H93     1.083   .     S
C80    H94     1.083   .     S
C80    C82     1.394   .     A
C81    C87     1.401   .     A
C81    C83     1.412   .     A
C82    C84     1.412   .     A
C82    C88     1.401   .     A
C83    C85     1.413   .     A
C83    C18     1.401   1_655 S
C84    C86     1.413   .     A
C87    H95     1.080   .     S
C87    C3      1.394   1_655 S
C88    H96     1.080   .     S
Cu89   Cu90    2.686   .     S
Cu89   O103    1.971   .     S
Cu89   O107    1.957   .     S
Cu89   N102    2.018   .     S
Cu89   O106    1.961   .     S
Cu89   O110    1.947   .     S
Cu90   O104    1.971   .     S
Cu90   N101    2.018   .     S
Cu90   O105    1.961   .     S
Cu90   O108    1.957   .     S
Cu90   O109    1.947   .     S
H99    N497    1.029   .     S
H100   N894    1.029   1_554 S
N101   H891    1.029   1_554 S
N101   N894    1.304   1_554 S
N102   N497    1.304   .     S
N102   H496    1.029   .     S
C111   C112    1.403   .     A
C111   C116    1.404   .     A
C111   C203    1.488   .     S
C112   C113    1.398   .     A
C112   H249    1.082   .     S
C113   H118    1.080   .     S
C113   C114    1.396   .     A
C114   C907    1.396   1_554 S
C114   H911    1.083   1_554 S
C115   H120    1.079   .     S
C115   C510    1.396   .     S
C115   C512    1.399   .     S
C116   H121    1.082   .     S
C116   C907    1.399   1_554 S
H117   C376    1.082   1_545 S
H119   C510    1.083   .     S
C122   C123    1.404   .     A
C122   C127    1.403   .     A
C122   C336    1.488   1_545 S
C123   H128    1.082   .     S
C123   C520    1.399   .     S
C124   H129    1.079   .     S
C124   C915    1.399   1_554 S
C124   C917    1.396   1_554 S
C125   C126    1.396   .     A
C125   C520    1.396   .     S
C125   H526    1.083   .     S
C126   H131    1.080   .     S
C126   C127    1.398   .     A
C127   H396    1.082   1_545 S
H130   C917    1.083   1_554 S
H132   C259    1.082   .     S
C133   O169    1.285   .     A
C133   C137    1.425   .     S
C133   O171    1.288   .     A
C134   O170    1.285   .     A
C134   C138    1.425   .     S
C134   O172    1.288   .     A
C135   C152    1.400   .     A
C135   H163    1.084   .     S
C135   C219    1.394   1_455 S
C136   H164    1.084   .     S
C136   C151    1.400   .     A
C136   C220    1.394   .     S
C138   C269    1.350   .     S
C138   C320    1.488   .     S
C139   C144    1.441   .     S
C139   O173    1.292   .     A
C139   O175    1.292   .     A
C140   O176    1.292   .     A
C140   C143    1.441   .     S
C140   O174    1.292   .     A
C141   H157    1.084   .     S
C141   C143    1.396   .     A
C141   C151    1.393   .     A
C142   C152    1.393   .     A
C142   H158    1.084   .     S
C142   C144    1.396   .     A
C143   C145    1.396   .     A
C144   C146    1.396   .     A
C145   C147    1.394   .     A
C145   H159    1.083   .     S
C146   H160    1.083   .     S
C146   C148    1.394   .     A
C147   C153    1.401   .     A
C147   C149    1.412   .     A
C148   C150    1.412   .     A
C148   C154    1.401   .     A
C149   C151    1.413   .     A
C149   C216    1.401   .     S
C150   C152    1.413   .     A
C150   C215    1.401   1_455 S
C153   H161    1.080   .     S
C153   C201    1.394   .     S
C154   H162    1.080   .     S
C154   C202    1.394   1_455 S
Cu155  Cu156   2.686   .     S
Cu155  O169    1.971   .     S
Cu155  O173    1.957   .     S
Cu155  N168    2.018   .     S
Cu155  O172    1.961   .     S
Cu155  O176    1.947   .     S
Cu156  O170    1.971   .     S
Cu156  N167    2.018   .     S
Cu156  O171    1.961   .     S
Cu156  O174    1.957   .     S
Cu156  O175    1.947   .     S
H165   N563    1.029   .     S
H166   N960    1.029   1_554 S
N167   H957    1.029   1_554 S
N167   N960    1.304   1_554 S
N168   N563    1.304   .     S
N168   H562    1.029   .     S
C177   C178    1.403   .     A
C177   C182    1.404   .     A
C177   C269    1.488   .     S
C178   C179    1.398   .     A
C178   H315    1.082   .     S
C179   H184    1.080   .     S
C179   C180    1.396   .     A
C180   C973    1.396   1_554 S
C180   H977    1.083   1_554 S
C181   H186    1.079   .     S
C181   C576    1.396   .     S
C181   C578    1.399   .     S
C182   H187    1.082   .     S
C182   C973    1.399   1_554 S
H185   C576    1.083   .     S
C188   C189    1.404   .     A
C188   C193    1.403   .     A
C189   H194    1.082   .     S
C189   C586    1.399   .     S
C190   H195    1.079   .     S
C190   C981    1.399   1_554 S
C190   C983    1.396   1_554 S
C191   C192    1.396   .     A
C191   C586    1.396   .     S
C191   H592    1.083   .     S
C192   H197    1.080   .     S
C192   C193    1.398   .     A
H196   C983    1.083   1_554 S
H198   C325    1.082   .     S
C199   O235    1.285   .     A
C199   C203    1.425   .     S
C199   O237    1.288   .     A
C200   O236    1.285   .     A
C200   C204    1.425   .     S
C200   O238    1.288   .     A
C201   C218    1.400   .     A
C201   H229    1.084   .     S
C202   H230    1.084   .     S
C202   C217    1.400   .     A
C202   C154    1.394   1_655 S
C204   C335    1.350   .     S
C204   C386    1.488   .     S
C205   C210    1.441   .     S
C205   O239    1.292   .     A
C205   O241    1.292   .     A
C206   O242    1.292   .     A
C206   C209    1.441   .     S
C206   O240    1.292   .     A
C207   H223    1.084   .     S
C207   C209    1.396   .     A
C207   C217    1.393   .     A
C208   C218    1.393   .     A
C208   H224    1.084   .     S
C208   C210    1.396   .     A
C209   C211    1.396   .     A
C210   C212    1.396   .     A
C211   C213    1.394   .     A
C211   H225    1.083   .     S
C212   H226    1.083   .     S
C212   C214    1.394   .     A
C213   C219    1.401   .     A
C213   C215    1.412   .     A
C214   C216    1.412   .     A
C214   C220    1.401   .     A
C215   C217    1.413   .     A
C215   C150    1.401   1_655 S
C216   C218    1.413   .     A
C219   H227    1.080   .     S
C219   C135    1.394   1_655 S
C220   H228    1.080   .     S
Cu221  Cu222   2.686   .     S
Cu221  O235    1.971   .     S
Cu221  O239    1.957   .     S
Cu221  N234    2.018   .     S
Cu221  O238    1.961   .     S
Cu221  O242    1.947   .     S
Cu222  O236    1.971   .     S
Cu222  N233    2.018   .     S
Cu222  O237    1.961   .     S
Cu222  O240    1.957   .     S
Cu222  O241    1.947   .     S
H231   N629    1.029   .     S
H232   N1026   1.029   1_554 S
N233   H1023   1.029   1_554 S
N233   N1026   1.304   1_554 S
N234   N629    1.304   .     S
N234   H628    1.029   .     S
C243   C244    1.403   .     A
C243   C248    1.404   .     A
C243   C335    1.488   .     S
C244   C245    1.398   .     A
C244   H381    1.082   .     S
C245   H250    1.080   .     S
C245   C246    1.396   .     A
C246   C1039   1.396   1_554 S
C246   H1043   1.083   1_554 S
C247   H252    1.079   .     S
C247   C642    1.396   .     S
C247   C644    1.399   .     S
C248   H253    1.082   .     S
C248   C1039   1.399   1_554 S
H251   C642    1.083   .     S
C254   C255    1.404   .     A
C254   C259    1.403   .     A
C255   H260    1.082   .     S
C255   C652    1.399   .     S
C256   H261    1.079   .     S
C256   C1047   1.399   1_554 S
C256   C1049   1.396   1_554 S
C257   C258    1.396   .     A
C257   C652    1.396   .     S
C257   H658    1.083   .     S
C258   H263    1.080   .     S
C258   C259    1.398   .     A
H262   C1049   1.083   1_554 S
H264   C391    1.082   .     S
C265   O301    1.285   .     A
C265   C269    1.425   .     S
C265   O303    1.288   .     A
C266   O302    1.285   .     A
C266   C270    1.425   .     S
C266   O304    1.288   .     A
C267   C284    1.400   .     A
C267   H295    1.084   .     S
C267   C351    1.394   1_455 S
C268   H296    1.084   .     S
C268   C283    1.400   .     A
C268   C352    1.394   .     S
C270   C5      1.350   1_565 S
C270   C56     1.488   1_565 S
C271   C276    1.441   .     S
C271   O305    1.292   .     A
C271   O307    1.292   .     A
C272   O308    1.292   .     A
C272   C275    1.441   .     S
C272   O306    1.292   .     A
C273   H289    1.084   .     S
C273   C275    1.396   .     A
C273   C283    1.393   .     A
C274   C284    1.393   .     A
C274   H290    1.084   .     S
C274   C276    1.396   .     A
C275   C277    1.396   .     A
C276   C278    1.396   .     A
C277   C279    1.394   .     A
C277   H291    1.083   .     S
C278   H292    1.083   .     S
C278   C280    1.394   .     A
C279   C285    1.401   .     A
C279   C281    1.412   .     A
C280   C282    1.412   .     A
C280   C286    1.401   .     A
C281   C283    1.413   .     A
C281   C348    1.401   .     S
C282   C284    1.413   .     A
C282   C347    1.401   1_455 S
C285   H293    1.080   .     S
C285   C333    1.394   .     S
C286   H294    1.080   .     S
C286   C334    1.394   1_455 S
Cu287  Cu288   2.686   .     S
Cu287  O301    1.971   .     S
Cu287  O305    1.957   .     S
Cu287  N300    2.018   .     S
Cu287  O304    1.961   .     S
Cu287  O308    1.947   .     S
Cu288  O302    1.971   .     S
Cu288  N299    2.018   .     S
Cu288  O303    1.961   .     S
Cu288  O306    1.957   .     S
Cu288  O307    1.947   .     S
H297   N695    1.029   .     S
H298   N1092   1.029   1_554 S
N299   H1089   1.029   1_554 S
N299   N1092   1.304   1_554 S
N300   N695    1.304   .     S
N300   H694    1.029   .     S
C309   C310    1.403   .     A
C309   C314    1.404   .     A
C309   C5      1.488   1_565 S
C310   C311    1.398   .     A
C310   H51     1.082   1_565 S
C311   H316    1.080   .     S
C311   C312    1.396   .     A
C312   C1105   1.396   1_554 S
C312   H1109   1.083   1_554 S
C313   H318    1.079   .     S
C313   C708    1.396   .     S
C313   C710    1.399   .     S
C314   H319    1.082   .     S
C314   C1105   1.399   1_554 S
H317   C708    1.083   .     S
C320   C321    1.404   .     A
C320   C325    1.403   .     A
C321   H326    1.082   .     S
C321   C718    1.399   .     S
C322   H327    1.079   .     S
C322   C1113   1.399   1_554 S
C322   C1115   1.396   1_554 S
C323   C324    1.396   .     A
C323   C718    1.396   .     S
C323   H724    1.083   .     S
C324   H329    1.080   .     S
C324   C325    1.398   .     A
H328   C1115   1.083   1_554 S
H330   C61     1.082   1_565 S
C331   O367    1.285   .     A
C331   C335    1.425   .     S
C331   O369    1.288   .     A
C332   O368    1.285   .     A
C332   C336    1.425   .     S
C332   O370    1.288   .     A
C333   C350    1.400   .     A
C333   H361    1.084   .     S
C334   H362    1.084   .     S
C334   C349    1.400   .     A
C334   C286    1.394   1_655 S
C336   C71     1.350   1_565 S
C336   C122    1.488   1_565 S
C337   C342    1.441   .     S
C337   O371    1.292   .     A
C337   O373    1.292   .     A
C338   O374    1.292   .     A
C338   C341    1.441   .     S
C338   O372    1.292   .     A
C339   H355    1.084   .     S
C339   C341    1.396   .     A
C339   C349    1.393   .     A
C340   C350    1.393   .     A
C340   H356    1.084   .     S
C340   C342    1.396   .     A
C341   C343    1.396   .     A
C342   C344    1.396   .     A
C343   C345    1.394   .     A
C343   H357    1.083   .     S
C344   H358    1.083   .     S
C344   C346    1.394   .     A
C345   C351    1.401   .     A
C345   C347    1.412   .     A
C346   C348    1.412   .     A
C346   C352    1.401   .     A
C347   C349    1.413   .     A
C347   C282    1.401   1_655 S
C348   C350    1.413   .     A
C351   H359    1.080   .     S
C351   C267    1.394   1_655 S
C352   H360    1.080   .     S
Cu353  Cu354   2.686   .     S
Cu353  O367    1.971   .     S
Cu353  O371    1.957   .     S
Cu353  N366    2.018   .     S
Cu353  O370    1.961   .     S
Cu353  O374    1.947   .     S
Cu354  O368    1.971   .     S
Cu354  N365    2.018   .     S
Cu354  O369    1.961   .     S
Cu354  O372    1.957   .     S
Cu354  O373    1.947   .     S
H363   N761    1.029   .     S
H364   N1158   1.029   1_554 S
N365   H1155   1.029   1_554 S
N365   N1158   1.304   1_554 S
N366   N761    1.304   .     S
N366   H760    1.029   .     S
C375   C376    1.403   .     A
C375   C380    1.404   .     A
C375   C71     1.488   1_565 S
C376   C377    1.398   .     A
C376   H117    1.082   1_565 S
C377   H382    1.080   .     S
C377   C378    1.396   .     A
C378   C1171   1.396   1_554 S
C378   H1175   1.083   1_554 S
C379   H384    1.079   .     S
C379   C774    1.396   .     S
C379   C776    1.399   .     S
C380   H385    1.082   .     S
C380   C1171   1.399   1_554 S
H383   C774    1.083   .     S
C386   C387    1.404   .     A
C386   C391    1.403   .     A
C387   H392    1.082   .     S
C387   C784    1.399   .     S
C388   H393    1.079   .     S
C388   C1179   1.399   1_554 S
C388   C1181   1.396   1_554 S
C389   C390    1.396   .     A
C389   C784    1.396   .     S
C389   H790    1.083   .     S
C390   H395    1.080   .     S
C390   C391    1.398   .     A
H394   C1181   1.083   1_554 S
H396   C127    1.082   1_565 S
C397   O433    1.285   .     A
C397   C401    1.425   .     S
C397   O435    1.288   .     A
C398   O434    1.285   .     A
C398   C402    1.425   .     S
C398   O436    1.288   .     A
C399   C416    1.400   .     A
C399   H427    1.084   .     S
C399   C483    1.394   1_455 S
C400   H428    1.084   .     S
C400   C415    1.400   .     A
C400   C484    1.394   .     S
C401   C666    1.350   1_545 S
C401   C705    1.488   1_545 S
C402   C533    1.350   .     S
C402   C584    1.488   .     S
C403   C408    1.441   .     S
C403   O437    1.292   .     A
C403   O439    1.292   .     A
C404   O440    1.292   .     A
C404   C407    1.441   .     S
C404   O438    1.292   .     A
C405   H421    1.084   .     S
C405   C407    1.396   .     A
C405   C415    1.393   .     A
C406   C416    1.393   .     A
C406   H422    1.084   .     S
C406   C408    1.396   .     A
C407   C409    1.396   .     A
C408   C410    1.396   .     A
C409   C411    1.394   .     A
C409   H423    1.083   .     S
C410   H424    1.083   .     S
C410   C412    1.394   .     A
C411   C417    1.401   .     A
C411   C413    1.412   .     A
C412   C414    1.412   .     A
C412   C418    1.401   .     A
C413   C415    1.413   .     A
C413   C480    1.401   .     S
C414   C416    1.413   .     A
C414   C479    1.401   1_455 S
C417   H425    1.080   .     S
C417   C465    1.394   .     S
C418   H426    1.080   .     S
C418   C466    1.394   1_455 S
Cu419  Cu420   2.686   .     S
Cu419  O433    1.971   .     S
Cu419  O437    1.957   .     S
Cu419  N432    2.018   .     S
Cu419  O436    1.961   .     S
Cu419  O440    1.947   .     S
Cu420  O434    1.971   .     S
Cu420  N431    2.018   .     S
Cu420  O435    1.961   .     S
Cu420  O438    1.957   .     S
Cu420  O439    1.947   .     S
H429   N827    1.029   .     S
N432   N827    1.304   .     S
N432   H826    1.029   .     S
C441   C442    1.403   .     A
C441   C446    1.404   .     A
C441   C533    1.488   .     S
C442   C443    1.398   .     A
C442   H579    1.082   .     S
C443   H448    1.080   .     S
C443   C444    1.396   .     A
C445   H450    1.079   .     S
C445   C840    1.396   .     S
C445   C842    1.399   .     S
C446   H451    1.082   .     S
H447   C706    1.082   1_545 S
H449   C840    1.083   .     S
C452   C453    1.404   .     A
C452   C457    1.403   .     A
C452   C666    1.488   1_545 S
C453   H458    1.082   .     S
C453   C850    1.399   .     S
C454   H459    1.079   .     S
C455   C456    1.396   .     A
C455   C850    1.396   .     S
C455   H856    1.083   .     S
C456   H461    1.080   .     S
C456   C457    1.398   .     A
C457   H726    1.082   1_545 S
H462   C589    1.082   .     S
C463   O499    1.285   .     A
C463   C467    1.425   .     S
C463   O501    1.288   .     A
C464   O500    1.285   .     A
C464   C468    1.425   .     S
C464   O502    1.288   .     A
C465   C482    1.400   .     A
C465   H493    1.084   .     S
C466   H494    1.084   .     S
C466   C481    1.400   .     A
C466   C418    1.394   1_655 S
C467   C732    1.350   1_545 S
C467   C771    1.488   1_545 S
C468   C599    1.350   .     S
C468   C650    1.488   .     S
C469   C474    1.441   .     S
C469   O503    1.292   .     A
C469   O505    1.292   .     A
C470   O506    1.292   .     A
C470   C473    1.441   .     S
C470   O504    1.292   .     A
C471   H487    1.084   .     S
C471   C473    1.396   .     A
C471   C481    1.393   .     A
C472   C482    1.393   .     A
C472   H488    1.084   .     S
C472   C474    1.396   .     A
C473   C475    1.396   .     A
C474   C476    1.396   .     A
C475   C477    1.394   .     A
C475   H489    1.083   .     S
C476   H490    1.083   .     S
C476   C478    1.394   .     A
C477   C483    1.401   .     A
C477   C479    1.412   .     A
C478   C480    1.412   .     A
C478   C484    1.401   .     A
C479   C481    1.413   .     A
C479   C414    1.401   1_655 S
C480   C482    1.413   .     A
C483   H491    1.080   .     S
C483   C399    1.394   1_655 S
C484   H492    1.080   .     S
Cu485  Cu486   2.686   .     S
Cu485  O499    1.971   .     S
Cu485  O503    1.957   .     S
Cu485  N498    2.018   .     S
Cu485  O502    1.961   .     S
Cu485  O506    1.947   .     S
Cu486  O500    1.971   .     S
Cu486  N497    2.018   .     S
Cu486  O501    1.961   .     S
Cu486  O504    1.957   .     S
Cu486  O505    1.947   .     S
H495   N893    1.029   .     S
N498   N893    1.304   .     S
N498   H892    1.029   .     S
C507   C508    1.403   .     A
C507   C512    1.404   .     A
C507   C599    1.488   .     S
C508   C509    1.398   .     A
C508   H645    1.082   .     S
C509   H514    1.080   .     S
C509   C510    1.396   .     A
C511   H516    1.079   .     S
C511   C906    1.396   .     S
C511   C908    1.399   .     S
C512   H517    1.082   .     S
H513   C772    1.082   1_545 S
H515   C906    1.083   .     S
C518   C519    1.404   .     A
C518   C523    1.403   .     A
C518   C732    1.488   1_545 S
C519   H524    1.082   .     S
C519   C916    1.399   .     S
C520   H525    1.079   .     S
C521   C522    1.396   .     A
C521   C916    1.396   .     S
C521   H922    1.083   .     S
C522   H527    1.080   .     S
C522   C523    1.398   .     A
C523   H792    1.082   1_545 S
H528   C655    1.082   .     S
C529   O565    1.285   .     A
C529   C533    1.425   .     S
C529   O567    1.288   .     A
C530   O566    1.285   .     A
C530   C534    1.425   .     S
C530   O568    1.288   .     A
C531   C548    1.400   .     A
C531   H559    1.084   .     S
C531   C615    1.394   1_455 S
C532   H560    1.084   .     S
C532   C547    1.400   .     A
C532   C616    1.394   .     S
C534   C665    1.350   .     S
C534   C716    1.488   .     S
C535   C540    1.441   .     S
C535   O569    1.292   .     A
C535   O571    1.292   .     A
C536   O572    1.292   .     A
C536   C539    1.441   .     S
C536   O570    1.292   .     A
C537   H553    1.084   .     S
C537   C539    1.396   .     A
C537   C547    1.393   .     A
C538   C548    1.393   .     A
C538   H554    1.084   .     S
C538   C540    1.396   .     A
C539   C541    1.396   .     A
C540   C542    1.396   .     A
C541   C543    1.394   .     A
C541   H555    1.083   .     S
C542   H556    1.083   .     S
C542   C544    1.394   .     A
C543   C549    1.401   .     A
C543   C545    1.412   .     A
C544   C546    1.412   .     A
C544   C550    1.401   .     A
C545   C547    1.413   .     A
C545   C612    1.401   .     S
C546   C548    1.413   .     A
C546   C611    1.401   1_455 S
C549   H557    1.080   .     S
C549   C597    1.394   .     S
C550   H558    1.080   .     S
C550   C598    1.394   1_455 S
Cu551  Cu552   2.686   .     S
Cu551  O565    1.971   .     S
Cu551  O569    1.957   .     S
Cu551  N564    2.018   .     S
Cu551  O568    1.961   .     S
Cu551  O572    1.947   .     S
Cu552  O566    1.971   .     S
Cu552  N563    2.018   .     S
Cu552  O567    1.961   .     S
Cu552  O570    1.957   .     S
Cu552  O571    1.947   .     S
H561   N959    1.029   .     S
N564   N959    1.304   .     S
N564   H958    1.029   .     S
C573   C574    1.403   .     A
C573   C578    1.404   .     A
C573   C665    1.488   .     S
C574   C575    1.398   .     A
C574   H711    1.082   .     S
C575   H580    1.080   .     S
C575   C576    1.396   .     A
C577   H582    1.079   .     S
C577   C972    1.396   .     S
C577   C974    1.399   .     S
C578   H583    1.082   .     S
H581   C972    1.083   .     S
C584   C585    1.404   .     A
C584   C589    1.403   .     A
C585   H590    1.082   .     S
C585   C982    1.399   .     S
C586   H591    1.079   .     S
C587   C588    1.396   .     A
C587   C982    1.396   .     S
C587   H988    1.083   .     S
C588   H593    1.080   .     S
C588   C589    1.398   .     A
H594   C721    1.082   .     S
C595   O631    1.285   .     A
C595   C599    1.425   .     S
C595   O633    1.288   .     A
C596   O632    1.285   .     A
C596   C600    1.425   .     S
C596   O634    1.288   .     A
C597   C614    1.400   .     A
C597   H625    1.084   .     S
C598   H626    1.084   .     S
C598   C613    1.400   .     A
C598   C550    1.394   1_655 S
C600   C731    1.350   .     S
C600   C782    1.488   .     S
C601   C606    1.441   .     S
C601   O635    1.292   .     A
C601   O637    1.292   .     A
C602   O638    1.292   .     A
C602   C605    1.441   .     S
C602   O636    1.292   .     A
C603   H619    1.084   .     S
C603   C605    1.396   .     A
C603   C613    1.393   .     A
C604   C614    1.393   .     A
C604   H620    1.084   .     S
C604   C606    1.396   .     A
C605   C607    1.396   .     A
C606   C608    1.396   .     A
C607   C609    1.394   .     A
C607   H621    1.083   .     S
C608   H622    1.083   .     S
C608   C610    1.394   .     A
C609   C615    1.401   .     A
C609   C611    1.412   .     A
C610   C612    1.412   .     A
C610   C616    1.401   .     A
C611   C613    1.413   .     A
C611   C546    1.401   1_655 S
C612   C614    1.413   .     A
C615   H623    1.080   .     S
C615   C531    1.394   1_655 S
C616   H624    1.080   .     S
Cu617  Cu618   2.686   .     S
Cu617  O631    1.971   .     S
Cu617  O635    1.957   .     S
Cu617  N630    2.018   .     S
Cu617  O634    1.961   .     S
Cu617  O638    1.947   .     S
Cu618  O632    1.971   .     S
Cu618  N629    2.018   .     S
Cu618  O633    1.961   .     S
Cu618  O636    1.957   .     S
Cu618  O637    1.947   .     S
H627   N1025   1.029   .     S
N630   N1025   1.304   .     S
N630   H1024   1.029   .     S
C639   C640    1.403   .     A
C639   C644    1.404   .     A
C639   C731    1.488   .     S
C640   C641    1.398   .     A
C640   H777    1.082   .     S
C641   H646    1.080   .     S
C641   C642    1.396   .     A
C643   H648    1.079   .     S
C643   C1038   1.396   .     S
C643   C1040   1.399   .     S
C644   H649    1.082   .     S
H647   C1038   1.083   .     S
C650   C651    1.404   .     A
C650   C655    1.403   .     A
C651   H656    1.082   .     S
C651   C1048   1.399   .     S
C652   H657    1.079   .     S
C653   C654    1.396   .     A
C653   C1048   1.396   .     S
C653   H1054   1.083   .     S
C654   H659    1.080   .     S
C654   C655    1.398   .     A
H660   C787    1.082   .     S
C661   O697    1.285   .     A
C661   C665    1.425   .     S
C661   O699    1.288   .     A
C662   O698    1.285   .     A
C662   C666    1.425   .     S
C662   O700    1.288   .     A
C663   C680    1.400   .     A
C663   H691    1.084   .     S
C663   C747    1.394   1_455 S
C664   H692    1.084   .     S
C664   C679    1.400   .     A
C664   C748    1.394   .     S
C666   C401    1.350   1_565 S
C666   C452    1.488   1_565 S
C667   C672    1.441   .     S
C667   O701    1.292   .     A
C667   O703    1.292   .     A
C668   O704    1.292   .     A
C668   C671    1.441   .     S
C668   O702    1.292   .     A
C669   H685    1.084   .     S
C669   C671    1.396   .     A
C669   C679    1.393   .     A
C670   C680    1.393   .     A
C670   H686    1.084   .     S
C670   C672    1.396   .     A
C671   C673    1.396   .     A
C672   C674    1.396   .     A
C673   C675    1.394   .     A
C673   H687    1.083   .     S
C674   H688    1.083   .     S
C674   C676    1.394   .     A
C675   C681    1.401   .     A
C675   C677    1.412   .     A
C676   C678    1.412   .     A
C676   C682    1.401   .     A
C677   C679    1.413   .     A
C677   C744    1.401   .     S
C678   C680    1.413   .     A
C678   C743    1.401   1_455 S
C681   H689    1.080   .     S
C681   C729    1.394   .     S
C682   H690    1.080   .     S
C682   C730    1.394   1_455 S
Cu683  Cu684   2.686   .     S
Cu683  O697    1.971   .     S
Cu683  O701    1.957   .     S
Cu683  N696    2.018   .     S
Cu683  O700    1.961   .     S
Cu683  O704    1.947   .     S
Cu684  O698    1.971   .     S
Cu684  N695    2.018   .     S
Cu684  O699    1.961   .     S
Cu684  O702    1.957   .     S
Cu684  O703    1.947   .     S
H693   N1091   1.029   .     S
N696   N1091   1.304   .     S
N696   H1090   1.029   .     S
C705   C706    1.403   .     A
C705   C710    1.404   .     A
C705   C401    1.488   1_565 S
C706   C707    1.398   .     A
C706   H447    1.082   1_565 S
C707   H712    1.080   .     S
C707   C708    1.396   .     A
C709   H714    1.079   .     S
C709   C1104   1.396   .     S
C709   C1106   1.399   .     S
C710   H715    1.082   .     S
H713   C1104   1.083   .     S
C716   C717    1.404   .     A
C716   C721    1.403   .     A
C717   H722    1.082   .     S
C717   C1114   1.399   .     S
C718   H723    1.079   .     S
C719   C720    1.396   .     A
C719   C1114   1.396   .     S
C719   H1120   1.083   .     S
C720   H725    1.080   .     S
C720   C721    1.398   .     A
H726   C457    1.082   1_565 S
C727   O763    1.285   .     A
C727   C731    1.425   .     S
C727   O765    1.288   .     A
C728   O764    1.285   .     A
C728   C732    1.425   .     S
C728   O766    1.288   .     A
C729   C746    1.400   .     A
C729   H757    1.084   .     S
C730   H758    1.084   .     S
C730   C745    1.400   .     A
C730   C682    1.394   1_655 S
C732   C467    1.350   1_565 S
C732   C518    1.488   1_565 S
C733   C738    1.441   .     S
C733   O767    1.292   .     A
C733   O769    1.292   .     A
C734   O770    1.292   .     A
C734   C737    1.441   .     S
C734   O768    1.292   .     A
C735   H751    1.084   .     S
C735   C737    1.396   .     A
C735   C745    1.393   .     A
C736   C746    1.393   .     A
C736   H752    1.084   .     S
C736   C738    1.396   .     A
C737   C739    1.396   .     A
C738   C740    1.396   .     A
C739   C741    1.394   .     A
C739   H753    1.083   .     S
C740   H754    1.083   .     S
C740   C742    1.394   .     A
C741   C747    1.401   .     A
C741   C743    1.412   .     A
C742   C744    1.412   .     A
C742   C748    1.401   .     A
C743   C745    1.413   .     A
C743   C678    1.401   1_655 S
C744   C746    1.413   .     A
C747   H755    1.080   .     S
C747   C663    1.394   1_655 S
C748   H756    1.080   .     S
Cu749  Cu750   2.686   .     S
Cu749  O763    1.971   .     S
Cu749  O767    1.957   .     S
Cu749  N762    2.018   .     S
Cu749  O766    1.961   .     S
Cu749  O770    1.947   .     S
Cu750  O764    1.971   .     S
Cu750  N761    2.018   .     S
Cu750  O765    1.961   .     S
Cu750  O768    1.957   .     S
Cu750  O769    1.947   .     S
H759   N1157   1.029   .     S
N762   N1157   1.304   .     S
N762   H1156   1.029   .     S
C771   C772    1.403   .     A
C771   C776    1.404   .     A
C771   C467    1.488   1_565 S
C772   C773    1.398   .     A
C772   H513    1.082   1_565 S
C773   H778    1.080   .     S
C773   C774    1.396   .     A
C775   H780    1.079   .     S
C775   C1170   1.396   .     S
C775   C1172   1.399   .     S
C776   H781    1.082   .     S
H779   C1170   1.083   .     S
C782   C783    1.404   .     A
C782   C787    1.403   .     A
C783   H788    1.082   .     S
C783   C1180   1.399   .     S
C784   H789    1.079   .     S
C785   C786    1.396   .     A
C785   C1180   1.396   .     S
C785   H1186   1.083   .     S
C786   H791    1.080   .     S
C786   C787    1.398   .     A
H792   C523    1.082   1_565 S
C793   O829    1.285   .     A
C793   C797    1.425   .     S
C793   O831    1.288   .     A
C794   O830    1.285   .     A
C794   C798    1.425   .     S
C794   O832    1.288   .     A
C795   C812    1.400   .     A
C795   H823    1.084   .     S
C795   C879    1.394   1_455 S
C796   H824    1.084   .     S
C796   C811    1.400   .     A
C796   C880    1.394   .     S
C797   C1062   1.350   1_545 S
C797   C1101   1.488   1_545 S
C798   C929    1.350   .     S
C798   C980    1.488   .     S
C799   C804    1.441   .     S
C799   O833    1.292   .     A
C799   O835    1.292   .     A
C800   O836    1.292   .     A
C800   C803    1.441   .     S
C800   O834    1.292   .     A
C801   H817    1.084   .     S
C801   C803    1.396   .     A
C801   C811    1.393   .     A
C802   C812    1.393   .     A
C802   H818    1.084   .     S
C802   C804    1.396   .     A
C803   C805    1.396   .     A
C804   C806    1.396   .     A
C805   C807    1.394   .     A
C805   H819    1.083   .     S
C806   H820    1.083   .     S
C806   C808    1.394   .     A
C807   C813    1.401   .     A
C807   C809    1.412   .     A
C808   C810    1.412   .     A
C808   C814    1.401   .     A
C809   C811    1.413   .     A
C809   C876    1.401   .     S
C810   C812    1.413   .     A
C810   C875    1.401   1_455 S
C813   H821    1.080   .     S
C813   C861    1.394   .     S
C814   H822    1.080   .     S
C814   C862    1.394   1_455 S
Cu815  Cu816   2.686   .     S
Cu815  O829    1.971   .     S
Cu815  O833    1.957   .     S
Cu815  N828    2.018   .     S
Cu815  O832    1.961   .     S
Cu815  O836    1.947   .     S
Cu816  O830    1.971   .     S
Cu816  N827    2.018   .     S
Cu816  O831    1.961   .     S
Cu816  O834    1.957   .     S
Cu816  O835    1.947   .     S
H825   N35     1.029   1_556 S
N828   N35     1.304   1_556 S
N828   H34     1.029   1_556 S
C837   C838    1.403   .     A
C837   C842    1.404   .     A
C837   C929    1.488   .     S
C838   C839    1.398   .     A
C838   H975    1.082   .     S
C839   H844    1.080   .     S
C839   C840    1.396   .     A
C841   H846    1.079   .     S
C841   C48     1.396   1_556 S
C841   C50     1.399   1_556 S
C842   H847    1.082   .     S
H843   C1102   1.082   1_545 S
H845   C48     1.083   1_556 S
C848   C849    1.404   .     A
C848   C853    1.403   .     A
C848   C1062   1.488   1_545 S
C849   H854    1.082   .     S
C849   C58     1.399   1_556 S
C850   H855    1.079   .     S
C851   C852    1.396   .     A
C851   C58     1.396   1_556 S
C851   H64     1.083   1_556 S
C852   H857    1.080   .     S
C852   C853    1.398   .     A
C853   H1122   1.082   1_545 S
H858   C985    1.082   .     S
C859   O895    1.285   .     A
C859   C863    1.425   .     S
C859   O897    1.288   .     A
C860   O896    1.285   .     A
C860   C864    1.425   .     S
C860   O898    1.288   .     A
C861   C878    1.400   .     A
C861   H889    1.084   .     S
C862   H890    1.084   .     S
C862   C877    1.400   .     A
C862   C814    1.394   1_655 S
C863   C1128   1.350   1_545 S
C863   C1167   1.488   1_545 S
C864   C995    1.350   .     S
C864   C1046   1.488   .     S
C865   C870    1.441   .     S
C865   O899    1.292   .     A
C865   O901    1.292   .     A
C866   O902    1.292   .     A
C866   C869    1.441   .     S
C866   O900    1.292   .     A
C867   H883    1.084   .     S
C867   C869    1.396   .     A
C867   C877    1.393   .     A
C868   C878    1.393   .     A
C868   H884    1.084   .     S
C868   C870    1.396   .     A
C869   C871    1.396   .     A
C870   C872    1.396   .     A
C871   C873    1.394   .     A
C871   H885    1.083   .     S
C872   H886    1.083   .     S
C872   C874    1.394   .     A
C873   C879    1.401   .     A
C873   C875    1.412   .     A
C874   C876    1.412   .     A
C874   C880    1.401   .     A
C875   C877    1.413   .     A
C875   C810    1.401   1_655 S
C876   C878    1.413   .     A
C879   H887    1.080   .     S
C879   C795    1.394   1_655 S
C880   H888    1.080   .     S
Cu881  Cu882   2.686   .     S
Cu881  O895    1.971   .     S
Cu881  O899    1.957   .     S
Cu881  N894    2.018   .     S
Cu881  O898    1.961   .     S
Cu881  O902    1.947   .     S
Cu882  O896    1.971   .     S
Cu882  N893    2.018   .     S
Cu882  O897    1.961   .     S
Cu882  O900    1.957   .     S
Cu882  O901    1.947   .     S
H891   N101    1.029   1_556 S
N894   N101    1.304   1_556 S
N894   H100    1.029   1_556 S
C903   C904    1.403   .     A
C903   C908    1.404   .     A
C903   C995    1.488   .     S
C904   C905    1.398   .     A
C904   H1041   1.082   .     S
C905   H910    1.080   .     S
C905   C906    1.396   .     A
C907   H912    1.079   .     S
C907   C114    1.396   1_556 S
C907   C116    1.399   1_556 S
C908   H913    1.082   .     S
H909   C1168   1.082   1_545 S
H911   C114    1.083   1_556 S
C914   C915    1.404   .     A
C914   C919    1.403   .     A
C914   C1128   1.488   1_545 S
C915   H920    1.082   .     S
C915   C124    1.399   1_556 S
C916   H921    1.079   .     S
C917   C918    1.396   .     A
C917   C124    1.396   1_556 S
C917   H130    1.083   1_556 S
C918   H923    1.080   .     S
C918   C919    1.398   .     A
C919   H1188   1.082   1_545 S
H924   C1051   1.082   .     S
C925   O961    1.285   .     A
C925   C929    1.425   .     S
C925   O963    1.288   .     A
C926   O962    1.285   .     A
C926   C930    1.425   .     S
C926   O964    1.288   .     A
C927   C944    1.400   .     A
C927   H955    1.084   .     S
C927   C1011   1.394   1_455 S
C928   H956    1.084   .     S
C928   C943    1.400   .     A
C928   C1012   1.394   .     S
C930   C1061   1.350   .     S
C930   C1112   1.488   .     S
C931   C936    1.441   .     S
C931   O965    1.292   .     A
C931   O967    1.292   .     A
C932   O968    1.292   .     A
C932   C935    1.441   .     S
C932   O966    1.292   .     A
C933   H949    1.084   .     S
C933   C935    1.396   .     A
C933   C943    1.393   .     A
C934   C944    1.393   .     A
C934   H950    1.084   .     S
C934   C936    1.396   .     A
C935   C937    1.396   .     A
C936   C938    1.396   .     A
C937   C939    1.394   .     A
C937   H951    1.083   .     S
C938   H952    1.083   .     S
C938   C940    1.394   .     A
C939   C945    1.401   .     A
C939   C941    1.412   .     A
C940   C942    1.412   .     A
C940   C946    1.401   .     A
C941   C943    1.413   .     A
C941   C1008   1.401   .     S
C942   C944    1.413   .     A
C942   C1007   1.401   1_455 S
C945   H953    1.080   .     S
C945   C993    1.394   .     S
C946   H954    1.080   .     S
C946   C994    1.394   1_455 S
Cu947  Cu948   2.686   .     S
Cu947  O961    1.971   .     S
Cu947  O965    1.957   .     S
Cu947  N960    2.018   .     S
Cu947  O964    1.961   .     S
Cu947  O968    1.947   .     S
Cu948  O962    1.971   .     S
Cu948  N959    2.018   .     S
Cu948  O963    1.961   .     S
Cu948  O966    1.957   .     S
Cu948  O967    1.947   .     S
H957   N167    1.029   1_556 S
N960   N167    1.304   1_556 S
N960   H166    1.029   1_556 S
C969   C970    1.403   .     A
C969   C974    1.404   .     A
C969   C1061   1.488   .     S
C970   C971    1.398   .     A
C970   H1107   1.082   .     S
C971   H976    1.080   .     S
C971   C972    1.396   .     A
C973   H978    1.079   .     S
C973   C180    1.396   1_556 S
C973   C182    1.399   1_556 S
C974   H979    1.082   .     S
H977   C180    1.083   1_556 S
C980   C981    1.404   .     A
C980   C985    1.403   .     A
C981   H986    1.082   .     S
C981   C190    1.399   1_556 S
C982   H987    1.079   .     S
C983   C984    1.396   .     A
C983   C190    1.396   1_556 S
C983   H196    1.083   1_556 S
C984   H989    1.080   .     S
C984   C985    1.398   .     A
H990   C1117   1.082   .     S
C991   O1027   1.285   .     A
C991   C995    1.425   .     S
C991   O1029   1.288   .     A
C992   O1028   1.285   .     A
C992   C996    1.425   .     S
C992   O1030   1.288   .     A
C993   C1010   1.400   .     A
C993   H1021   1.084   .     S
C994   H1022   1.084   .     S
C994   C1009   1.400   .     A
C994   C946    1.394   1_655 S
C996   C1127   1.350   .     S
C996   C1178   1.488   .     S
C997   C1002   1.441   .     S
C997   O1031   1.292   .     A
C997   O1033   1.292   .     A
C998   O1034   1.292   .     A
C998   C1001   1.441   .     S
C998   O1032   1.292   .     A
C999   H1015   1.084   .     S
C999   C1001   1.396   .     A
C999   C1009   1.393   .     A
C1000  C1010   1.393   .     A
C1000  H1016   1.084   .     S
C1000  C1002   1.396   .     A
C1001  C1003   1.396   .     A
C1002  C1004   1.396   .     A
C1003  C1005   1.394   .     A
C1003  H1017   1.083   .     S
C1004  H1018   1.083   .     S
C1004  C1006   1.394   .     A
C1005  C1011   1.401   .     A
C1005  C1007   1.412   .     A
C1006  C1008   1.412   .     A
C1006  C1012   1.401   .     A
C1007  C1009   1.413   .     A
C1007  C942    1.401   1_655 S
C1008  C1010   1.413   .     A
C1011  H1019   1.080   .     S
C1011  C927    1.394   1_655 S
C1012  H1020   1.080   .     S
Cu1013 Cu1014  2.686   .     S
Cu1013 O1027   1.971   .     S
Cu1013 O1031   1.957   .     S
Cu1013 N1026   2.018   .     S
Cu1013 O1030   1.961   .     S
Cu1013 O1034   1.947   .     S
Cu1014 O1028   1.971   .     S
Cu1014 N1025   2.018   .     S
Cu1014 O1029   1.961   .     S
Cu1014 O1032   1.957   .     S
Cu1014 O1033   1.947   .     S
H1023  N233    1.029   1_556 S
N1026  N233    1.304   1_556 S
N1026  H232    1.029   1_556 S
C1035  C1036   1.403   .     A
C1035  C1040   1.404   .     A
C1035  C1127   1.488   .     S
C1036  C1037   1.398   .     A
C1036  H1173   1.082   .     S
C1037  H1042   1.080   .     S
C1037  C1038   1.396   .     A
C1039  H1044   1.079   .     S
C1039  C246    1.396   1_556 S
C1039  C248    1.399   1_556 S
C1040  H1045   1.082   .     S
H1043  C246    1.083   1_556 S
C1046  C1047   1.404   .     A
C1046  C1051   1.403   .     A
C1047  H1052   1.082   .     S
C1047  C256    1.399   1_556 S
C1048  H1053   1.079   .     S
C1049  C1050   1.396   .     A
C1049  C256    1.396   1_556 S
C1049  H262    1.083   1_556 S
C1050  H1055   1.080   .     S
C1050  C1051   1.398   .     A
H1056  C1183   1.082   .     S
C1057  O1093   1.285   .     A
C1057  C1061   1.425   .     S
C1057  O1095   1.288   .     A
C1058  O1094   1.285   .     A
C1058  C1062   1.425   .     S
C1058  O1096   1.288   .     A
C1059  C1076   1.400   .     A
C1059  H1087   1.084   .     S
C1059  C1143   1.394   1_455 S
C1060  H1088   1.084   .     S
C1060  C1075   1.400   .     A
C1060  C1144   1.394   .     S
C1062  C797    1.350   1_565 S
C1062  C848    1.488   1_565 S
C1063  C1068   1.441   .     S
C1063  O1097   1.292   .     A
C1063  O1099   1.292   .     A
C1064  O1100   1.292   .     A
C1064  C1067   1.441   .     S
C1064  O1098   1.292   .     A
C1065  H1081   1.084   .     S
C1065  C1067   1.396   .     A
C1065  C1075   1.393   .     A
C1066  C1076   1.393   .     A
C1066  H1082   1.084   .     S
C1066  C1068   1.396   .     A
C1067  C1069   1.396   .     A
C1068  C1070   1.396   .     A
C1069  C1071   1.394   .     A
C1069  H1083   1.083   .     S
C1070  H1084   1.083   .     S
C1070  C1072   1.394   .     A
C1071  C1077   1.401   .     A
C1071  C1073   1.412   .     A
C1072  C1074   1.412   .     A
C1072  C1078   1.401   .     A
C1073  C1075   1.413   .     A
C1073  C1140   1.401   .     S
C1074  C1076   1.413   .     A
C1074  C1139   1.401   1_455 S
C1077  H1085   1.080   .     S
C1077  C1125   1.394   .     S
C1078  H1086   1.080   .     S
C1078  C1126   1.394   1_455 S
Cu1079 Cu1080  2.686   .     S
Cu1079 O1093   1.971   .     S
Cu1079 O1097   1.957   .     S
Cu1079 N1092   2.018   .     S
Cu1079 O1096   1.961   .     S
Cu1079 O1100   1.947   .     S
Cu1080 O1094   1.971   .     S
Cu1080 N1091   2.018   .     S
Cu1080 O1095   1.961   .     S
Cu1080 O1098   1.957   .     S
Cu1080 O1099   1.947   .     S
H1089  N299    1.029   1_556 S
N1092  N299    1.304   1_556 S
N1092  H298    1.029   1_556 S
C1101  C1102   1.403   .     A
C1101  C1106   1.404   .     A
C1101  C797    1.488   1_565 S
C1102  C1103   1.398   .     A
C1102  H843    1.082   1_565 S
C1103  H1108   1.080   .     S
C1103  C1104   1.396   .     A
C1105  H1110   1.079   .     S
C1105  C312    1.396   1_556 S
C1105  C314    1.399   1_556 S
C1106  H1111   1.082   .     S
H1109  C312    1.083   1_556 S
C1112  C1113   1.404   .     A
C1112  C1117   1.403   .     A
C1113  H1118   1.082   .     S
C1113  C322    1.399   1_556 S
C1114  H1119   1.079   .     S
C1115  C1116   1.396   .     A
C1115  C322    1.396   1_556 S
C1115  H328    1.083   1_556 S
C1116  H1121   1.080   .     S
C1116  C1117   1.398   .     A
H1122  C853    1.082   1_565 S
C1123  O1159   1.285   .     A
C1123  C1127   1.425   .     S
C1123  O1161   1.288   .     A
C1124  O1160   1.285   .     A
C1124  C1128   1.425   .     S
C1124  O1162   1.288   .     A
C1125  C1142   1.400   .     A
C1125  H1153   1.084   .     S
C1126  H1154   1.084   .     S
C1126  C1141   1.400   .     A
C1126  C1078   1.394   1_655 S
C1128  C863    1.350   1_565 S
C1128  C914    1.488   1_565 S
C1129  C1134   1.441   .     S
C1129  O1163   1.292   .     A
C1129  O1165   1.292   .     A
C1130  O1166   1.292   .     A
C1130  C1133   1.441   .     S
C1130  O1164   1.292   .     A
C1131  H1147   1.084   .     S
C1131  C1133   1.396   .     A
C1131  C1141   1.393   .     A
C1132  C1142   1.393   .     A
C1132  H1148   1.084   .     S
C1132  C1134   1.396   .     A
C1133  C1135   1.396   .     A
C1134  C1136   1.396   .     A
C1135  C1137   1.394   .     A
C1135  H1149   1.083   .     S
C1136  H1150   1.083   .     S
C1136  C1138   1.394   .     A
C1137  C1143   1.401   .     A
C1137  C1139   1.412   .     A
C1138  C1140   1.412   .     A
C1138  C1144   1.401   .     A
C1139  C1141   1.413   .     A
C1139  C1074   1.401   1_655 S
C1140  C1142   1.413   .     A
C1143  H1151   1.080   .     S
C1143  C1059   1.394   1_655 S
C1144  H1152   1.080   .     S
Cu1145 Cu1146  2.686   .     S
Cu1145 O1159   1.971   .     S
Cu1145 O1163   1.957   .     S
Cu1145 N1158   2.018   .     S
Cu1145 O1162   1.961   .     S
Cu1145 O1166   1.947   .     S
Cu1146 O1160   1.971   .     S
Cu1146 N1157   2.018   .     S
Cu1146 O1161   1.961   .     S
Cu1146 O1164   1.957   .     S
Cu1146 O1165   1.947   .     S
H1155  N365    1.029   1_556 S
N1158  N365    1.304   1_556 S
N1158  H364    1.029   1_556 S
C1167  C1168   1.403   .     A
C1167  C1172   1.404   .     A
C1167  C863    1.488   1_565 S
C1168  C1169   1.398   .     A
C1168  H909    1.082   1_565 S
C1169  H1174   1.080   .     S
C1169  C1170   1.396   .     A
C1171  H1176   1.079   .     S
C1171  C378    1.396   1_556 S
C1171  C380    1.399   1_556 S
C1172  H1177   1.082   .     S
H1175  C378    1.083   1_556 S
C1178  C1179   1.404   .     A
C1178  C1183   1.403   .     A
C1179  H1184   1.082   .     S
C1179  C388    1.399   1_556 S
C1180  H1185   1.079   .     S
C1181  C1182   1.396   .     A
C1181  C388    1.396   1_556 S
C1181  H394    1.083   1_556 S
C1182  H1187   1.080   .     S
C1182  C1183   1.398   .     A
H1188  C919    1.082   1_565 S
