data_str_m2_o10_o16_pcu_sym.131
_audit_creation_date              2020-01-03
_audit_creation_method            'Materials Studio'
_symmetry_space_group_name_H-M    'P1'
_symmetry_Int_Tables_number       1
_symmetry_cell_setting            triclinic
loop_
_symmetry_equiv_pos_as_xyz
  x,y,z
_cell_length_a                    22.2925
_cell_length_b                    26.0832
_cell_length_c                    26.7797
_cell_angle_alpha                 94.0214
_cell_angle_beta                  77.3416
_cell_angle_gamma                 103.1291
loop_
_atom_site_label
_atom_site_type_symbol
_atom_site_fract_x
_atom_site_fract_y
_atom_site_fract_z
_atom_site_U_iso_or_equiv
_atom_site_adp_type
_atom_site_occupancy
C1     C     0.18176   0.26673   0.25153   0.00000  Uiso   1.00
C2     C     0.13878   0.17123   0.48816   0.00000  Uiso   1.00
C3     C     0.15521   0.18585   0.43608   0.00000  Uiso   1.00
C4     C     0.18609   0.18298   0.01803   0.00000  Uiso   1.00
C5     C     0.24486   0.21700   0.49824   0.00000  Uiso   1.00
C6     C     0.25702   0.23661   0.44914   0.00000  Uiso   1.00
C7     C     0.21313   0.22119   0.41843   0.00000  Uiso   1.00
C8     C     0.17769   0.16146   0.06654   0.00000  Uiso   1.00
C9     C     0.27857   0.21446   0.07800   0.00000  Uiso   1.00
C10    C     0.11234   0.16589   0.40350   0.00000  Uiso   1.00
C11    C     0.19027   0.32268   0.25230   0.00000  Uiso   1.00
C12    C     0.13315   0.16605   0.34727   0.00000  Uiso   1.00
C13    C     0.14303   0.01065   0.24778   0.00000  Uiso   1.00
C14    C     0.15156   0.06660   0.24851   0.00000  Uiso   1.00
C15    C     0.20063   0.17048   0.15289   0.00000  Uiso   1.00
C16    C     0.29076   0.23173   0.02803   0.00000  Uiso   1.00
C17    C     0.22123   0.18017   0.09783   0.00000  Uiso   1.00
C18    C     0.05025   0.14081   0.42495   0.00000  Uiso   1.00
C19    C     0.03144   0.13341   0.47737   0.00000  Uiso   1.00
C20    C     0.07503   0.14785   0.00871   0.00000  Uiso   1.00
Cu21   Cu    0.10710   0.16105   0.24436   0.00000  Uiso   1.00
Cu22   Cu    0.22623   0.17228   0.25564   0.00000  Uiso   1.00
H23    H     0.00361   0.20589   0.28969   0.00000  Uiso   1.00
H24    H     0.32970   0.12743   0.21033   0.00000  Uiso   1.00
H25    H     0.30103   0.26371   0.43414   0.00000  Uiso   1.00
H26    H     0.00209   0.25803   0.01312   0.00000  Uiso   1.00
H27    H     0.01627   0.12630   0.40109   0.00000  Uiso   1.00
H28    H     0.05682   0.14273   0.04921   0.00000  Uiso   1.00
H29    H     0.31625   0.11546   0.49378   0.00000  Uiso   1.00
H30    H     0.22435   0.23918   0.38144   0.00000  Uiso   1.00
H31    H     0.23580   0.01313   0.25657   0.00000  Uiso   1.00
N32    N     0.31574   0.18074   0.26416   0.00000  Uiso   1.00
N33    N     0.01759   0.15259   0.23584   0.00000  Uiso   1.00
O34    O     0.12797   0.23807   0.24633   0.00000  Uiso   1.00
O35    O     0.22858   0.24755   0.25586   0.00000  Uiso   1.00
O36    O     0.09181   0.15960   0.31840   0.00000  Uiso   1.00
O37    O     0.19242   0.16908   0.32793   0.00000  Uiso   1.00
O38    O     0.10476   0.08578   0.24414   0.00000  Uiso   1.00
O39    O     0.20536   0.09526   0.25367   0.00000  Uiso   1.00
O40    O     0.14092   0.16425   0.17207   0.00000  Uiso   1.00
O41    O     0.24152   0.17373   0.18160   0.00000  Uiso   1.00
F42    F     0.32173   0.23288   0.10735   0.00000  Uiso   1.00
H43    H     0.09750   0.32019   0.24352   0.00000  Uiso   1.00
F44    F     0.12945   0.12019   0.08322   0.00000  Uiso   1.00
C45    C     0.51510   0.26673   0.25153   0.00000  Uiso   1.00
C46    C     0.47212   0.17123   0.48816   0.00000  Uiso   1.00
C47    C     0.48854   0.18585   0.43608   0.00000  Uiso   1.00
C48    C     0.51943   0.18298   0.01803   0.00000  Uiso   1.00
C49    C     0.57819   0.21700   0.49824   0.00000  Uiso   1.00
C50    C     0.59036   0.23661   0.44914   0.00000  Uiso   1.00
C51    C     0.54646   0.22119   0.41843   0.00000  Uiso   1.00
C52    C     0.51102   0.16146   0.06654   0.00000  Uiso   1.00
C53    C     0.61190   0.21446   0.07800   0.00000  Uiso   1.00
C54    C     0.44567   0.16589   0.40350   0.00000  Uiso   1.00
C55    C     0.52360   0.32268   0.25230   0.00000  Uiso   1.00
C56    C     0.46648   0.16605   0.34727   0.00000  Uiso   1.00
C57    C     0.47637   0.01065   0.24778   0.00000  Uiso   1.00
C58    C     0.48489   0.06660   0.24851   0.00000  Uiso   1.00
C59    C     0.53397   0.17048   0.15289   0.00000  Uiso   1.00
C60    C     0.62409   0.23173   0.02803   0.00000  Uiso   1.00
C61    C     0.55457   0.18017   0.09783   0.00000  Uiso   1.00
C62    C     0.38359   0.14081   0.42495   0.00000  Uiso   1.00
C63    C     0.36477   0.13341   0.47737   0.00000  Uiso   1.00
C64    C     0.40837   0.14785   0.00871   0.00000  Uiso   1.00
Cu65   Cu    0.44043   0.16105   0.24436   0.00000  Uiso   1.00
Cu66   Cu    0.55957   0.17228   0.25564   0.00000  Uiso   1.00
H67    H     0.33695   0.20589   0.28969   0.00000  Uiso   1.00
H68    H     0.66303   0.12743   0.21033   0.00000  Uiso   1.00
H69    H     0.63437   0.26371   0.43414   0.00000  Uiso   1.00
H70    H     0.33542   0.25803   0.01312   0.00000  Uiso   1.00
H71    H     0.34960   0.12630   0.40109   0.00000  Uiso   1.00
H72    H     0.39015   0.14273   0.04921   0.00000  Uiso   1.00
H73    H     0.64958   0.11546   0.49378   0.00000  Uiso   1.00
H74    H     0.55769   0.23918   0.38144   0.00000  Uiso   1.00
H75    H     0.56913   0.01313   0.25657   0.00000  Uiso   1.00
N76    N     0.64908   0.18074   0.26416   0.00000  Uiso   1.00
N77    N     0.35092   0.15259   0.23584   0.00000  Uiso   1.00
O78    O     0.46131   0.23807   0.24633   0.00000  Uiso   1.00
O79    O     0.56191   0.24755   0.25586   0.00000  Uiso   1.00
O80    O     0.42515   0.15960   0.31840   0.00000  Uiso   1.00
O81    O     0.52575   0.16908   0.32793   0.00000  Uiso   1.00
O82    O     0.43809   0.08578   0.24414   0.00000  Uiso   1.00
O83    O     0.53869   0.09526   0.25367   0.00000  Uiso   1.00
O84    O     0.47425   0.16425   0.17207   0.00000  Uiso   1.00
O85    O     0.57485   0.17373   0.18160   0.00000  Uiso   1.00
F86    F     0.65506   0.23288   0.10735   0.00000  Uiso   1.00
H87    H     0.43083   0.32019   0.24352   0.00000  Uiso   1.00
F88    F     0.46279   0.12019   0.08322   0.00000  Uiso   1.00
C89    C     0.84843   0.26673   0.25153   0.00000  Uiso   1.00
C90    C     0.80545   0.17123   0.48816   0.00000  Uiso   1.00
C91    C     0.82187   0.18585   0.43608   0.00000  Uiso   1.00
C92    C     0.85276   0.18298   0.01803   0.00000  Uiso   1.00
C93    C     0.91152   0.21700   0.49824   0.00000  Uiso   1.00
C94    C     0.92369   0.23661   0.44914   0.00000  Uiso   1.00
C95    C     0.87979   0.22119   0.41843   0.00000  Uiso   1.00
C96    C     0.84435   0.16146   0.06654   0.00000  Uiso   1.00
C97    C     0.94524   0.21446   0.07800   0.00000  Uiso   1.00
C98    C     0.77900   0.16589   0.40350   0.00000  Uiso   1.00
C99    C     0.85694   0.32268   0.25230   0.00000  Uiso   1.00
C100   C     0.79982   0.16605   0.34727   0.00000  Uiso   1.00
C101   C     0.80970   0.01065   0.24778   0.00000  Uiso   1.00
C102   C     0.81822   0.06660   0.24851   0.00000  Uiso   1.00
C103   C     0.86730   0.17048   0.15289   0.00000  Uiso   1.00
C104   C     0.95742   0.23173   0.02803   0.00000  Uiso   1.00
C105   C     0.88790   0.18017   0.09783   0.00000  Uiso   1.00
C106   C     0.71692   0.14081   0.42495   0.00000  Uiso   1.00
C107   C     0.69810   0.13341   0.47737   0.00000  Uiso   1.00
C108   C     0.74170   0.14785   0.00871   0.00000  Uiso   1.00
Cu109  Cu    0.77377   0.16105   0.24436   0.00000  Uiso   1.00
Cu110  Cu    0.89290   0.17228   0.25564   0.00000  Uiso   1.00
H111   H     0.67028   0.20589   0.28969   0.00000  Uiso   1.00
H112   H     0.99637   0.12743   0.21033   0.00000  Uiso   1.00
H113   H     0.96770   0.26371   0.43414   0.00000  Uiso   1.00
H114   H     0.66875   0.25803   0.01312   0.00000  Uiso   1.00
H115   H     0.68293   0.12630   0.40109   0.00000  Uiso   1.00
H116   H     0.72348   0.14273   0.04921   0.00000  Uiso   1.00
H117   H     0.98292   0.11546   0.49378   0.00000  Uiso   1.00
H118   H     0.89102   0.23918   0.38144   0.00000  Uiso   1.00
H119   H     0.90247   0.01313   0.25657   0.00000  Uiso   1.00
N120   N     0.98241   0.18074   0.26416   0.00000  Uiso   1.00
N121   N     0.68426   0.15259   0.23584   0.00000  Uiso   1.00
O122   O     0.79464   0.23807   0.24633   0.00000  Uiso   1.00
O123   O     0.89524   0.24755   0.25586   0.00000  Uiso   1.00
O124   O     0.75848   0.15960   0.31840   0.00000  Uiso   1.00
O125   O     0.85908   0.16908   0.32793   0.00000  Uiso   1.00
O126   O     0.77142   0.08578   0.24414   0.00000  Uiso   1.00
O127   O     0.87203   0.09526   0.25367   0.00000  Uiso   1.00
O128   O     0.80758   0.16425   0.17207   0.00000  Uiso   1.00
O129   O     0.90819   0.17373   0.18160   0.00000  Uiso   1.00
F130   F     0.98840   0.23288   0.10735   0.00000  Uiso   1.00
H131   H     0.76417   0.32019   0.24352   0.00000  Uiso   1.00
F132   F     0.79612   0.12019   0.08322   0.00000  Uiso   1.00
C133   C     0.18176   0.60006   0.25153   0.00000  Uiso   1.00
C134   C     0.13878   0.50457   0.48816   0.00000  Uiso   1.00
C135   C     0.15521   0.51918   0.43608   0.00000  Uiso   1.00
C136   C     0.18609   0.51632   0.01803   0.00000  Uiso   1.00
C137   C     0.24486   0.55033   0.49824   0.00000  Uiso   1.00
C138   C     0.25702   0.56994   0.44914   0.00000  Uiso   1.00
C139   C     0.21313   0.55452   0.41843   0.00000  Uiso   1.00
C140   C     0.17769   0.49479   0.06654   0.00000  Uiso   1.00
C141   C     0.27857   0.54779   0.07800   0.00000  Uiso   1.00
C142   C     0.11234   0.49922   0.40350   0.00000  Uiso   1.00
C143   C     0.19027   0.65602   0.25230   0.00000  Uiso   1.00
C144   C     0.13315   0.49939   0.34727   0.00000  Uiso   1.00
C145   C     0.14303   0.34398   0.24778   0.00000  Uiso   1.00
C146   C     0.15156   0.39994   0.24851   0.00000  Uiso   1.00
C147   C     0.20063   0.50381   0.15289   0.00000  Uiso   1.00
C148   C     0.29076   0.56507   0.02803   0.00000  Uiso   1.00
C149   C     0.22123   0.51350   0.09783   0.00000  Uiso   1.00
C150   C     0.05025   0.47414   0.42495   0.00000  Uiso   1.00
C151   C     0.03144   0.46674   0.47737   0.00000  Uiso   1.00
C152   C     0.07503   0.48118   0.00871   0.00000  Uiso   1.00
Cu153  Cu    0.10710   0.49439   0.24436   0.00000  Uiso   1.00
Cu154  Cu    0.22623   0.50561   0.25564   0.00000  Uiso   1.00
H155   H     0.00361   0.53923   0.28969   0.00000  Uiso   1.00
H156   H     0.32970   0.46076   0.21033   0.00000  Uiso   1.00
H157   H     0.30103   0.59704   0.43414   0.00000  Uiso   1.00
H158   H     0.00209   0.59136   0.01312   0.00000  Uiso   1.00
H159   H     0.01627   0.45963   0.40109   0.00000  Uiso   1.00
H160   H     0.05682   0.47606   0.04921   0.00000  Uiso   1.00
H161   H     0.31625   0.44879   0.49378   0.00000  Uiso   1.00
H162   H     0.22435   0.57251   0.38144   0.00000  Uiso   1.00
H163   H     0.23580   0.34647   0.25657   0.00000  Uiso   1.00
N164   N     0.31574   0.51407   0.26416   0.00000  Uiso   1.00
N165   N     0.01759   0.48593   0.23584   0.00000  Uiso   1.00
O166   O     0.12797   0.57141   0.24633   0.00000  Uiso   1.00
O167   O     0.22858   0.58089   0.25586   0.00000  Uiso   1.00
O168   O     0.09181   0.49293   0.31840   0.00000  Uiso   1.00
O169   O     0.19242   0.50241   0.32793   0.00000  Uiso   1.00
O170   O     0.10476   0.41911   0.24414   0.00000  Uiso   1.00
O171   O     0.20536   0.42859   0.25367   0.00000  Uiso   1.00
O172   O     0.14092   0.49759   0.17207   0.00000  Uiso   1.00
O173   O     0.24152   0.50707   0.18160   0.00000  Uiso   1.00
F174   F     0.32173   0.56621   0.10735   0.00000  Uiso   1.00
H175   H     0.09750   0.65353   0.24352   0.00000  Uiso   1.00
F176   F     0.12945   0.45352   0.08322   0.00000  Uiso   1.00
C177   C     0.51510   0.60006   0.25153   0.00000  Uiso   1.00
C178   C     0.47212   0.50457   0.48816   0.00000  Uiso   1.00
C179   C     0.48854   0.51918   0.43608   0.00000  Uiso   1.00
C180   C     0.51943   0.51632   0.01803   0.00000  Uiso   1.00
C181   C     0.57819   0.55033   0.49824   0.00000  Uiso   1.00
C182   C     0.59036   0.56994   0.44914   0.00000  Uiso   1.00
C183   C     0.54646   0.55452   0.41843   0.00000  Uiso   1.00
C184   C     0.51102   0.49479   0.06654   0.00000  Uiso   1.00
C185   C     0.61190   0.54779   0.07800   0.00000  Uiso   1.00
C186   C     0.44567   0.49922   0.40350   0.00000  Uiso   1.00
C187   C     0.52360   0.65602   0.25230   0.00000  Uiso   1.00
C188   C     0.46648   0.49939   0.34727   0.00000  Uiso   1.00
C189   C     0.47637   0.34398   0.24778   0.00000  Uiso   1.00
C190   C     0.48489   0.39994   0.24851   0.00000  Uiso   1.00
C191   C     0.53397   0.50381   0.15289   0.00000  Uiso   1.00
C192   C     0.62409   0.56507   0.02803   0.00000  Uiso   1.00
C193   C     0.55457   0.51350   0.09783   0.00000  Uiso   1.00
C194   C     0.38359   0.47414   0.42495   0.00000  Uiso   1.00
C195   C     0.36477   0.46674   0.47737   0.00000  Uiso   1.00
C196   C     0.40837   0.48118   0.00871   0.00000  Uiso   1.00
Cu197  Cu    0.44043   0.49439   0.24436   0.00000  Uiso   1.00
Cu198  Cu    0.55957   0.50561   0.25564   0.00000  Uiso   1.00
H199   H     0.33695   0.53923   0.28969   0.00000  Uiso   1.00
H200   H     0.66303   0.46076   0.21033   0.00000  Uiso   1.00
H201   H     0.63437   0.59704   0.43414   0.00000  Uiso   1.00
H202   H     0.33542   0.59136   0.01312   0.00000  Uiso   1.00
H203   H     0.34960   0.45963   0.40109   0.00000  Uiso   1.00
H204   H     0.39015   0.47606   0.04921   0.00000  Uiso   1.00
H205   H     0.64958   0.44879   0.49378   0.00000  Uiso   1.00
H206   H     0.55769   0.57251   0.38144   0.00000  Uiso   1.00
H207   H     0.56913   0.34647   0.25657   0.00000  Uiso   1.00
N208   N     0.64908   0.51407   0.26416   0.00000  Uiso   1.00
N209   N     0.35092   0.48593   0.23584   0.00000  Uiso   1.00
O210   O     0.46131   0.57141   0.24633   0.00000  Uiso   1.00
O211   O     0.56191   0.58089   0.25586   0.00000  Uiso   1.00
O212   O     0.42515   0.49293   0.31840   0.00000  Uiso   1.00
O213   O     0.52575   0.50241   0.32793   0.00000  Uiso   1.00
O214   O     0.43809   0.41911   0.24414   0.00000  Uiso   1.00
O215   O     0.53869   0.42859   0.25367   0.00000  Uiso   1.00
O216   O     0.47425   0.49759   0.17207   0.00000  Uiso   1.00
O217   O     0.57485   0.50707   0.18160   0.00000  Uiso   1.00
F218   F     0.65506   0.56621   0.10735   0.00000  Uiso   1.00
H219   H     0.43083   0.65353   0.24352   0.00000  Uiso   1.00
F220   F     0.46279   0.45352   0.08322   0.00000  Uiso   1.00
C221   C     0.84843   0.60006   0.25153   0.00000  Uiso   1.00
C222   C     0.80545   0.50457   0.48816   0.00000  Uiso   1.00
C223   C     0.82187   0.51918   0.43608   0.00000  Uiso   1.00
C224   C     0.85276   0.51632   0.01803   0.00000  Uiso   1.00
C225   C     0.91152   0.55033   0.49824   0.00000  Uiso   1.00
C226   C     0.92369   0.56994   0.44914   0.00000  Uiso   1.00
C227   C     0.87979   0.55452   0.41843   0.00000  Uiso   1.00
C228   C     0.84435   0.49479   0.06654   0.00000  Uiso   1.00
C229   C     0.94524   0.54779   0.07800   0.00000  Uiso   1.00
C230   C     0.77900   0.49922   0.40350   0.00000  Uiso   1.00
C231   C     0.85694   0.65602   0.25230   0.00000  Uiso   1.00
C232   C     0.79982   0.49939   0.34727   0.00000  Uiso   1.00
C233   C     0.80970   0.34398   0.24778   0.00000  Uiso   1.00
C234   C     0.81822   0.39994   0.24851   0.00000  Uiso   1.00
C235   C     0.86730   0.50381   0.15289   0.00000  Uiso   1.00
C236   C     0.95742   0.56507   0.02803   0.00000  Uiso   1.00
C237   C     0.88790   0.51350   0.09783   0.00000  Uiso   1.00
C238   C     0.71692   0.47414   0.42495   0.00000  Uiso   1.00
C239   C     0.69810   0.46674   0.47737   0.00000  Uiso   1.00
C240   C     0.74170   0.48118   0.00871   0.00000  Uiso   1.00
Cu241  Cu    0.77377   0.49439   0.24436   0.00000  Uiso   1.00
Cu242  Cu    0.89290   0.50561   0.25564   0.00000  Uiso   1.00
H243   H     0.67028   0.53923   0.28969   0.00000  Uiso   1.00
H244   H     0.99637   0.46076   0.21033   0.00000  Uiso   1.00
H245   H     0.96770   0.59704   0.43414   0.00000  Uiso   1.00
H246   H     0.66875   0.59136   0.01312   0.00000  Uiso   1.00
H247   H     0.68293   0.45963   0.40109   0.00000  Uiso   1.00
H248   H     0.72348   0.47606   0.04921   0.00000  Uiso   1.00
H249   H     0.98292   0.44879   0.49378   0.00000  Uiso   1.00
H250   H     0.89102   0.57251   0.38144   0.00000  Uiso   1.00
H251   H     0.90247   0.34647   0.25657   0.00000  Uiso   1.00
N252   N     0.98241   0.51407   0.26416   0.00000  Uiso   1.00
N253   N     0.68426   0.48593   0.23584   0.00000  Uiso   1.00
O254   O     0.79464   0.57141   0.24633   0.00000  Uiso   1.00
O255   O     0.89524   0.58089   0.25586   0.00000  Uiso   1.00
O256   O     0.75848   0.49293   0.31840   0.00000  Uiso   1.00
O257   O     0.85908   0.50241   0.32793   0.00000  Uiso   1.00
O258   O     0.77142   0.41911   0.24414   0.00000  Uiso   1.00
O259   O     0.87203   0.42859   0.25367   0.00000  Uiso   1.00
O260   O     0.80758   0.49759   0.17207   0.00000  Uiso   1.00
O261   O     0.90819   0.50707   0.18160   0.00000  Uiso   1.00
F262   F     0.98840   0.56621   0.10735   0.00000  Uiso   1.00
H263   H     0.76417   0.65353   0.24352   0.00000  Uiso   1.00
F264   F     0.79612   0.45352   0.08322   0.00000  Uiso   1.00
C265   C     0.18176   0.93340   0.25153   0.00000  Uiso   1.00
C266   C     0.13878   0.83790   0.48816   0.00000  Uiso   1.00
C267   C     0.15521   0.85251   0.43608   0.00000  Uiso   1.00
C268   C     0.18609   0.84965   0.01803   0.00000  Uiso   1.00
C269   C     0.24486   0.88367   0.49824   0.00000  Uiso   1.00
C270   C     0.25702   0.90328   0.44914   0.00000  Uiso   1.00
C271   C     0.21313   0.88786   0.41843   0.00000  Uiso   1.00
C272   C     0.17769   0.82812   0.06654   0.00000  Uiso   1.00
C273   C     0.27857   0.88113   0.07800   0.00000  Uiso   1.00
C274   C     0.11234   0.83255   0.40350   0.00000  Uiso   1.00
C275   C     0.19027   0.98935   0.25230   0.00000  Uiso   1.00
C276   C     0.13315   0.83272   0.34727   0.00000  Uiso   1.00
C277   C     0.14303   0.67731   0.24778   0.00000  Uiso   1.00
C278   C     0.15156   0.73327   0.24851   0.00000  Uiso   1.00
C279   C     0.20063   0.83715   0.15289   0.00000  Uiso   1.00
C280   C     0.29076   0.89840   0.02803   0.00000  Uiso   1.00
C281   C     0.22123   0.84684   0.09783   0.00000  Uiso   1.00
C282   C     0.05025   0.80747   0.42495   0.00000  Uiso   1.00
C283   C     0.03144   0.80008   0.47737   0.00000  Uiso   1.00
C284   C     0.07503   0.81451   0.00871   0.00000  Uiso   1.00
Cu285  Cu    0.10710   0.82772   0.24436   0.00000  Uiso   1.00
Cu286  Cu    0.22623   0.83895   0.25564   0.00000  Uiso   1.00
H287   H     0.00361   0.87256   0.28969   0.00000  Uiso   1.00
H288   H     0.32970   0.79409   0.21033   0.00000  Uiso   1.00
H289   H     0.30103   0.93038   0.43414   0.00000  Uiso   1.00
H290   H     0.00209   0.92470   0.01312   0.00000  Uiso   1.00
H291   H     0.01627   0.79297   0.40109   0.00000  Uiso   1.00
H292   H     0.05682   0.80939   0.04921   0.00000  Uiso   1.00
H293   H     0.31625   0.78213   0.49378   0.00000  Uiso   1.00
H294   H     0.22435   0.90585   0.38144   0.00000  Uiso   1.00
H295   H     0.23580   0.67980   0.25657   0.00000  Uiso   1.00
N296   N     0.31574   0.84741   0.26416   0.00000  Uiso   1.00
N297   N     0.01759   0.81926   0.23584   0.00000  Uiso   1.00
O298   O     0.12797   0.90474   0.24633   0.00000  Uiso   1.00
O299   O     0.22858   0.91422   0.25586   0.00000  Uiso   1.00
O300   O     0.09181   0.82627   0.31840   0.00000  Uiso   1.00
O301   O     0.19242   0.83575   0.32793   0.00000  Uiso   1.00
O302   O     0.10476   0.75245   0.24414   0.00000  Uiso   1.00
O303   O     0.20536   0.76193   0.25367   0.00000  Uiso   1.00
O304   O     0.14092   0.83092   0.17207   0.00000  Uiso   1.00
O305   O     0.24152   0.84040   0.18160   0.00000  Uiso   1.00
F306   F     0.32173   0.89954   0.10735   0.00000  Uiso   1.00
H307   H     0.09750   0.98686   0.24352   0.00000  Uiso   1.00
F308   F     0.12945   0.78686   0.08322   0.00000  Uiso   1.00
C309   C     0.51510   0.93340   0.25153   0.00000  Uiso   1.00
C310   C     0.47212   0.83790   0.48816   0.00000  Uiso   1.00
C311   C     0.48854   0.85251   0.43608   0.00000  Uiso   1.00
C312   C     0.51943   0.84965   0.01803   0.00000  Uiso   1.00
C313   C     0.57819   0.88367   0.49824   0.00000  Uiso   1.00
C314   C     0.59036   0.90328   0.44914   0.00000  Uiso   1.00
C315   C     0.54646   0.88786   0.41843   0.00000  Uiso   1.00
C316   C     0.51102   0.82812   0.06654   0.00000  Uiso   1.00
C317   C     0.61190   0.88113   0.07800   0.00000  Uiso   1.00
C318   C     0.44567   0.83255   0.40350   0.00000  Uiso   1.00
C319   C     0.52360   0.98935   0.25230   0.00000  Uiso   1.00
C320   C     0.46648   0.83272   0.34727   0.00000  Uiso   1.00
C321   C     0.47637   0.67731   0.24778   0.00000  Uiso   1.00
C322   C     0.48489   0.73327   0.24851   0.00000  Uiso   1.00
C323   C     0.53397   0.83715   0.15289   0.00000  Uiso   1.00
C324   C     0.62409   0.89840   0.02803   0.00000  Uiso   1.00
C325   C     0.55457   0.84684   0.09783   0.00000  Uiso   1.00
C326   C     0.38359   0.80747   0.42495   0.00000  Uiso   1.00
C327   C     0.36477   0.80008   0.47737   0.00000  Uiso   1.00
C328   C     0.40837   0.81451   0.00871   0.00000  Uiso   1.00
Cu329  Cu    0.44043   0.82772   0.24436   0.00000  Uiso   1.00
Cu330  Cu    0.55957   0.83895   0.25564   0.00000  Uiso   1.00
H331   H     0.33695   0.87256   0.28969   0.00000  Uiso   1.00
H332   H     0.66303   0.79409   0.21033   0.00000  Uiso   1.00
H333   H     0.63437   0.93038   0.43414   0.00000  Uiso   1.00
H334   H     0.33542   0.92470   0.01312   0.00000  Uiso   1.00
H335   H     0.34960   0.79297   0.40109   0.00000  Uiso   1.00
H336   H     0.39015   0.80939   0.04921   0.00000  Uiso   1.00
H337   H     0.64958   0.78213   0.49378   0.00000  Uiso   1.00
H338   H     0.55769   0.90585   0.38144   0.00000  Uiso   1.00
H339   H     0.56913   0.67980   0.25657   0.00000  Uiso   1.00
N340   N     0.64908   0.84741   0.26416   0.00000  Uiso   1.00
N341   N     0.35092   0.81926   0.23584   0.00000  Uiso   1.00
O342   O     0.46131   0.90474   0.24633   0.00000  Uiso   1.00
O343   O     0.56191   0.91422   0.25586   0.00000  Uiso   1.00
O344   O     0.42515   0.82627   0.31840   0.00000  Uiso   1.00
O345   O     0.52575   0.83575   0.32793   0.00000  Uiso   1.00
O346   O     0.43809   0.75245   0.24414   0.00000  Uiso   1.00
O347   O     0.53869   0.76193   0.25367   0.00000  Uiso   1.00
O348   O     0.47425   0.83092   0.17207   0.00000  Uiso   1.00
O349   O     0.57485   0.84040   0.18160   0.00000  Uiso   1.00
F350   F     0.65506   0.89954   0.10735   0.00000  Uiso   1.00
H351   H     0.43083   0.98686   0.24352   0.00000  Uiso   1.00
F352   F     0.46279   0.78686   0.08322   0.00000  Uiso   1.00
C353   C     0.84843   0.93340   0.25153   0.00000  Uiso   1.00
C354   C     0.80545   0.83790   0.48816   0.00000  Uiso   1.00
C355   C     0.82187   0.85251   0.43608   0.00000  Uiso   1.00
C356   C     0.85276   0.84965   0.01803   0.00000  Uiso   1.00
C357   C     0.91152   0.88367   0.49824   0.00000  Uiso   1.00
C358   C     0.92369   0.90328   0.44914   0.00000  Uiso   1.00
C359   C     0.87979   0.88786   0.41843   0.00000  Uiso   1.00
C360   C     0.84435   0.82812   0.06654   0.00000  Uiso   1.00
C361   C     0.94524   0.88113   0.07800   0.00000  Uiso   1.00
C362   C     0.77900   0.83255   0.40350   0.00000  Uiso   1.00
C363   C     0.85694   0.98935   0.25230   0.00000  Uiso   1.00
C364   C     0.79982   0.83272   0.34727   0.00000  Uiso   1.00
C365   C     0.80970   0.67731   0.24778   0.00000  Uiso   1.00
C366   C     0.81822   0.73327   0.24851   0.00000  Uiso   1.00
C367   C     0.86730   0.83715   0.15289   0.00000  Uiso   1.00
C368   C     0.95742   0.89840   0.02803   0.00000  Uiso   1.00
C369   C     0.88790   0.84684   0.09783   0.00000  Uiso   1.00
C370   C     0.71692   0.80747   0.42495   0.00000  Uiso   1.00
C371   C     0.69810   0.80008   0.47737   0.00000  Uiso   1.00
C372   C     0.74170   0.81451   0.00871   0.00000  Uiso   1.00
Cu373  Cu    0.77377   0.82772   0.24436   0.00000  Uiso   1.00
Cu374  Cu    0.89290   0.83895   0.25564   0.00000  Uiso   1.00
H375   H     0.67028   0.87256   0.28969   0.00000  Uiso   1.00
H376   H     0.99637   0.79409   0.21033   0.00000  Uiso   1.00
H377   H     0.96770   0.93038   0.43414   0.00000  Uiso   1.00
H378   H     0.66875   0.92470   0.01312   0.00000  Uiso   1.00
H379   H     0.68293   0.79297   0.40109   0.00000  Uiso   1.00
H380   H     0.72348   0.80939   0.04921   0.00000  Uiso   1.00
H381   H     0.98292   0.78213   0.49378   0.00000  Uiso   1.00
H382   H     0.89102   0.90585   0.38144   0.00000  Uiso   1.00
H383   H     0.90247   0.67980   0.25657   0.00000  Uiso   1.00
N384   N     0.98241   0.84741   0.26416   0.00000  Uiso   1.00
N385   N     0.68426   0.81926   0.23584   0.00000  Uiso   1.00
O386   O     0.79464   0.90474   0.24633   0.00000  Uiso   1.00
O387   O     0.89524   0.91422   0.25586   0.00000  Uiso   1.00
O388   O     0.75848   0.82627   0.31840   0.00000  Uiso   1.00
O389   O     0.85908   0.83575   0.32793   0.00000  Uiso   1.00
O390   O     0.77142   0.75245   0.24414   0.00000  Uiso   1.00
O391   O     0.87203   0.76193   0.25367   0.00000  Uiso   1.00
O392   O     0.80758   0.83092   0.17207   0.00000  Uiso   1.00
O393   O     0.90819   0.84040   0.18160   0.00000  Uiso   1.00
F394   F     0.98840   0.89954   0.10735   0.00000  Uiso   1.00
H395   H     0.76417   0.98686   0.24352   0.00000  Uiso   1.00
F396   F     0.79612   0.78686   0.08322   0.00000  Uiso   1.00
C397   C     0.18176   0.26673   0.75153   0.00000  Uiso   1.00
C398   C     0.13878   0.17123   0.98816   0.00000  Uiso   1.00
C399   C     0.15521   0.18585   0.93608   0.00000  Uiso   1.00
C400   C     0.18609   0.18298   0.51803   0.00000  Uiso   1.00
C401   C     0.24486   0.21700   0.99824   0.00000  Uiso   1.00
C402   C     0.25702   0.23661   0.94914   0.00000  Uiso   1.00
C403   C     0.21313   0.22119   0.91843   0.00000  Uiso   1.00
C404   C     0.17769   0.16146   0.56654   0.00000  Uiso   1.00
C405   C     0.27857   0.21446   0.57800   0.00000  Uiso   1.00
C406   C     0.11234   0.16589   0.90350   0.00000  Uiso   1.00
C407   C     0.19027   0.32268   0.75230   0.00000  Uiso   1.00
C408   C     0.13315   0.16605   0.84727   0.00000  Uiso   1.00
C409   C     0.14303   0.01065   0.74778   0.00000  Uiso   1.00
C410   C     0.15156   0.06660   0.74851   0.00000  Uiso   1.00
C411   C     0.20063   0.17048   0.65289   0.00000  Uiso   1.00
C412   C     0.29076   0.23173   0.52803   0.00000  Uiso   1.00
C413   C     0.22123   0.18017   0.59783   0.00000  Uiso   1.00
C414   C     0.05025   0.14081   0.92495   0.00000  Uiso   1.00
C415   C     0.03144   0.13341   0.97737   0.00000  Uiso   1.00
C416   C     0.07503   0.14785   0.50871   0.00000  Uiso   1.00
Cu417  Cu    0.10710   0.16105   0.74436   0.00000  Uiso   1.00
Cu418  Cu    0.22623   0.17228   0.75564   0.00000  Uiso   1.00
H419   H     0.00361   0.20589   0.78969   0.00000  Uiso   1.00
H420   H     0.32970   0.12743   0.71033   0.00000  Uiso   1.00
H421   H     0.30103   0.26371   0.93414   0.00000  Uiso   1.00
H422   H     0.00209   0.25803   0.51312   0.00000  Uiso   1.00
H423   H     0.01627   0.12630   0.90109   0.00000  Uiso   1.00
H424   H     0.05682   0.14273   0.54921   0.00000  Uiso   1.00
H425   H     0.31625   0.11546   0.99378   0.00000  Uiso   1.00
H426   H     0.22435   0.23918   0.88144   0.00000  Uiso   1.00
H427   H     0.23580   0.01313   0.75657   0.00000  Uiso   1.00
N428   N     0.31574   0.18074   0.76416   0.00000  Uiso   1.00
N429   N     0.01759   0.15259   0.73584   0.00000  Uiso   1.00
O430   O     0.12797   0.23807   0.74633   0.00000  Uiso   1.00
O431   O     0.22858   0.24755   0.75586   0.00000  Uiso   1.00
O432   O     0.09181   0.15960   0.81840   0.00000  Uiso   1.00
O433   O     0.19242   0.16908   0.82793   0.00000  Uiso   1.00
O434   O     0.10476   0.08578   0.74414   0.00000  Uiso   1.00
O435   O     0.20536   0.09526   0.75367   0.00000  Uiso   1.00
O436   O     0.14092   0.16425   0.67207   0.00000  Uiso   1.00
O437   O     0.24152   0.17373   0.68160   0.00000  Uiso   1.00
F438   F     0.32173   0.23288   0.60735   0.00000  Uiso   1.00
H439   H     0.09750   0.32019   0.74352   0.00000  Uiso   1.00
F440   F     0.12945   0.12019   0.58322   0.00000  Uiso   1.00
C441   C     0.51510   0.26673   0.75153   0.00000  Uiso   1.00
C442   C     0.47212   0.17123   0.98816   0.00000  Uiso   1.00
C443   C     0.48854   0.18585   0.93608   0.00000  Uiso   1.00
C444   C     0.51943   0.18298   0.51803   0.00000  Uiso   1.00
C445   C     0.57819   0.21700   0.99824   0.00000  Uiso   1.00
C446   C     0.59036   0.23661   0.94914   0.00000  Uiso   1.00
C447   C     0.54646   0.22119   0.91843   0.00000  Uiso   1.00
C448   C     0.51102   0.16146   0.56654   0.00000  Uiso   1.00
C449   C     0.61190   0.21446   0.57800   0.00000  Uiso   1.00
C450   C     0.44567   0.16589   0.90350   0.00000  Uiso   1.00
C451   C     0.52360   0.32268   0.75230   0.00000  Uiso   1.00
C452   C     0.46648   0.16605   0.84727   0.00000  Uiso   1.00
C453   C     0.47637   0.01065   0.74778   0.00000  Uiso   1.00
C454   C     0.48489   0.06660   0.74851   0.00000  Uiso   1.00
C455   C     0.53397   0.17048   0.65289   0.00000  Uiso   1.00
C456   C     0.62409   0.23173   0.52803   0.00000  Uiso   1.00
C457   C     0.55457   0.18017   0.59783   0.00000  Uiso   1.00
C458   C     0.38359   0.14081   0.92495   0.00000  Uiso   1.00
C459   C     0.36477   0.13341   0.97737   0.00000  Uiso   1.00
C460   C     0.40837   0.14785   0.50871   0.00000  Uiso   1.00
Cu461  Cu    0.44043   0.16105   0.74436   0.00000  Uiso   1.00
Cu462  Cu    0.55957   0.17228   0.75564   0.00000  Uiso   1.00
H463   H     0.33695   0.20589   0.78969   0.00000  Uiso   1.00
H464   H     0.66303   0.12743   0.71033   0.00000  Uiso   1.00
H465   H     0.63437   0.26371   0.93414   0.00000  Uiso   1.00
H466   H     0.33542   0.25803   0.51312   0.00000  Uiso   1.00
H467   H     0.34960   0.12630   0.90109   0.00000  Uiso   1.00
H468   H     0.39015   0.14273   0.54921   0.00000  Uiso   1.00
H469   H     0.64958   0.11546   0.99378   0.00000  Uiso   1.00
H470   H     0.55769   0.23918   0.88144   0.00000  Uiso   1.00
H471   H     0.56913   0.01313   0.75657   0.00000  Uiso   1.00
N472   N     0.64908   0.18074   0.76416   0.00000  Uiso   1.00
N473   N     0.35092   0.15259   0.73584   0.00000  Uiso   1.00
O474   O     0.46131   0.23807   0.74633   0.00000  Uiso   1.00
O475   O     0.56191   0.24755   0.75586   0.00000  Uiso   1.00
O476   O     0.42515   0.15960   0.81840   0.00000  Uiso   1.00
O477   O     0.52575   0.16908   0.82793   0.00000  Uiso   1.00
O478   O     0.43809   0.08578   0.74414   0.00000  Uiso   1.00
O479   O     0.53869   0.09526   0.75367   0.00000  Uiso   1.00
O480   O     0.47425   0.16425   0.67207   0.00000  Uiso   1.00
O481   O     0.57485   0.17373   0.68160   0.00000  Uiso   1.00
F482   F     0.65506   0.23288   0.60735   0.00000  Uiso   1.00
H483   H     0.43083   0.32019   0.74352   0.00000  Uiso   1.00
F484   F     0.46279   0.12019   0.58322   0.00000  Uiso   1.00
C485   C     0.84843   0.26673   0.75153   0.00000  Uiso   1.00
C486   C     0.80545   0.17123   0.98816   0.00000  Uiso   1.00
C487   C     0.82187   0.18585   0.93608   0.00000  Uiso   1.00
C488   C     0.85276   0.18298   0.51803   0.00000  Uiso   1.00
C489   C     0.91152   0.21700   0.99824   0.00000  Uiso   1.00
C490   C     0.92369   0.23661   0.94914   0.00000  Uiso   1.00
C491   C     0.87979   0.22119   0.91843   0.00000  Uiso   1.00
C492   C     0.84435   0.16146   0.56654   0.00000  Uiso   1.00
C493   C     0.94524   0.21446   0.57800   0.00000  Uiso   1.00
C494   C     0.77900   0.16589   0.90350   0.00000  Uiso   1.00
C495   C     0.85694   0.32268   0.75230   0.00000  Uiso   1.00
C496   C     0.79982   0.16605   0.84727   0.00000  Uiso   1.00
C497   C     0.80970   0.01065   0.74778   0.00000  Uiso   1.00
C498   C     0.81822   0.06660   0.74851   0.00000  Uiso   1.00
C499   C     0.86730   0.17048   0.65289   0.00000  Uiso   1.00
C500   C     0.95742   0.23173   0.52803   0.00000  Uiso   1.00
C501   C     0.88790   0.18017   0.59783   0.00000  Uiso   1.00
C502   C     0.71692   0.14081   0.92495   0.00000  Uiso   1.00
C503   C     0.69810   0.13341   0.97737   0.00000  Uiso   1.00
C504   C     0.74170   0.14785   0.50871   0.00000  Uiso   1.00
Cu505  Cu    0.77377   0.16105   0.74436   0.00000  Uiso   1.00
Cu506  Cu    0.89290   0.17228   0.75564   0.00000  Uiso   1.00
H507   H     0.67028   0.20589   0.78969   0.00000  Uiso   1.00
H508   H     0.99637   0.12743   0.71033   0.00000  Uiso   1.00
H509   H     0.96770   0.26371   0.93414   0.00000  Uiso   1.00
H510   H     0.66875   0.25803   0.51312   0.00000  Uiso   1.00
H511   H     0.68293   0.12630   0.90109   0.00000  Uiso   1.00
H512   H     0.72348   0.14273   0.54921   0.00000  Uiso   1.00
H513   H     0.98292   0.11546   0.99378   0.00000  Uiso   1.00
H514   H     0.89102   0.23918   0.88144   0.00000  Uiso   1.00
H515   H     0.90247   0.01313   0.75657   0.00000  Uiso   1.00
N516   N     0.98241   0.18074   0.76416   0.00000  Uiso   1.00
N517   N     0.68426   0.15259   0.73584   0.00000  Uiso   1.00
O518   O     0.79464   0.23807   0.74633   0.00000  Uiso   1.00
O519   O     0.89524   0.24755   0.75586   0.00000  Uiso   1.00
O520   O     0.75848   0.15960   0.81840   0.00000  Uiso   1.00
O521   O     0.85908   0.16908   0.82793   0.00000  Uiso   1.00
O522   O     0.77142   0.08578   0.74414   0.00000  Uiso   1.00
O523   O     0.87203   0.09526   0.75367   0.00000  Uiso   1.00
O524   O     0.80758   0.16425   0.67207   0.00000  Uiso   1.00
O525   O     0.90819   0.17373   0.68160   0.00000  Uiso   1.00
F526   F     0.98840   0.23288   0.60735   0.00000  Uiso   1.00
H527   H     0.76417   0.32019   0.74352   0.00000  Uiso   1.00
F528   F     0.79612   0.12019   0.58322   0.00000  Uiso   1.00
C529   C     0.18176   0.60006   0.75153   0.00000  Uiso   1.00
C530   C     0.13878   0.50457   0.98816   0.00000  Uiso   1.00
C531   C     0.15521   0.51918   0.93608   0.00000  Uiso   1.00
C532   C     0.18609   0.51632   0.51803   0.00000  Uiso   1.00
C533   C     0.24486   0.55033   0.99824   0.00000  Uiso   1.00
C534   C     0.25702   0.56994   0.94914   0.00000  Uiso   1.00
C535   C     0.21313   0.55452   0.91843   0.00000  Uiso   1.00
C536   C     0.17769   0.49479   0.56654   0.00000  Uiso   1.00
C537   C     0.27857   0.54779   0.57800   0.00000  Uiso   1.00
C538   C     0.11234   0.49922   0.90350   0.00000  Uiso   1.00
C539   C     0.19027   0.65602   0.75230   0.00000  Uiso   1.00
C540   C     0.13315   0.49939   0.84727   0.00000  Uiso   1.00
C541   C     0.14303   0.34398   0.74778   0.00000  Uiso   1.00
C542   C     0.15156   0.39994   0.74851   0.00000  Uiso   1.00
C543   C     0.20063   0.50381   0.65289   0.00000  Uiso   1.00
C544   C     0.29076   0.56507   0.52803   0.00000  Uiso   1.00
C545   C     0.22123   0.51350   0.59783   0.00000  Uiso   1.00
C546   C     0.05025   0.47414   0.92495   0.00000  Uiso   1.00
C547   C     0.03144   0.46674   0.97737   0.00000  Uiso   1.00
C548   C     0.07503   0.48118   0.50871   0.00000  Uiso   1.00
Cu549  Cu    0.10710   0.49439   0.74436   0.00000  Uiso   1.00
Cu550  Cu    0.22623   0.50561   0.75564   0.00000  Uiso   1.00
H551   H     0.00361   0.53923   0.78969   0.00000  Uiso   1.00
H552   H     0.32970   0.46076   0.71033   0.00000  Uiso   1.00
H553   H     0.30103   0.59704   0.93414   0.00000  Uiso   1.00
H554   H     0.00209   0.59136   0.51312   0.00000  Uiso   1.00
H555   H     0.01627   0.45963   0.90109   0.00000  Uiso   1.00
H556   H     0.05682   0.47606   0.54921   0.00000  Uiso   1.00
H557   H     0.31625   0.44879   0.99378   0.00000  Uiso   1.00
H558   H     0.22435   0.57251   0.88144   0.00000  Uiso   1.00
H559   H     0.23580   0.34647   0.75657   0.00000  Uiso   1.00
N560   N     0.31574   0.51407   0.76416   0.00000  Uiso   1.00
N561   N     0.01759   0.48593   0.73584   0.00000  Uiso   1.00
O562   O     0.12797   0.57141   0.74633   0.00000  Uiso   1.00
O563   O     0.22858   0.58089   0.75586   0.00000  Uiso   1.00
O564   O     0.09181   0.49293   0.81840   0.00000  Uiso   1.00
O565   O     0.19242   0.50241   0.82793   0.00000  Uiso   1.00
O566   O     0.10476   0.41911   0.74414   0.00000  Uiso   1.00
O567   O     0.20536   0.42859   0.75367   0.00000  Uiso   1.00
O568   O     0.14092   0.49759   0.67207   0.00000  Uiso   1.00
O569   O     0.24152   0.50707   0.68160   0.00000  Uiso   1.00
F570   F     0.32173   0.56621   0.60735   0.00000  Uiso   1.00
H571   H     0.09750   0.65353   0.74352   0.00000  Uiso   1.00
F572   F     0.12945   0.45352   0.58322   0.00000  Uiso   1.00
C573   C     0.51510   0.60006   0.75153   0.00000  Uiso   1.00
C574   C     0.47212   0.50457   0.98816   0.00000  Uiso   1.00
C575   C     0.48854   0.51918   0.93608   0.00000  Uiso   1.00
C576   C     0.51943   0.51632   0.51803   0.00000  Uiso   1.00
C577   C     0.57819   0.55033   0.99824   0.00000  Uiso   1.00
C578   C     0.59036   0.56994   0.94914   0.00000  Uiso   1.00
C579   C     0.54646   0.55452   0.91843   0.00000  Uiso   1.00
C580   C     0.51102   0.49479   0.56654   0.00000  Uiso   1.00
C581   C     0.61190   0.54779   0.57800   0.00000  Uiso   1.00
C582   C     0.44567   0.49922   0.90350   0.00000  Uiso   1.00
C583   C     0.52360   0.65602   0.75230   0.00000  Uiso   1.00
C584   C     0.46648   0.49939   0.84727   0.00000  Uiso   1.00
C585   C     0.47637   0.34398   0.74778   0.00000  Uiso   1.00
C586   C     0.48489   0.39994   0.74851   0.00000  Uiso   1.00
C587   C     0.53397   0.50381   0.65289   0.00000  Uiso   1.00
C588   C     0.62409   0.56507   0.52803   0.00000  Uiso   1.00
C589   C     0.55457   0.51350   0.59783   0.00000  Uiso   1.00
C590   C     0.38359   0.47414   0.92495   0.00000  Uiso   1.00
C591   C     0.36477   0.46674   0.97737   0.00000  Uiso   1.00
C592   C     0.40837   0.48118   0.50871   0.00000  Uiso   1.00
Cu593  Cu    0.44043   0.49439   0.74436   0.00000  Uiso   1.00
Cu594  Cu    0.55957   0.50561   0.75564   0.00000  Uiso   1.00
H595   H     0.33695   0.53923   0.78969   0.00000  Uiso   1.00
H596   H     0.66303   0.46076   0.71033   0.00000  Uiso   1.00
H597   H     0.63437   0.59704   0.93414   0.00000  Uiso   1.00
H598   H     0.33542   0.59136   0.51312   0.00000  Uiso   1.00
H599   H     0.34960   0.45963   0.90109   0.00000  Uiso   1.00
H600   H     0.39015   0.47606   0.54921   0.00000  Uiso   1.00
H601   H     0.64958   0.44879   0.99378   0.00000  Uiso   1.00
H602   H     0.55769   0.57251   0.88144   0.00000  Uiso   1.00
H603   H     0.56913   0.34647   0.75657   0.00000  Uiso   1.00
N604   N     0.64908   0.51407   0.76416   0.00000  Uiso   1.00
N605   N     0.35092   0.48593   0.73584   0.00000  Uiso   1.00
O606   O     0.46131   0.57141   0.74633   0.00000  Uiso   1.00
O607   O     0.56191   0.58089   0.75586   0.00000  Uiso   1.00
O608   O     0.42515   0.49293   0.81840   0.00000  Uiso   1.00
O609   O     0.52575   0.50241   0.82793   0.00000  Uiso   1.00
O610   O     0.43809   0.41911   0.74414   0.00000  Uiso   1.00
O611   O     0.53869   0.42859   0.75367   0.00000  Uiso   1.00
O612   O     0.47425   0.49759   0.67207   0.00000  Uiso   1.00
O613   O     0.57485   0.50707   0.68160   0.00000  Uiso   1.00
F614   F     0.65506   0.56621   0.60735   0.00000  Uiso   1.00
H615   H     0.43083   0.65353   0.74352   0.00000  Uiso   1.00
F616   F     0.46279   0.45352   0.58322   0.00000  Uiso   1.00
C617   C     0.84843   0.60006   0.75153   0.00000  Uiso   1.00
C618   C     0.80545   0.50457   0.98816   0.00000  Uiso   1.00
C619   C     0.82187   0.51918   0.93608   0.00000  Uiso   1.00
C620   C     0.85276   0.51632   0.51803   0.00000  Uiso   1.00
C621   C     0.91152   0.55033   0.99824   0.00000  Uiso   1.00
C622   C     0.92369   0.56994   0.94914   0.00000  Uiso   1.00
C623   C     0.87979   0.55452   0.91843   0.00000  Uiso   1.00
C624   C     0.84435   0.49479   0.56654   0.00000  Uiso   1.00
C625   C     0.94524   0.54779   0.57800   0.00000  Uiso   1.00
C626   C     0.77900   0.49922   0.90350   0.00000  Uiso   1.00
C627   C     0.85694   0.65602   0.75230   0.00000  Uiso   1.00
C628   C     0.79982   0.49939   0.84727   0.00000  Uiso   1.00
C629   C     0.80970   0.34398   0.74778   0.00000  Uiso   1.00
C630   C     0.81822   0.39994   0.74851   0.00000  Uiso   1.00
C631   C     0.86730   0.50381   0.65289   0.00000  Uiso   1.00
C632   C     0.95742   0.56507   0.52803   0.00000  Uiso   1.00
C633   C     0.88790   0.51350   0.59783   0.00000  Uiso   1.00
C634   C     0.71692   0.47414   0.92495   0.00000  Uiso   1.00
C635   C     0.69810   0.46674   0.97737   0.00000  Uiso   1.00
C636   C     0.74170   0.48118   0.50871   0.00000  Uiso   1.00
Cu637  Cu    0.77377   0.49439   0.74436   0.00000  Uiso   1.00
Cu638  Cu    0.89290   0.50561   0.75564   0.00000  Uiso   1.00
H639   H     0.67028   0.53923   0.78969   0.00000  Uiso   1.00
H640   H     0.99637   0.46076   0.71033   0.00000  Uiso   1.00
H641   H     0.96770   0.59704   0.93414   0.00000  Uiso   1.00
H642   H     0.66875   0.59136   0.51312   0.00000  Uiso   1.00
H643   H     0.68293   0.45963   0.90109   0.00000  Uiso   1.00
H644   H     0.72348   0.47606   0.54921   0.00000  Uiso   1.00
H645   H     0.98292   0.44879   0.99378   0.00000  Uiso   1.00
H646   H     0.89102   0.57251   0.88144   0.00000  Uiso   1.00
H647   H     0.90247   0.34647   0.75657   0.00000  Uiso   1.00
N648   N     0.98241   0.51407   0.76416   0.00000  Uiso   1.00
N649   N     0.68426   0.48593   0.73584   0.00000  Uiso   1.00
O650   O     0.79464   0.57141   0.74633   0.00000  Uiso   1.00
O651   O     0.89524   0.58089   0.75586   0.00000  Uiso   1.00
O652   O     0.75848   0.49293   0.81840   0.00000  Uiso   1.00
O653   O     0.85908   0.50241   0.82793   0.00000  Uiso   1.00
O654   O     0.77142   0.41911   0.74414   0.00000  Uiso   1.00
O655   O     0.87203   0.42859   0.75367   0.00000  Uiso   1.00
O656   O     0.80758   0.49759   0.67207   0.00000  Uiso   1.00
O657   O     0.90819   0.50707   0.68160   0.00000  Uiso   1.00
F658   F     0.98840   0.56621   0.60735   0.00000  Uiso   1.00
H659   H     0.76417   0.65353   0.74352   0.00000  Uiso   1.00
F660   F     0.79612   0.45352   0.58322   0.00000  Uiso   1.00
C661   C     0.18176   0.93340   0.75153   0.00000  Uiso   1.00
C662   C     0.13878   0.83790   0.98816   0.00000  Uiso   1.00
C663   C     0.15521   0.85251   0.93608   0.00000  Uiso   1.00
C664   C     0.18609   0.84965   0.51803   0.00000  Uiso   1.00
C665   C     0.24486   0.88367   0.99824   0.00000  Uiso   1.00
C666   C     0.25702   0.90328   0.94914   0.00000  Uiso   1.00
C667   C     0.21313   0.88786   0.91843   0.00000  Uiso   1.00
C668   C     0.17769   0.82812   0.56654   0.00000  Uiso   1.00
C669   C     0.27857   0.88113   0.57800   0.00000  Uiso   1.00
C670   C     0.11234   0.83255   0.90350   0.00000  Uiso   1.00
C671   C     0.19027   0.98935   0.75230   0.00000  Uiso   1.00
C672   C     0.13315   0.83272   0.84727   0.00000  Uiso   1.00
C673   C     0.14303   0.67731   0.74778   0.00000  Uiso   1.00
C674   C     0.15156   0.73327   0.74851   0.00000  Uiso   1.00
C675   C     0.20063   0.83715   0.65289   0.00000  Uiso   1.00
C676   C     0.29076   0.89840   0.52803   0.00000  Uiso   1.00
C677   C     0.22123   0.84684   0.59783   0.00000  Uiso   1.00
C678   C     0.05025   0.80747   0.92495   0.00000  Uiso   1.00
C679   C     0.03144   0.80008   0.97737   0.00000  Uiso   1.00
C680   C     0.07503   0.81451   0.50871   0.00000  Uiso   1.00
Cu681  Cu    0.10710   0.82772   0.74436   0.00000  Uiso   1.00
Cu682  Cu    0.22623   0.83895   0.75564   0.00000  Uiso   1.00
H683   H     0.00361   0.87256   0.78969   0.00000  Uiso   1.00
H684   H     0.32970   0.79409   0.71033   0.00000  Uiso   1.00
H685   H     0.30103   0.93038   0.93414   0.00000  Uiso   1.00
H686   H     0.00209   0.92470   0.51312   0.00000  Uiso   1.00
H687   H     0.01627   0.79297   0.90109   0.00000  Uiso   1.00
H688   H     0.05682   0.80939   0.54921   0.00000  Uiso   1.00
H689   H     0.31625   0.78213   0.99378   0.00000  Uiso   1.00
H690   H     0.22435   0.90585   0.88144   0.00000  Uiso   1.00
H691   H     0.23580   0.67980   0.75657   0.00000  Uiso   1.00
N692   N     0.31574   0.84741   0.76416   0.00000  Uiso   1.00
N693   N     0.01759   0.81926   0.73584   0.00000  Uiso   1.00
O694   O     0.12797   0.90474   0.74633   0.00000  Uiso   1.00
O695   O     0.22858   0.91422   0.75586   0.00000  Uiso   1.00
O696   O     0.09181   0.82627   0.81840   0.00000  Uiso   1.00
O697   O     0.19242   0.83575   0.82793   0.00000  Uiso   1.00
O698   O     0.10476   0.75245   0.74414   0.00000  Uiso   1.00
O699   O     0.20536   0.76193   0.75367   0.00000  Uiso   1.00
O700   O     0.14092   0.83092   0.67207   0.00000  Uiso   1.00
O701   O     0.24152   0.84040   0.68160   0.00000  Uiso   1.00
F702   F     0.32173   0.89954   0.60735   0.00000  Uiso   1.00
H703   H     0.09750   0.98686   0.74352   0.00000  Uiso   1.00
F704   F     0.12945   0.78686   0.58322   0.00000  Uiso   1.00
C705   C     0.51510   0.93340   0.75153   0.00000  Uiso   1.00
C706   C     0.47212   0.83790   0.98816   0.00000  Uiso   1.00
C707   C     0.48854   0.85251   0.93608   0.00000  Uiso   1.00
C708   C     0.51943   0.84965   0.51803   0.00000  Uiso   1.00
C709   C     0.57819   0.88367   0.99824   0.00000  Uiso   1.00
C710   C     0.59036   0.90328   0.94914   0.00000  Uiso   1.00
C711   C     0.54646   0.88786   0.91843   0.00000  Uiso   1.00
C712   C     0.51102   0.82812   0.56654   0.00000  Uiso   1.00
C713   C     0.61190   0.88113   0.57800   0.00000  Uiso   1.00
C714   C     0.44567   0.83255   0.90350   0.00000  Uiso   1.00
C715   C     0.52360   0.98935   0.75230   0.00000  Uiso   1.00
C716   C     0.46648   0.83272   0.84727   0.00000  Uiso   1.00
C717   C     0.47637   0.67731   0.74778   0.00000  Uiso   1.00
C718   C     0.48489   0.73327   0.74851   0.00000  Uiso   1.00
C719   C     0.53397   0.83715   0.65289   0.00000  Uiso   1.00
C720   C     0.62409   0.89840   0.52803   0.00000  Uiso   1.00
C721   C     0.55457   0.84684   0.59783   0.00000  Uiso   1.00
C722   C     0.38359   0.80747   0.92495   0.00000  Uiso   1.00
C723   C     0.36477   0.80008   0.97737   0.00000  Uiso   1.00
C724   C     0.40837   0.81451   0.50871   0.00000  Uiso   1.00
Cu725  Cu    0.44043   0.82772   0.74436   0.00000  Uiso   1.00
Cu726  Cu    0.55957   0.83895   0.75564   0.00000  Uiso   1.00
H727   H     0.33695   0.87256   0.78969   0.00000  Uiso   1.00
H728   H     0.66303   0.79409   0.71033   0.00000  Uiso   1.00
H729   H     0.63437   0.93038   0.93414   0.00000  Uiso   1.00
H730   H     0.33542   0.92470   0.51312   0.00000  Uiso   1.00
H731   H     0.34960   0.79297   0.90109   0.00000  Uiso   1.00
H732   H     0.39015   0.80939   0.54921   0.00000  Uiso   1.00
H733   H     0.64958   0.78213   0.99378   0.00000  Uiso   1.00
H734   H     0.55769   0.90585   0.88144   0.00000  Uiso   1.00
H735   H     0.56913   0.67980   0.75657   0.00000  Uiso   1.00
N736   N     0.64908   0.84741   0.76416   0.00000  Uiso   1.00
N737   N     0.35092   0.81926   0.73584   0.00000  Uiso   1.00
O738   O     0.46131   0.90474   0.74633   0.00000  Uiso   1.00
O739   O     0.56191   0.91422   0.75586   0.00000  Uiso   1.00
O740   O     0.42515   0.82627   0.81840   0.00000  Uiso   1.00
O741   O     0.52575   0.83575   0.82793   0.00000  Uiso   1.00
O742   O     0.43809   0.75245   0.74414   0.00000  Uiso   1.00
O743   O     0.53869   0.76193   0.75367   0.00000  Uiso   1.00
O744   O     0.47425   0.83092   0.67207   0.00000  Uiso   1.00
O745   O     0.57485   0.84040   0.68160   0.00000  Uiso   1.00
F746   F     0.65506   0.89954   0.60735   0.00000  Uiso   1.00
H747   H     0.43083   0.98686   0.74352   0.00000  Uiso   1.00
F748   F     0.46279   0.78686   0.58322   0.00000  Uiso   1.00
C749   C     0.84843   0.93340   0.75153   0.00000  Uiso   1.00
C750   C     0.80545   0.83790   0.98816   0.00000  Uiso   1.00
C751   C     0.82187   0.85251   0.93608   0.00000  Uiso   1.00
C752   C     0.85276   0.84965   0.51803   0.00000  Uiso   1.00
C753   C     0.91152   0.88367   0.99824   0.00000  Uiso   1.00
C754   C     0.92369   0.90328   0.94914   0.00000  Uiso   1.00
C755   C     0.87979   0.88786   0.91843   0.00000  Uiso   1.00
C756   C     0.84435   0.82812   0.56654   0.00000  Uiso   1.00
C757   C     0.94524   0.88113   0.57800   0.00000  Uiso   1.00
C758   C     0.77900   0.83255   0.90350   0.00000  Uiso   1.00
C759   C     0.85694   0.98935   0.75230   0.00000  Uiso   1.00
C760   C     0.79982   0.83272   0.84727   0.00000  Uiso   1.00
C761   C     0.80970   0.67731   0.74778   0.00000  Uiso   1.00
C762   C     0.81822   0.73327   0.74851   0.00000  Uiso   1.00
C763   C     0.86730   0.83715   0.65289   0.00000  Uiso   1.00
C764   C     0.95742   0.89840   0.52803   0.00000  Uiso   1.00
C765   C     0.88790   0.84684   0.59783   0.00000  Uiso   1.00
C766   C     0.71692   0.80747   0.92495   0.00000  Uiso   1.00
C767   C     0.69810   0.80008   0.97737   0.00000  Uiso   1.00
C768   C     0.74170   0.81451   0.50871   0.00000  Uiso   1.00
Cu769  Cu    0.77377   0.82772   0.74436   0.00000  Uiso   1.00
Cu770  Cu    0.89290   0.83895   0.75564   0.00000  Uiso   1.00
H771   H     0.67028   0.87256   0.78969   0.00000  Uiso   1.00
H772   H     0.99637   0.79409   0.71033   0.00000  Uiso   1.00
H773   H     0.96770   0.93038   0.93414   0.00000  Uiso   1.00
H774   H     0.66875   0.92470   0.51312   0.00000  Uiso   1.00
H775   H     0.68293   0.79297   0.90109   0.00000  Uiso   1.00
H776   H     0.72348   0.80939   0.54921   0.00000  Uiso   1.00
H777   H     0.98292   0.78213   0.99378   0.00000  Uiso   1.00
H778   H     0.89102   0.90585   0.88144   0.00000  Uiso   1.00
H779   H     0.90247   0.67980   0.75657   0.00000  Uiso   1.00
N780   N     0.98241   0.84741   0.76416   0.00000  Uiso   1.00
N781   N     0.68426   0.81926   0.73584   0.00000  Uiso   1.00
O782   O     0.79464   0.90474   0.74633   0.00000  Uiso   1.00
O783   O     0.89524   0.91422   0.75586   0.00000  Uiso   1.00
O784   O     0.75848   0.82627   0.81840   0.00000  Uiso   1.00
O785   O     0.85908   0.83575   0.82793   0.00000  Uiso   1.00
O786   O     0.77142   0.75245   0.74414   0.00000  Uiso   1.00
O787   O     0.87203   0.76193   0.75367   0.00000  Uiso   1.00
O788   O     0.80758   0.83092   0.67207   0.00000  Uiso   1.00
O789   O     0.90819   0.84040   0.68160   0.00000  Uiso   1.00
F790   F     0.98840   0.89954   0.60735   0.00000  Uiso   1.00
H791   H     0.76417   0.98686   0.74352   0.00000  Uiso   1.00
F792   F     0.79612   0.78686   0.58322   0.00000  Uiso   1.00
loop_
_geom_bond_atom_site_label_1
_geom_bond_atom_site_label_2
_geom_bond_distance
_geom_bond_site_symmetry_2
_ccdc_geom_bond_type
C1     C11     1.428   .     S
C1     O34     1.291   .     A
C1     O35     1.285   .     A
C2     C3      1.418   .     A
C2     C400    1.426   .     S
C2     C416    1.416   .     S
C3     C10     1.422   .     A
C3     C7      1.412   .     A
C4     C8      1.409   .     A
C4     C398    1.426   1_554 S
C4     C401    1.420   1_554 S
C5     C6      1.393   .     A
C5     C400    1.420   .     S
C5     C412    1.402   .     S
C6     C7      1.387   .     A
C6     H25     1.084   .     S
C7     H30     1.080   .     S
C8     C17     1.402   .     A
C8     F44     1.358   .     S
C9     F42     1.358   .     S
C9     C17     1.402   .     A
C9     C16     1.392   .     A
C10    C18     1.402   .     A
C10    C12     1.475   .     S
C11    C145    1.328   .     S
C11    H163    1.088   .     S
C12    O36     1.304   .     A
C12    O37     1.296   .     A
C13    C14     1.428   .     S
C13    C275    1.328   1_545 S
C13    H307    1.088   1_545 S
C14    O38     1.285   .     A
C14    O39     1.291   .     A
C15    O41     1.301   .     A
C15    O40     1.295   .     A
C15    C17     1.467   .     S
C16    C401    1.402   1_554 S
C16    H70     1.084   .     S
C18    C19     1.388   .     A
C18    H27     1.083   .     S
C19    C416    1.392   .     S
C19    H117    1.083   1_455 S
C20    H28     1.078   .     S
C20    C398    1.416   1_554 S
C20    C415    1.392   1_554 S
Cu21   Cu22    2.686   .     S
Cu21   O40     1.918   .     S
Cu21   O38     1.952   .     S
Cu21   N33     2.019   .     S
Cu21   O36     1.938   .     S
Cu21   O34     1.956   .     S
Cu22   O35     1.952   .     S
Cu22   N32     2.019   .     S
Cu22   O39     1.956   .     S
Cu22   O41     1.938   .     S
Cu22   O37     1.918   .     S
H23    N120    1.029   1_455 S
H24    N77     1.029   .     S
H26    C104    1.084   1_455 S
H29    C63     1.083   .     S
H31    C275    1.088   1_545 S
N32    H67     1.029   .     S
N32    N77     1.285   .     S
N33    N120    1.285   1_455 S
N33    H112    1.029   1_455 S
H43    C145    1.088   .     S
C45    C55     1.428   .     S
C45    O78     1.291   .     A
C45    O79     1.285   .     A
C46    C47     1.418   .     A
C46    C444    1.426   .     S
C46    C460    1.416   .     S
C47    C54     1.422   .     A
C47    C51     1.412   .     A
C48    C52     1.409   .     A
C48    C442    1.426   1_554 S
C48    C445    1.420   1_554 S
C49    C50     1.393   .     A
C49    C444    1.420   .     S
C49    C456    1.402   .     S
C50    C51     1.387   .     A
C50    H69     1.084   .     S
C51    H74     1.080   .     S
C52    C61     1.402   .     A
C52    F88     1.358   .     S
C53    F86     1.358   .     S
C53    C61     1.402   .     A
C53    C60     1.392   .     A
C54    C62     1.402   .     A
C54    C56     1.475   .     S
C55    C189    1.328   .     S
C55    H207    1.088   .     S
C56    O80     1.304   .     A
C56    O81     1.296   .     A
C57    C58     1.428   .     S
C57    C319    1.328   1_545 S
C57    H351    1.088   1_545 S
C58    O82     1.285   .     A
C58    O83     1.291   .     A
C59    O85     1.301   .     A
C59    O84     1.295   .     A
C59    C61     1.467   .     S
C60    C445    1.402   1_554 S
C60    H114    1.084   .     S
C62    C63     1.388   .     A
C62    H71     1.083   .     S
C63    C460    1.392   .     S
C64    H72     1.078   .     S
C64    C442    1.416   1_554 S
C64    C459    1.392   1_554 S
Cu65   Cu66    2.686   .     S
Cu65   O84     1.918   .     S
Cu65   O82     1.952   .     S
Cu65   N77     2.019   .     S
Cu65   O80     1.938   .     S
Cu65   O78     1.956   .     S
Cu66   O79     1.952   .     S
Cu66   N76     2.019   .     S
Cu66   O83     1.956   .     S
Cu66   O85     1.938   .     S
Cu66   O81     1.918   .     S
H68    N121    1.029   .     S
H73    C107    1.083   .     S
H75    C319    1.088   1_545 S
N76    H111    1.029   .     S
N76    N121    1.285   .     S
H87    C189    1.088   .     S
C89    C99     1.428   .     S
C89    O122    1.291   .     A
C89    O123    1.285   .     A
C90    C91     1.418   .     A
C90    C488    1.426   .     S
C90    C504    1.416   .     S
C91    C98     1.422   .     A
C91    C95     1.412   .     A
C92    C96     1.409   .     A
C92    C486    1.426   1_554 S
C92    C489    1.420   1_554 S
C93    C94     1.393   .     A
C93    C488    1.420   .     S
C93    C500    1.402   .     S
C94    C95     1.387   .     A
C94    H113    1.084   .     S
C95    H118    1.080   .     S
C96    C105    1.402   .     A
C96    F132    1.358   .     S
C97    F130    1.358   .     S
C97    C105    1.402   .     A
C97    C104    1.392   .     A
C98    C106    1.402   .     A
C98    C100    1.475   .     S
C99    C233    1.328   .     S
C99    H251    1.088   .     S
C100   O124    1.304   .     A
C100   O125    1.296   .     A
C101   C102    1.428   .     S
C101   C363    1.328   1_545 S
C101   H395    1.088   1_545 S
C102   O126    1.285   .     A
C102   O127    1.291   .     A
C103   O129    1.301   .     A
C103   O128    1.295   .     A
C103   C105    1.467   .     S
C104   C489    1.402   1_554 S
C104   H26     1.084   1_655 S
C106   C107    1.388   .     A
C106   H115    1.083   .     S
C107   C504    1.392   .     S
C108   H116    1.078   .     S
C108   C486    1.416   1_554 S
C108   C503    1.392   1_554 S
Cu109  Cu110   2.686   .     S
Cu109  O128    1.918   .     S
Cu109  O126    1.952   .     S
Cu109  N121    2.019   .     S
Cu109  O124    1.938   .     S
Cu109  O122    1.956   .     S
Cu110  O123    1.952   .     S
Cu110  N120    2.019   .     S
Cu110  O127    1.956   .     S
Cu110  O129    1.938   .     S
Cu110  O125    1.918   .     S
H112   N33     1.029   1_655 S
H117   C19     1.083   1_655 S
H119   C363    1.088   1_545 S
N120   H23     1.029   1_655 S
N120   N33     1.285   1_655 S
H131   C233    1.088   .     S
C133   C143    1.428   .     S
C133   O166    1.291   .     A
C133   O167    1.285   .     A
C134   C135    1.418   .     A
C134   C532    1.426   .     S
C134   C548    1.416   .     S
C135   C142    1.422   .     A
C135   C139    1.412   .     A
C136   C140    1.409   .     A
C136   C530    1.426   1_554 S
C136   C533    1.420   1_554 S
C137   C138    1.393   .     A
C137   C532    1.420   .     S
C137   C544    1.402   .     S
C138   C139    1.387   .     A
C138   H157    1.084   .     S
C139   H162    1.080   .     S
C140   C149    1.402   .     A
C140   F176    1.358   .     S
C141   F174    1.358   .     S
C141   C149    1.402   .     A
C141   C148    1.392   .     A
C142   C150    1.402   .     A
C142   C144    1.475   .     S
C143   C277    1.328   .     S
C143   H295    1.088   .     S
C144   O168    1.304   .     A
C144   O169    1.296   .     A
C145   C146    1.428   .     S
C146   O170    1.285   .     A
C146   O171    1.291   .     A
C147   O173    1.301   .     A
C147   O172    1.295   .     A
C147   C149    1.467   .     S
C148   C533    1.402   1_554 S
C148   H202    1.084   .     S
C150   C151    1.388   .     A
C150   H159    1.083   .     S
C151   C548    1.392   .     S
C151   H249    1.083   1_455 S
C152   H160    1.078   .     S
C152   C530    1.416   1_554 S
C152   C547    1.392   1_554 S
Cu153  Cu154   2.686   .     S
Cu153  O172    1.918   .     S
Cu153  O170    1.952   .     S
Cu153  N165    2.019   .     S
Cu153  O168    1.938   .     S
Cu153  O166    1.956   .     S
Cu154  O167    1.952   .     S
Cu154  N164    2.019   .     S
Cu154  O171    1.956   .     S
Cu154  O173    1.938   .     S
Cu154  O169    1.918   .     S
H155   N252    1.029   1_455 S
H156   N209    1.029   .     S
H158   C236    1.084   1_455 S
H161   C195    1.083   .     S
N164   H199    1.029   .     S
N164   N209    1.285   .     S
N165   N252    1.285   1_455 S
N165   H244    1.029   1_455 S
H175   C277    1.088   .     S
C177   C187    1.428   .     S
C177   O210    1.291   .     A
C177   O211    1.285   .     A
C178   C179    1.418   .     A
C178   C576    1.426   .     S
C178   C592    1.416   .     S
C179   C186    1.422   .     A
C179   C183    1.412   .     A
C180   C184    1.409   .     A
C180   C574    1.426   1_554 S
C180   C577    1.420   1_554 S
C181   C182    1.393   .     A
C181   C576    1.420   .     S
C181   C588    1.402   .     S
C182   C183    1.387   .     A
C182   H201    1.084   .     S
C183   H206    1.080   .     S
C184   C193    1.402   .     A
C184   F220    1.358   .     S
C185   F218    1.358   .     S
C185   C193    1.402   .     A
C185   C192    1.392   .     A
C186   C194    1.402   .     A
C186   C188    1.475   .     S
C187   C321    1.328   .     S
C187   H339    1.088   .     S
C188   O212    1.304   .     A
C188   O213    1.296   .     A
C189   C190    1.428   .     S
C190   O214    1.285   .     A
C190   O215    1.291   .     A
C191   O217    1.301   .     A
C191   O216    1.295   .     A
C191   C193    1.467   .     S
C192   C577    1.402   1_554 S
C192   H246    1.084   .     S
C194   C195    1.388   .     A
C194   H203    1.083   .     S
C195   C592    1.392   .     S
C196   H204    1.078   .     S
C196   C574    1.416   1_554 S
C196   C591    1.392   1_554 S
Cu197  Cu198   2.686   .     S
Cu197  O216    1.918   .     S
Cu197  O214    1.952   .     S
Cu197  N209    2.019   .     S
Cu197  O212    1.938   .     S
Cu197  O210    1.956   .     S
Cu198  O211    1.952   .     S
Cu198  N208    2.019   .     S
Cu198  O215    1.956   .     S
Cu198  O217    1.938   .     S
Cu198  O213    1.918   .     S
H200   N253    1.029   .     S
H205   C239    1.083   .     S
N208   H243    1.029   .     S
N208   N253    1.285   .     S
H219   C321    1.088   .     S
C221   C231    1.428   .     S
C221   O254    1.291   .     A
C221   O255    1.285   .     A
C222   C223    1.418   .     A
C222   C620    1.426   .     S
C222   C636    1.416   .     S
C223   C230    1.422   .     A
C223   C227    1.412   .     A
C224   C228    1.409   .     A
C224   C618    1.426   1_554 S
C224   C621    1.420   1_554 S
C225   C226    1.393   .     A
C225   C620    1.420   .     S
C225   C632    1.402   .     S
C226   C227    1.387   .     A
C226   H245    1.084   .     S
C227   H250    1.080   .     S
C228   C237    1.402   .     A
C228   F264    1.358   .     S
C229   F262    1.358   .     S
C229   C237    1.402   .     A
C229   C236    1.392   .     A
C230   C238    1.402   .     A
C230   C232    1.475   .     S
C231   C365    1.328   .     S
C231   H383    1.088   .     S
C232   O256    1.304   .     A
C232   O257    1.296   .     A
C233   C234    1.428   .     S
C234   O258    1.285   .     A
C234   O259    1.291   .     A
C235   O261    1.301   .     A
C235   O260    1.295   .     A
C235   C237    1.467   .     S
C236   C621    1.402   1_554 S
C236   H158    1.084   1_655 S
C238   C239    1.388   .     A
C238   H247    1.083   .     S
C239   C636    1.392   .     S
C240   H248    1.078   .     S
C240   C618    1.416   1_554 S
C240   C635    1.392   1_554 S
Cu241  Cu242   2.686   .     S
Cu241  O260    1.918   .     S
Cu241  O258    1.952   .     S
Cu241  N253    2.019   .     S
Cu241  O256    1.938   .     S
Cu241  O254    1.956   .     S
Cu242  O255    1.952   .     S
Cu242  N252    2.019   .     S
Cu242  O259    1.956   .     S
Cu242  O261    1.938   .     S
Cu242  O257    1.918   .     S
H244   N165    1.029   1_655 S
H249   C151    1.083   1_655 S
N252   H155    1.029   1_655 S
N252   N165    1.285   1_655 S
H263   C365    1.088   .     S
C265   C275    1.428   .     S
C265   O298    1.291   .     A
C265   O299    1.285   .     A
C266   C267    1.418   .     A
C266   C664    1.426   .     S
C266   C680    1.416   .     S
C267   C274    1.422   .     A
C267   C271    1.412   .     A
C268   C272    1.409   .     A
C268   C662    1.426   1_554 S
C268   C665    1.420   1_554 S
C269   C270    1.393   .     A
C269   C664    1.420   .     S
C269   C676    1.402   .     S
C270   C271    1.387   .     A
C270   H289    1.084   .     S
C271   H294    1.080   .     S
C272   C281    1.402   .     A
C272   F308    1.358   .     S
C273   F306    1.358   .     S
C273   C281    1.402   .     A
C273   C280    1.392   .     A
C274   C282    1.402   .     A
C274   C276    1.475   .     S
C275   C13     1.328   1_565 S
C275   H31     1.088   1_565 S
C276   O300    1.304   .     A
C276   O301    1.296   .     A
C277   C278    1.428   .     S
C278   O302    1.285   .     A
C278   O303    1.291   .     A
C279   O305    1.301   .     A
C279   O304    1.295   .     A
C279   C281    1.467   .     S
C280   C665    1.402   1_554 S
C280   H334    1.084   .     S
C282   C283    1.388   .     A
C282   H291    1.083   .     S
C283   C680    1.392   .     S
C283   H381    1.083   1_455 S
C284   H292    1.078   .     S
C284   C662    1.416   1_554 S
C284   C679    1.392   1_554 S
Cu285  Cu286   2.686   .     S
Cu285  O304    1.918   .     S
Cu285  O302    1.952   .     S
Cu285  N297    2.019   .     S
Cu285  O300    1.938   .     S
Cu285  O298    1.956   .     S
Cu286  O299    1.952   .     S
Cu286  N296    2.019   .     S
Cu286  O303    1.956   .     S
Cu286  O305    1.938   .     S
Cu286  O301    1.918   .     S
H287   N384    1.029   1_455 S
H288   N341    1.029   .     S
H290   C368    1.084   1_455 S
H293   C327    1.083   .     S
N296   H331    1.029   .     S
N296   N341    1.285   .     S
N297   N384    1.285   1_455 S
N297   H376    1.029   1_455 S
H307   C13     1.088   1_565 S
C309   C319    1.428   .     S
C309   O342    1.291   .     A
C309   O343    1.285   .     A
C310   C311    1.418   .     A
C310   C708    1.426   .     S
C310   C724    1.416   .     S
C311   C318    1.422   .     A
C311   C315    1.412   .     A
C312   C316    1.409   .     A
C312   C706    1.426   1_554 S
C312   C709    1.420   1_554 S
C313   C314    1.393   .     A
C313   C708    1.420   .     S
C313   C720    1.402   .     S
C314   C315    1.387   .     A
C314   H333    1.084   .     S
C315   H338    1.080   .     S
C316   C325    1.402   .     A
C316   F352    1.358   .     S
C317   F350    1.358   .     S
C317   C325    1.402   .     A
C317   C324    1.392   .     A
C318   C326    1.402   .     A
C318   C320    1.475   .     S
C319   C57     1.328   1_565 S
C319   H75     1.088   1_565 S
C320   O344    1.304   .     A
C320   O345    1.296   .     A
C321   C322    1.428   .     S
C322   O346    1.285   .     A
C322   O347    1.291   .     A
C323   O349    1.301   .     A
C323   O348    1.295   .     A
C323   C325    1.467   .     S
C324   C709    1.402   1_554 S
C324   H378    1.084   .     S
C326   C327    1.388   .     A
C326   H335    1.083   .     S
C327   C724    1.392   .     S
C328   H336    1.078   .     S
C328   C706    1.416   1_554 S
C328   C723    1.392   1_554 S
Cu329  Cu330   2.686   .     S
Cu329  O348    1.918   .     S
Cu329  O346    1.952   .     S
Cu329  N341    2.019   .     S
Cu329  O344    1.938   .     S
Cu329  O342    1.956   .     S
Cu330  O343    1.952   .     S
Cu330  N340    2.019   .     S
Cu330  O347    1.956   .     S
Cu330  O349    1.938   .     S
Cu330  O345    1.918   .     S
H332   N385    1.029   .     S
H337   C371    1.083   .     S
N340   H375    1.029   .     S
N340   N385    1.285   .     S
H351   C57     1.088   1_565 S
C353   C363    1.428   .     S
C353   O386    1.291   .     A
C353   O387    1.285   .     A
C354   C355    1.418   .     A
C354   C752    1.426   .     S
C354   C768    1.416   .     S
C355   C362    1.422   .     A
C355   C359    1.412   .     A
C356   C360    1.409   .     A
C356   C750    1.426   1_554 S
C356   C753    1.420   1_554 S
C357   C358    1.393   .     A
C357   C752    1.420   .     S
C357   C764    1.402   .     S
C358   C359    1.387   .     A
C358   H377    1.084   .     S
C359   H382    1.080   .     S
C360   C369    1.402   .     A
C360   F396    1.358   .     S
C361   F394    1.358   .     S
C361   C369    1.402   .     A
C361   C368    1.392   .     A
C362   C370    1.402   .     A
C362   C364    1.475   .     S
C363   C101    1.328   1_565 S
C363   H119    1.088   1_565 S
C364   O388    1.304   .     A
C364   O389    1.296   .     A
C365   C366    1.428   .     S
C366   O390    1.285   .     A
C366   O391    1.291   .     A
C367   O393    1.301   .     A
C367   O392    1.295   .     A
C367   C369    1.467   .     S
C368   C753    1.402   1_554 S
C368   H290    1.084   1_655 S
C370   C371    1.388   .     A
C370   H379    1.083   .     S
C371   C768    1.392   .     S
C372   H380    1.078   .     S
C372   C750    1.416   1_554 S
C372   C767    1.392   1_554 S
Cu373  Cu374   2.686   .     S
Cu373  O392    1.918   .     S
Cu373  O390    1.952   .     S
Cu373  N385    2.019   .     S
Cu373  O388    1.938   .     S
Cu373  O386    1.956   .     S
Cu374  O387    1.952   .     S
Cu374  N384    2.019   .     S
Cu374  O391    1.956   .     S
Cu374  O393    1.938   .     S
Cu374  O389    1.918   .     S
H376   N297    1.029   1_655 S
H381   C283    1.083   1_655 S
N384   H287    1.029   1_655 S
N384   N297    1.285   1_655 S
H395   C101    1.088   1_565 S
C397   C407    1.428   .     S
C397   O430    1.291   .     A
C397   O431    1.285   .     A
C398   C399    1.418   .     A
C398   C4      1.426   1_556 S
C398   C20     1.416   1_556 S
C399   C406    1.422   .     A
C399   C403    1.412   .     A
C400   C404    1.409   .     A
C401   C402    1.393   .     A
C401   C4      1.420   1_556 S
C401   C16     1.402   1_556 S
C402   C403    1.387   .     A
C402   H421    1.084   .     S
C403   H426    1.080   .     S
C404   C413    1.402   .     A
C404   F440    1.358   .     S
C405   F438    1.358   .     S
C405   C413    1.402   .     A
C405   C412    1.392   .     A
C406   C414    1.402   .     A
C406   C408    1.475   .     S
C407   C541    1.328   .     S
C407   H559    1.088   .     S
C408   O432    1.304   .     A
C408   O433    1.296   .     A
C409   C410    1.428   .     S
C409   C671    1.328   1_545 S
C409   H703    1.088   1_545 S
C410   O434    1.285   .     A
C410   O435    1.291   .     A
C411   O437    1.301   .     A
C411   O436    1.295   .     A
C411   C413    1.467   .     S
C412   H466    1.084   .     S
C414   C415    1.388   .     A
C414   H423    1.083   .     S
C415   C20     1.392   1_556 S
C415   H513    1.083   1_455 S
C416   H424    1.078   .     S
Cu417  Cu418   2.686   .     S
Cu417  O436    1.918   .     S
Cu417  O434    1.952   .     S
Cu417  N429    2.019   .     S
Cu417  O432    1.938   .     S
Cu417  O430    1.956   .     S
Cu418  O431    1.952   .     S
Cu418  N428    2.019   .     S
Cu418  O435    1.956   .     S
Cu418  O437    1.938   .     S
Cu418  O433    1.918   .     S
H419   N516    1.029   1_455 S
H420   N473    1.029   .     S
H422   C500    1.084   1_455 S
H425   C459    1.083   .     S
H427   C671    1.088   1_545 S
N428   H463    1.029   .     S
N428   N473    1.285   .     S
N429   N516    1.285   1_455 S
N429   H508    1.029   1_455 S
H439   C541    1.088   .     S
C441   C451    1.428   .     S
C441   O474    1.291   .     A
C441   O475    1.285   .     A
C442   C443    1.418   .     A
C442   C48     1.426   1_556 S
C442   C64     1.416   1_556 S
C443   C450    1.422   .     A
C443   C447    1.412   .     A
C444   C448    1.409   .     A
C445   C446    1.393   .     A
C445   C48     1.420   1_556 S
C445   C60     1.402   1_556 S
C446   C447    1.387   .     A
C446   H465    1.084   .     S
C447   H470    1.080   .     S
C448   C457    1.402   .     A
C448   F484    1.358   .     S
C449   F482    1.358   .     S
C449   C457    1.402   .     A
C449   C456    1.392   .     A
C450   C458    1.402   .     A
C450   C452    1.475   .     S
C451   C585    1.328   .     S
C451   H603    1.088   .     S
C452   O476    1.304   .     A
C452   O477    1.296   .     A
C453   C454    1.428   .     S
C453   C715    1.328   1_545 S
C453   H747    1.088   1_545 S
C454   O478    1.285   .     A
C454   O479    1.291   .     A
C455   O481    1.301   .     A
C455   O480    1.295   .     A
C455   C457    1.467   .     S
C456   H510    1.084   .     S
C458   C459    1.388   .     A
C458   H467    1.083   .     S
C459   C64     1.392   1_556 S
C460   H468    1.078   .     S
Cu461  Cu462   2.686   .     S
Cu461  O480    1.918   .     S
Cu461  O478    1.952   .     S
Cu461  N473    2.019   .     S
Cu461  O476    1.938   .     S
Cu461  O474    1.956   .     S
Cu462  O475    1.952   .     S
Cu462  N472    2.019   .     S
Cu462  O479    1.956   .     S
Cu462  O481    1.938   .     S
Cu462  O477    1.918   .     S
H464   N517    1.029   .     S
H469   C503    1.083   .     S
H471   C715    1.088   1_545 S
N472   H507    1.029   .     S
N472   N517    1.285   .     S
H483   C585    1.088   .     S
C485   C495    1.428   .     S
C485   O518    1.291   .     A
C485   O519    1.285   .     A
C486   C487    1.418   .     A
C486   C92     1.426   1_556 S
C486   C108    1.416   1_556 S
C487   C494    1.422   .     A
C487   C491    1.412   .     A
C488   C492    1.409   .     A
C489   C490    1.393   .     A
C489   C92     1.420   1_556 S
C489   C104    1.402   1_556 S
C490   C491    1.387   .     A
C490   H509    1.084   .     S
C491   H514    1.080   .     S
C492   C501    1.402   .     A
C492   F528    1.358   .     S
C493   F526    1.358   .     S
C493   C501    1.402   .     A
C493   C500    1.392   .     A
C494   C502    1.402   .     A
C494   C496    1.475   .     S
C495   C629    1.328   .     S
C495   H647    1.088   .     S
C496   O520    1.304   .     A
C496   O521    1.296   .     A
C497   C498    1.428   .     S
C497   C759    1.328   1_545 S
C497   H791    1.088   1_545 S
C498   O522    1.285   .     A
C498   O523    1.291   .     A
C499   O525    1.301   .     A
C499   O524    1.295   .     A
C499   C501    1.467   .     S
C500   H422    1.084   1_655 S
C502   C503    1.388   .     A
C502   H511    1.083   .     S
C503   C108    1.392   1_556 S
C504   H512    1.078   .     S
Cu505  Cu506   2.686   .     S
Cu505  O524    1.918   .     S
Cu505  O522    1.952   .     S
Cu505  N517    2.019   .     S
Cu505  O520    1.938   .     S
Cu505  O518    1.956   .     S
Cu506  O519    1.952   .     S
Cu506  N516    2.019   .     S
Cu506  O523    1.956   .     S
Cu506  O525    1.938   .     S
Cu506  O521    1.918   .     S
H508   N429    1.029   1_655 S
H513   C415    1.083   1_655 S
H515   C759    1.088   1_545 S
N516   H419    1.029   1_655 S
N516   N429    1.285   1_655 S
H527   C629    1.088   .     S
C529   C539    1.428   .     S
C529   O562    1.291   .     A
C529   O563    1.285   .     A
C530   C531    1.418   .     A
C530   C136    1.426   1_556 S
C530   C152    1.416   1_556 S
C531   C538    1.422   .     A
C531   C535    1.412   .     A
C532   C536    1.409   .     A
C533   C534    1.393   .     A
C533   C136    1.420   1_556 S
C533   C148    1.402   1_556 S
C534   C535    1.387   .     A
C534   H553    1.084   .     S
C535   H558    1.080   .     S
C536   C545    1.402   .     A
C536   F572    1.358   .     S
C537   F570    1.358   .     S
C537   C545    1.402   .     A
C537   C544    1.392   .     A
C538   C546    1.402   .     A
C538   C540    1.475   .     S
C539   C673    1.328   .     S
C539   H691    1.088   .     S
C540   O564    1.304   .     A
C540   O565    1.296   .     A
C541   C542    1.428   .     S
C542   O566    1.285   .     A
C542   O567    1.291   .     A
C543   O569    1.301   .     A
C543   O568    1.295   .     A
C543   C545    1.467   .     S
C544   H598    1.084   .     S
C546   C547    1.388   .     A
C546   H555    1.083   .     S
C547   C152    1.392   1_556 S
C547   H645    1.083   1_455 S
C548   H556    1.078   .     S
Cu549  Cu550   2.686   .     S
Cu549  O568    1.918   .     S
Cu549  O566    1.952   .     S
Cu549  N561    2.019   .     S
Cu549  O564    1.938   .     S
Cu549  O562    1.956   .     S
Cu550  O563    1.952   .     S
Cu550  N560    2.019   .     S
Cu550  O567    1.956   .     S
Cu550  O569    1.938   .     S
Cu550  O565    1.918   .     S
H551   N648    1.029   1_455 S
H552   N605    1.029   .     S
H554   C632    1.084   1_455 S
H557   C591    1.083   .     S
N560   H595    1.029   .     S
N560   N605    1.285   .     S
N561   N648    1.285   1_455 S
N561   H640    1.029   1_455 S
H571   C673    1.088   .     S
C573   C583    1.428   .     S
C573   O606    1.291   .     A
C573   O607    1.285   .     A
C574   C575    1.418   .     A
C574   C180    1.426   1_556 S
C574   C196    1.416   1_556 S
C575   C582    1.422   .     A
C575   C579    1.412   .     A
C576   C580    1.409   .     A
C577   C578    1.393   .     A
C577   C180    1.420   1_556 S
C577   C192    1.402   1_556 S
C578   C579    1.387   .     A
C578   H597    1.084   .     S
C579   H602    1.080   .     S
C580   C589    1.402   .     A
C580   F616    1.358   .     S
C581   F614    1.358   .     S
C581   C589    1.402   .     A
C581   C588    1.392   .     A
C582   C590    1.402   .     A
C582   C584    1.475   .     S
C583   C717    1.328   .     S
C583   H735    1.088   .     S
C584   O608    1.304   .     A
C584   O609    1.296   .     A
C585   C586    1.428   .     S
C586   O610    1.285   .     A
C586   O611    1.291   .     A
C587   O613    1.301   .     A
C587   O612    1.295   .     A
C587   C589    1.467   .     S
C588   H642    1.084   .     S
C590   C591    1.388   .     A
C590   H599    1.083   .     S
C591   C196    1.392   1_556 S
C592   H600    1.078   .     S
Cu593  Cu594   2.686   .     S
Cu593  O612    1.918   .     S
Cu593  O610    1.952   .     S
Cu593  N605    2.019   .     S
Cu593  O608    1.938   .     S
Cu593  O606    1.956   .     S
Cu594  O607    1.952   .     S
Cu594  N604    2.019   .     S
Cu594  O611    1.956   .     S
Cu594  O613    1.938   .     S
Cu594  O609    1.918   .     S
H596   N649    1.029   .     S
H601   C635    1.083   .     S
N604   H639    1.029   .     S
N604   N649    1.285   .     S
H615   C717    1.088   .     S
C617   C627    1.428   .     S
C617   O650    1.291   .     A
C617   O651    1.285   .     A
C618   C619    1.418   .     A
C618   C224    1.426   1_556 S
C618   C240    1.416   1_556 S
C619   C626    1.422   .     A
C619   C623    1.412   .     A
C620   C624    1.409   .     A
C621   C622    1.393   .     A
C621   C224    1.420   1_556 S
C621   C236    1.402   1_556 S
C622   C623    1.387   .     A
C622   H641    1.084   .     S
C623   H646    1.080   .     S
C624   C633    1.402   .     A
C624   F660    1.358   .     S
C625   F658    1.358   .     S
C625   C633    1.402   .     A
C625   C632    1.392   .     A
C626   C634    1.402   .     A
C626   C628    1.475   .     S
C627   C761    1.328   .     S
C627   H779    1.088   .     S
C628   O652    1.304   .     A
C628   O653    1.296   .     A
C629   C630    1.428   .     S
C630   O654    1.285   .     A
C630   O655    1.291   .     A
C631   O657    1.301   .     A
C631   O656    1.295   .     A
C631   C633    1.467   .     S
C632   H554    1.084   1_655 S
C634   C635    1.388   .     A
C634   H643    1.083   .     S
C635   C240    1.392   1_556 S
C636   H644    1.078   .     S
Cu637  Cu638   2.686   .     S
Cu637  O656    1.918   .     S
Cu637  O654    1.952   .     S
Cu637  N649    2.019   .     S
Cu637  O652    1.938   .     S
Cu637  O650    1.956   .     S
Cu638  O651    1.952   .     S
Cu638  N648    2.019   .     S
Cu638  O655    1.956   .     S
Cu638  O657    1.938   .     S
Cu638  O653    1.918   .     S
H640   N561    1.029   1_655 S
H645   C547    1.083   1_655 S
N648   H551    1.029   1_655 S
N648   N561    1.285   1_655 S
H659   C761    1.088   .     S
C661   C671    1.428   .     S
C661   O694    1.291   .     A
C661   O695    1.285   .     A
C662   C663    1.418   .     A
C662   C268    1.426   1_556 S
C662   C284    1.416   1_556 S
C663   C670    1.422   .     A
C663   C667    1.412   .     A
C664   C668    1.409   .     A
C665   C666    1.393   .     A
C665   C268    1.420   1_556 S
C665   C280    1.402   1_556 S
C666   C667    1.387   .     A
C666   H685    1.084   .     S
C667   H690    1.080   .     S
C668   C677    1.402   .     A
C668   F704    1.358   .     S
C669   F702    1.358   .     S
C669   C677    1.402   .     A
C669   C676    1.392   .     A
C670   C678    1.402   .     A
C670   C672    1.475   .     S
C671   C409    1.328   1_565 S
C671   H427    1.088   1_565 S
C672   O696    1.304   .     A
C672   O697    1.296   .     A
C673   C674    1.428   .     S
C674   O698    1.285   .     A
C674   O699    1.291   .     A
C675   O701    1.301   .     A
C675   O700    1.295   .     A
C675   C677    1.467   .     S
C676   H730    1.084   .     S
C678   C679    1.388   .     A
C678   H687    1.083   .     S
C679   C284    1.392   1_556 S
C679   H777    1.083   1_455 S
C680   H688    1.078   .     S
Cu681  Cu682   2.686   .     S
Cu681  O700    1.918   .     S
Cu681  O698    1.952   .     S
Cu681  N693    2.019   .     S
Cu681  O696    1.938   .     S
Cu681  O694    1.956   .     S
Cu682  O695    1.952   .     S
Cu682  N692    2.019   .     S
Cu682  O699    1.956   .     S
Cu682  O701    1.938   .     S
Cu682  O697    1.918   .     S
H683   N780    1.029   1_455 S
H684   N737    1.029   .     S
H686   C764    1.084   1_455 S
H689   C723    1.083   .     S
N692   H727    1.029   .     S
N692   N737    1.285   .     S
N693   N780    1.285   1_455 S
N693   H772    1.029   1_455 S
H703   C409    1.088   1_565 S
C705   C715    1.428   .     S
C705   O738    1.291   .     A
C705   O739    1.285   .     A
C706   C707    1.418   .     A
C706   C312    1.426   1_556 S
C706   C328    1.416   1_556 S
C707   C714    1.422   .     A
C707   C711    1.412   .     A
C708   C712    1.409   .     A
C709   C710    1.393   .     A
C709   C312    1.420   1_556 S
C709   C324    1.402   1_556 S
C710   C711    1.387   .     A
C710   H729    1.084   .     S
C711   H734    1.080   .     S
C712   C721    1.402   .     A
C712   F748    1.358   .     S
C713   F746    1.358   .     S
C713   C721    1.402   .     A
C713   C720    1.392   .     A
C714   C722    1.402   .     A
C714   C716    1.475   .     S
C715   C453    1.328   1_565 S
C715   H471    1.088   1_565 S
C716   O740    1.304   .     A
C716   O741    1.296   .     A
C717   C718    1.428   .     S
C718   O742    1.285   .     A
C718   O743    1.291   .     A
C719   O745    1.301   .     A
C719   O744    1.295   .     A
C719   C721    1.467   .     S
C720   H774    1.084   .     S
C722   C723    1.388   .     A
C722   H731    1.083   .     S
C723   C328    1.392   1_556 S
C724   H732    1.078   .     S
Cu725  Cu726   2.686   .     S
Cu725  O744    1.918   .     S
Cu725  O742    1.952   .     S
Cu725  N737    2.019   .     S
Cu725  O740    1.938   .     S
Cu725  O738    1.956   .     S
Cu726  O739    1.952   .     S
Cu726  N736    2.019   .     S
Cu726  O743    1.956   .     S
Cu726  O745    1.938   .     S
Cu726  O741    1.918   .     S
H728   N781    1.029   .     S
H733   C767    1.083   .     S
N736   H771    1.029   .     S
N736   N781    1.285   .     S
H747   C453    1.088   1_565 S
C749   C759    1.428   .     S
C749   O782    1.291   .     A
C749   O783    1.285   .     A
C750   C751    1.418   .     A
C750   C356    1.426   1_556 S
C750   C372    1.416   1_556 S
C751   C758    1.422   .     A
C751   C755    1.412   .     A
C752   C756    1.409   .     A
C753   C754    1.393   .     A
C753   C356    1.420   1_556 S
C753   C368    1.402   1_556 S
C754   C755    1.387   .     A
C754   H773    1.084   .     S
C755   H778    1.080   .     S
C756   C765    1.402   .     A
C756   F792    1.358   .     S
C757   F790    1.358   .     S
C757   C765    1.402   .     A
C757   C764    1.392   .     A
C758   C766    1.402   .     A
C758   C760    1.475   .     S
C759   C497    1.328   1_565 S
C759   H515    1.088   1_565 S
C760   O784    1.304   .     A
C760   O785    1.296   .     A
C761   C762    1.428   .     S
C762   O786    1.285   .     A
C762   O787    1.291   .     A
C763   O789    1.301   .     A
C763   O788    1.295   .     A
C763   C765    1.467   .     S
C764   H686    1.084   1_655 S
C766   C767    1.388   .     A
C766   H775    1.083   .     S
C767   C372    1.392   1_556 S
C768   H776    1.078   .     S
Cu769  Cu770   2.686   .     S
Cu769  O788    1.918   .     S
Cu769  O786    1.952   .     S
Cu769  N781    2.019   .     S
Cu769  O784    1.938   .     S
Cu769  O782    1.956   .     S
Cu770  O783    1.952   .     S
Cu770  N780    2.019   .     S
Cu770  O787    1.956   .     S
Cu770  O789    1.938   .     S
Cu770  O785    1.918   .     S
H772   N693    1.029   1_655 S
H777   C679    1.083   1_655 S
N780   H683    1.029   1_655 S
N780   N693    1.285   1_655 S
H791   C497    1.088   1_565 S
