data_str_m2_o2_o5_pcu_sym.74
_audit_creation_date              2020-01-03
_audit_creation_method            'Materials Studio'
_symmetry_space_group_name_H-M    'P1'
_symmetry_Int_Tables_number       1
_symmetry_cell_setting            triclinic
loop_
_symmetry_equiv_pos_as_xyz
  x,y,z
_cell_length_a                    30.5158
_cell_length_b                    27.9878
_cell_length_c                    27.4447
_cell_angle_alpha                 89.9076
_cell_angle_beta                  93.7044
_cell_angle_gamma                 89.2674
loop_
_atom_site_label
_atom_site_type_symbol
_atom_site_fract_x
_atom_site_fract_y
_atom_site_fract_z
_atom_site_U_iso_or_equiv
_atom_site_adp_type
_atom_site_occupancy
C1     C     0.16501   0.25012   0.16745   0.00000  Uiso   1.00
C2     C     0.28873   0.44545   0.17928   0.00000  Uiso   1.00
C3     C     0.24986   0.25002   0.07356   0.00000  Uiso   1.00
C4     C     0.25015   0.24997   0.25978   0.00000  Uiso   1.00
C5     C     0.24992   0.02722   0.16676   0.00000  Uiso   1.00
C6     C     0.25020   0.47274   0.16653   0.00000  Uiso   1.00
C7     C     0.24996   0.25002   0.02181   0.00000  Uiso   1.00
C8     C     0.25006   0.24996   0.31153   0.00000  Uiso   1.00
C9     C     0.04479   0.28275   0.14499   0.00000  Uiso   1.00
C10    C     0.45250   0.20281   0.16149   0.00000  Uiso   1.00
C11    C     0.45369   0.28824   0.17298   0.00000  Uiso   1.00
C12    C     0.33510   0.24952   0.16605   0.00000  Uiso   1.00
C13    C     0.05021   0.20810   0.18906   0.00000  Uiso   1.00
C14    C     0.09026   0.28748   0.14937   0.00000  Uiso   1.00
C15    C     0.40650   0.20335   0.16193   0.00000  Uiso   1.00
C16    C     0.40808   0.29035   0.16900   0.00000  Uiso   1.00
C17    C     0.09616   0.20905   0.18852   0.00000  Uiso   1.00
C18    C     0.11665   0.24937   0.16889   0.00000  Uiso   1.00
C19    C     0.38370   0.24776   0.16550   0.00000  Uiso   1.00
C20    C     0.02440   0.24467   0.16680   0.00000  Uiso   1.00
C21    C     0.47621   0.24493   0.16784   0.00000  Uiso   1.00
C22    C     0.09841   0.36721   0.16192   0.00000  Uiso   1.00
C23    C     0.27206   0.10367   0.20383   0.00000  Uiso   1.00
C24    C     0.39472   0.12772   0.19035   0.00000  Uiso   1.00
C25    C     0.38679   0.35363   0.12164   0.00000  Uiso   1.00
C26    C     0.11539   0.12994   0.18670   0.00000  Uiso   1.00
C27    C     0.26422   0.01599   0.27748   0.00000  Uiso   1.00
C28    C     0.15376   0.48103   0.18837   0.00000  Uiso   1.00
C29    C     0.23621   0.01758   0.05576   0.00000  Uiso   1.00
C30    C     0.34462   0.48506   0.14551   0.00000  Uiso   1.00
C31    C     0.21486   0.39679   0.14645   0.00000  Uiso   1.00
C32    C     0.22780   0.10436   0.12961   0.00000  Uiso   1.00
C33    C     0.28559   0.39566   0.18631   0.00000  Uiso   1.00
C34    C     0.27087   0.05333   0.20537   0.00000  Uiso   1.00
C35    C     0.21178   0.44658   0.15363   0.00000  Uiso   1.00
C36    C     0.22893   0.05402   0.12819   0.00000  Uiso   1.00
Cu37   Cu    0.25000   0.29821   0.16667   0.00000  Uiso   1.00
Cu38   Cu    0.25000   0.20178   0.16667   0.00000  Uiso   1.00
H39    H     0.02531   0.31019   0.12555   0.00000  Uiso   1.00
H40    H     0.06286   0.37065   0.16819   0.00000  Uiso   1.00
H41    H     0.10709   0.40081   0.14373   0.00000  Uiso   1.00
H42    H     0.39384   0.14366   0.22746   0.00000  Uiso   1.00
H43    H     0.42733   0.11103   0.18539   0.00000  Uiso   1.00
H44    H     0.37030   0.09867   0.18779   0.00000  Uiso   1.00
H45    H     0.37030   0.32919   0.09441   0.00000  Uiso   1.00
H46    H     0.42044   0.36209   0.11109   0.00000  Uiso   1.00
H47    H     0.36751   0.38736   0.12077   0.00000  Uiso   1.00
H48    H     0.11934   0.13423   0.14686   0.00000  Uiso   1.00
H49    H     0.08290   0.11438   0.19293   0.00000  Uiso   1.00
H50    H     0.46968   0.16962   0.15491   0.00000  Uiso   1.00
H51    H     0.14096   0.10405   0.20091   0.00000  Uiso   1.00
H52    H     0.24170   0.48802   0.26241   0.00000  Uiso   1.00
H53    H     0.24493   0.04710   0.29016   0.00000  Uiso   1.00
H54    H     0.28347   0.00005   0.30920   0.00000  Uiso   1.00
H55    H     0.17232   0.01033   0.20714   0.00000  Uiso   1.00
H56    H     0.11956   0.49412   0.18057   0.00000  Uiso   1.00
H57    H     0.15252   0.44950   0.21305   0.00000  Uiso   1.00
H58    H     0.25991   0.49013   0.07101   0.00000  Uiso   1.00
H59    H     0.25416   0.04889   0.04242   0.00000  Uiso   1.00
H60    H     0.21731   0.00103   0.02449   0.00000  Uiso   1.00
H61    H     0.47140   0.32127   0.17872   0.00000  Uiso   1.00
H62    H     0.33325   0.02257   0.13987   0.00000  Uiso   1.00
H63    H     0.33490   0.46360   0.11246   0.00000  Uiso   1.00
H64    H     0.38102   0.48534   0.14919   0.00000  Uiso   1.00
H65    H     0.03484   0.17920   0.20760   0.00000  Uiso   1.00
H66    H     0.30805   0.15492   0.22884   0.00000  Uiso   1.00
H67    H     0.19445   0.34736   0.10272   0.00000  Uiso   1.00
H68    H     0.19152   0.15636   0.10412   0.00000  Uiso   1.00
H69    H     0.30680   0.34674   0.23089   0.00000  Uiso   1.00
H70    H     0.11794   0.36454   0.19749   0.00000  Uiso   1.00
N71    N     0.25000   0.12934   0.16667   0.00000  Uiso   1.00
N72    N     0.25000   0.37065   0.16667   0.00000  Uiso   1.00
O73    O     0.18573   0.29071   0.16667   0.00000  Uiso   1.00
O74    O     0.18217   0.37614   0.11750   0.00000  Uiso   1.00
O75    O     0.20439   0.12692   0.09156   0.00000  Uiso   1.00
O76    O     0.31937   0.37360   0.21346   0.00000  Uiso   1.00
O77    O     0.10854   0.32828   0.13155   0.00000  Uiso   1.00
O78    O     0.38348   0.16146   0.15316   0.00000  Uiso   1.00
O79    O     0.38774   0.33460   0.16933   0.00000  Uiso   1.00
O80    O     0.12135   0.17340   0.21217   0.00000  Uiso   1.00
O81    O     0.29397   0.03027   0.24355   0.00000  Uiso   1.00
O82    O     0.17155   0.46901   0.14374   0.00000  Uiso   1.00
O83    O     0.20620   0.03173   0.08975   0.00000  Uiso   1.00
O84    O     0.31427   0.20928   0.16666   0.00000  Uiso   1.00
O85    O     0.32925   0.46633   0.18906   0.00000  Uiso   1.00
O86    O     0.31427   0.29071   0.16666   0.00000  Uiso   1.00
O87    O     0.18573   0.20928   0.16667   0.00000  Uiso   1.00
O88    O     0.25000   0.29071   0.09613   0.00000  Uiso   1.00
O89    O     0.25000   0.20929   0.23720   0.00000  Uiso   1.00
O90    O     0.25000   0.29071   0.23720   0.00000  Uiso   1.00
O91    O     0.25000   0.20929   0.09613   0.00000  Uiso   1.00
O92    O     0.29570   0.12559   0.24161   0.00000  Uiso   1.00
C93    C     0.66501   0.25012   0.16745   0.00000  Uiso   1.00
C94    C     0.78873   0.44545   0.17928   0.00000  Uiso   1.00
C95    C     0.74986   0.25002   0.07356   0.00000  Uiso   1.00
C96    C     0.75015   0.24997   0.25978   0.00000  Uiso   1.00
C97    C     0.74992   0.02722   0.16676   0.00000  Uiso   1.00
C98    C     0.75020   0.47274   0.16653   0.00000  Uiso   1.00
C99    C     0.74996   0.25002   0.02181   0.00000  Uiso   1.00
C100   C     0.75006   0.24996   0.31153   0.00000  Uiso   1.00
C101   C     0.54479   0.28275   0.14499   0.00000  Uiso   1.00
C102   C     0.95250   0.20281   0.16149   0.00000  Uiso   1.00
C103   C     0.95369   0.28824   0.17298   0.00000  Uiso   1.00
C104   C     0.83510   0.24952   0.16605   0.00000  Uiso   1.00
C105   C     0.55021   0.20810   0.18906   0.00000  Uiso   1.00
C106   C     0.59026   0.28748   0.14937   0.00000  Uiso   1.00
C107   C     0.90650   0.20335   0.16193   0.00000  Uiso   1.00
C108   C     0.90808   0.29035   0.16900   0.00000  Uiso   1.00
C109   C     0.59616   0.20905   0.18852   0.00000  Uiso   1.00
C110   C     0.61665   0.24937   0.16889   0.00000  Uiso   1.00
C111   C     0.88370   0.24776   0.16550   0.00000  Uiso   1.00
C112   C     0.52440   0.24467   0.16680   0.00000  Uiso   1.00
C113   C     0.97621   0.24493   0.16784   0.00000  Uiso   1.00
C114   C     0.59841   0.36721   0.16192   0.00000  Uiso   1.00
C115   C     0.77206   0.10367   0.20383   0.00000  Uiso   1.00
C116   C     0.89472   0.12772   0.19035   0.00000  Uiso   1.00
C117   C     0.88679   0.35363   0.12164   0.00000  Uiso   1.00
C118   C     0.61539   0.12994   0.18670   0.00000  Uiso   1.00
C119   C     0.76422   0.01599   0.27748   0.00000  Uiso   1.00
C120   C     0.65376   0.48103   0.18837   0.00000  Uiso   1.00
C121   C     0.73621   0.01758   0.05576   0.00000  Uiso   1.00
C122   C     0.84462   0.48506   0.14551   0.00000  Uiso   1.00
C123   C     0.71486   0.39679   0.14645   0.00000  Uiso   1.00
C124   C     0.72780   0.10436   0.12961   0.00000  Uiso   1.00
C125   C     0.78559   0.39566   0.18631   0.00000  Uiso   1.00
C126   C     0.77087   0.05333   0.20537   0.00000  Uiso   1.00
C127   C     0.71178   0.44658   0.15363   0.00000  Uiso   1.00
C128   C     0.72893   0.05402   0.12819   0.00000  Uiso   1.00
Cu129  Cu    0.75000   0.29821   0.16667   0.00000  Uiso   1.00
Cu130  Cu    0.75000   0.20178   0.16667   0.00000  Uiso   1.00
H131   H     0.52531   0.31019   0.12555   0.00000  Uiso   1.00
H132   H     0.56286   0.37065   0.16819   0.00000  Uiso   1.00
H133   H     0.60709   0.40081   0.14373   0.00000  Uiso   1.00
H134   H     0.89384   0.14366   0.22746   0.00000  Uiso   1.00
H135   H     0.92733   0.11103   0.18539   0.00000  Uiso   1.00
H136   H     0.87030   0.09867   0.18779   0.00000  Uiso   1.00
H137   H     0.87030   0.32919   0.09441   0.00000  Uiso   1.00
H138   H     0.92044   0.36209   0.11109   0.00000  Uiso   1.00
H139   H     0.86751   0.38736   0.12077   0.00000  Uiso   1.00
H140   H     0.61934   0.13423   0.14686   0.00000  Uiso   1.00
H141   H     0.58290   0.11438   0.19293   0.00000  Uiso   1.00
H142   H     0.96968   0.16962   0.15491   0.00000  Uiso   1.00
H143   H     0.64096   0.10405   0.20091   0.00000  Uiso   1.00
H144   H     0.74170   0.48802   0.26241   0.00000  Uiso   1.00
H145   H     0.74493   0.04710   0.29016   0.00000  Uiso   1.00
H146   H     0.78347   0.00005   0.30920   0.00000  Uiso   1.00
H147   H     0.67232   0.01033   0.20714   0.00000  Uiso   1.00
H148   H     0.61956   0.49412   0.18057   0.00000  Uiso   1.00
H149   H     0.65252   0.44950   0.21305   0.00000  Uiso   1.00
H150   H     0.75991   0.49013   0.07101   0.00000  Uiso   1.00
H151   H     0.75416   0.04889   0.04242   0.00000  Uiso   1.00
H152   H     0.71731   0.00103   0.02449   0.00000  Uiso   1.00
H153   H     0.97140   0.32127   0.17872   0.00000  Uiso   1.00
H154   H     0.83325   0.02257   0.13987   0.00000  Uiso   1.00
H155   H     0.83490   0.46360   0.11246   0.00000  Uiso   1.00
H156   H     0.88102   0.48534   0.14919   0.00000  Uiso   1.00
H157   H     0.53484   0.17920   0.20760   0.00000  Uiso   1.00
H158   H     0.80805   0.15492   0.22884   0.00000  Uiso   1.00
H159   H     0.69445   0.34736   0.10272   0.00000  Uiso   1.00
H160   H     0.69152   0.15636   0.10412   0.00000  Uiso   1.00
H161   H     0.80680   0.34674   0.23089   0.00000  Uiso   1.00
H162   H     0.61794   0.36454   0.19749   0.00000  Uiso   1.00
N163   N     0.75000   0.12934   0.16667   0.00000  Uiso   1.00
N164   N     0.75000   0.37065   0.16667   0.00000  Uiso   1.00
O165   O     0.68573   0.29071   0.16667   0.00000  Uiso   1.00
O166   O     0.68217   0.37614   0.11750   0.00000  Uiso   1.00
O167   O     0.70439   0.12692   0.09156   0.00000  Uiso   1.00
O168   O     0.81937   0.37360   0.21346   0.00000  Uiso   1.00
O169   O     0.60854   0.32828   0.13155   0.00000  Uiso   1.00
O170   O     0.88348   0.16146   0.15316   0.00000  Uiso   1.00
O171   O     0.88774   0.33460   0.16933   0.00000  Uiso   1.00
O172   O     0.62135   0.17340   0.21217   0.00000  Uiso   1.00
O173   O     0.79397   0.03027   0.24355   0.00000  Uiso   1.00
O174   O     0.67155   0.46901   0.14374   0.00000  Uiso   1.00
O175   O     0.70620   0.03173   0.08975   0.00000  Uiso   1.00
O176   O     0.81427   0.20928   0.16666   0.00000  Uiso   1.00
O177   O     0.82925   0.46633   0.18906   0.00000  Uiso   1.00
O178   O     0.81427   0.29071   0.16666   0.00000  Uiso   1.00
O179   O     0.68573   0.20928   0.16667   0.00000  Uiso   1.00
O180   O     0.75000   0.29071   0.09613   0.00000  Uiso   1.00
O181   O     0.75000   0.20929   0.23720   0.00000  Uiso   1.00
O182   O     0.75000   0.29071   0.23720   0.00000  Uiso   1.00
O183   O     0.75000   0.20929   0.09613   0.00000  Uiso   1.00
O184   O     0.79570   0.12559   0.24161   0.00000  Uiso   1.00
C185   C     0.16501   0.75012   0.16745   0.00000  Uiso   1.00
C186   C     0.28873   0.94545   0.17928   0.00000  Uiso   1.00
C187   C     0.24986   0.75002   0.07356   0.00000  Uiso   1.00
C188   C     0.25015   0.74997   0.25978   0.00000  Uiso   1.00
C189   C     0.24992   0.52722   0.16676   0.00000  Uiso   1.00
C190   C     0.25020   0.97274   0.16653   0.00000  Uiso   1.00
C191   C     0.24996   0.75002   0.02181   0.00000  Uiso   1.00
C192   C     0.25006   0.74996   0.31153   0.00000  Uiso   1.00
C193   C     0.04479   0.78275   0.14499   0.00000  Uiso   1.00
C194   C     0.45250   0.70281   0.16149   0.00000  Uiso   1.00
C195   C     0.45369   0.78824   0.17298   0.00000  Uiso   1.00
C196   C     0.33510   0.74952   0.16605   0.00000  Uiso   1.00
C197   C     0.05021   0.70810   0.18906   0.00000  Uiso   1.00
C198   C     0.09026   0.78748   0.14937   0.00000  Uiso   1.00
C199   C     0.40650   0.70335   0.16193   0.00000  Uiso   1.00
C200   C     0.40808   0.79035   0.16900   0.00000  Uiso   1.00
C201   C     0.09616   0.70905   0.18852   0.00000  Uiso   1.00
C202   C     0.11665   0.74937   0.16889   0.00000  Uiso   1.00
C203   C     0.38370   0.74776   0.16550   0.00000  Uiso   1.00
C204   C     0.02440   0.74467   0.16680   0.00000  Uiso   1.00
C205   C     0.47621   0.74493   0.16784   0.00000  Uiso   1.00
C206   C     0.09841   0.86721   0.16192   0.00000  Uiso   1.00
C207   C     0.27206   0.60367   0.20383   0.00000  Uiso   1.00
C208   C     0.39472   0.62772   0.19035   0.00000  Uiso   1.00
C209   C     0.38679   0.85363   0.12164   0.00000  Uiso   1.00
C210   C     0.11539   0.62994   0.18670   0.00000  Uiso   1.00
C211   C     0.26422   0.51599   0.27748   0.00000  Uiso   1.00
C212   C     0.15376   0.98103   0.18837   0.00000  Uiso   1.00
C213   C     0.23621   0.51758   0.05576   0.00000  Uiso   1.00
C214   C     0.34462   0.98506   0.14551   0.00000  Uiso   1.00
C215   C     0.21486   0.89679   0.14645   0.00000  Uiso   1.00
C216   C     0.22780   0.60436   0.12961   0.00000  Uiso   1.00
C217   C     0.28559   0.89566   0.18631   0.00000  Uiso   1.00
C218   C     0.27087   0.55333   0.20537   0.00000  Uiso   1.00
C219   C     0.21178   0.94658   0.15363   0.00000  Uiso   1.00
C220   C     0.22893   0.55402   0.12819   0.00000  Uiso   1.00
Cu221  Cu    0.25000   0.79821   0.16667   0.00000  Uiso   1.00
Cu222  Cu    0.25000   0.70178   0.16667   0.00000  Uiso   1.00
H223   H     0.02531   0.81019   0.12555   0.00000  Uiso   1.00
H224   H     0.06286   0.87065   0.16819   0.00000  Uiso   1.00
H225   H     0.10709   0.90081   0.14373   0.00000  Uiso   1.00
H226   H     0.39384   0.64366   0.22746   0.00000  Uiso   1.00
H227   H     0.42733   0.61103   0.18539   0.00000  Uiso   1.00
H228   H     0.37030   0.59867   0.18779   0.00000  Uiso   1.00
H229   H     0.37030   0.82919   0.09441   0.00000  Uiso   1.00
H230   H     0.42044   0.86209   0.11109   0.00000  Uiso   1.00
H231   H     0.36751   0.88736   0.12077   0.00000  Uiso   1.00
H232   H     0.11934   0.63423   0.14686   0.00000  Uiso   1.00
H233   H     0.08290   0.61438   0.19293   0.00000  Uiso   1.00
H234   H     0.46968   0.66962   0.15491   0.00000  Uiso   1.00
H235   H     0.14096   0.60405   0.20091   0.00000  Uiso   1.00
H236   H     0.24170   0.98802   0.26241   0.00000  Uiso   1.00
H237   H     0.24493   0.54710   0.29016   0.00000  Uiso   1.00
H238   H     0.28347   0.50005   0.30920   0.00000  Uiso   1.00
H239   H     0.17232   0.51033   0.20714   0.00000  Uiso   1.00
H240   H     0.11956   0.99412   0.18057   0.00000  Uiso   1.00
H241   H     0.15252   0.94950   0.21305   0.00000  Uiso   1.00
H242   H     0.25991   0.99013   0.07101   0.00000  Uiso   1.00
H243   H     0.25416   0.54889   0.04242   0.00000  Uiso   1.00
H244   H     0.21731   0.50103   0.02449   0.00000  Uiso   1.00
H245   H     0.47140   0.82127   0.17872   0.00000  Uiso   1.00
H246   H     0.33325   0.52257   0.13987   0.00000  Uiso   1.00
H247   H     0.33490   0.96360   0.11246   0.00000  Uiso   1.00
H248   H     0.38102   0.98534   0.14919   0.00000  Uiso   1.00
H249   H     0.03484   0.67920   0.20760   0.00000  Uiso   1.00
H250   H     0.30805   0.65492   0.22884   0.00000  Uiso   1.00
H251   H     0.19445   0.84736   0.10272   0.00000  Uiso   1.00
H252   H     0.19152   0.65636   0.10412   0.00000  Uiso   1.00
H253   H     0.30680   0.84674   0.23089   0.00000  Uiso   1.00
H254   H     0.11794   0.86454   0.19749   0.00000  Uiso   1.00
N255   N     0.25000   0.62934   0.16667   0.00000  Uiso   1.00
N256   N     0.25000   0.87065   0.16667   0.00000  Uiso   1.00
O257   O     0.18573   0.79071   0.16667   0.00000  Uiso   1.00
O258   O     0.18217   0.87614   0.11750   0.00000  Uiso   1.00
O259   O     0.20439   0.62692   0.09156   0.00000  Uiso   1.00
O260   O     0.31937   0.87360   0.21346   0.00000  Uiso   1.00
O261   O     0.10854   0.82828   0.13155   0.00000  Uiso   1.00
O262   O     0.38348   0.66146   0.15316   0.00000  Uiso   1.00
O263   O     0.38774   0.83460   0.16933   0.00000  Uiso   1.00
O264   O     0.12135   0.67340   0.21217   0.00000  Uiso   1.00
O265   O     0.29397   0.53027   0.24355   0.00000  Uiso   1.00
O266   O     0.17155   0.96901   0.14374   0.00000  Uiso   1.00
O267   O     0.20620   0.53173   0.08975   0.00000  Uiso   1.00
O268   O     0.31427   0.70928   0.16666   0.00000  Uiso   1.00
O269   O     0.32925   0.96633   0.18906   0.00000  Uiso   1.00
O270   O     0.31427   0.79071   0.16666   0.00000  Uiso   1.00
O271   O     0.18573   0.70928   0.16667   0.00000  Uiso   1.00
O272   O     0.25000   0.79071   0.09613   0.00000  Uiso   1.00
O273   O     0.25000   0.70929   0.23720   0.00000  Uiso   1.00
O274   O     0.25000   0.79071   0.23720   0.00000  Uiso   1.00
O275   O     0.25000   0.70929   0.09613   0.00000  Uiso   1.00
O276   O     0.29570   0.62559   0.24161   0.00000  Uiso   1.00
C277   C     0.66501   0.75012   0.16745   0.00000  Uiso   1.00
C278   C     0.78873   0.94545   0.17928   0.00000  Uiso   1.00
C279   C     0.74986   0.75002   0.07356   0.00000  Uiso   1.00
C280   C     0.75015   0.74997   0.25978   0.00000  Uiso   1.00
C281   C     0.74992   0.52722   0.16676   0.00000  Uiso   1.00
C282   C     0.75020   0.97274   0.16653   0.00000  Uiso   1.00
C283   C     0.74996   0.75002   0.02181   0.00000  Uiso   1.00
C284   C     0.75006   0.74996   0.31153   0.00000  Uiso   1.00
C285   C     0.54479   0.78275   0.14499   0.00000  Uiso   1.00
C286   C     0.95250   0.70281   0.16149   0.00000  Uiso   1.00
C287   C     0.95369   0.78824   0.17298   0.00000  Uiso   1.00
C288   C     0.83510   0.74952   0.16605   0.00000  Uiso   1.00
C289   C     0.55021   0.70810   0.18906   0.00000  Uiso   1.00
C290   C     0.59026   0.78748   0.14937   0.00000  Uiso   1.00
C291   C     0.90650   0.70335   0.16193   0.00000  Uiso   1.00
C292   C     0.90808   0.79035   0.16900   0.00000  Uiso   1.00
C293   C     0.59616   0.70905   0.18852   0.00000  Uiso   1.00
C294   C     0.61665   0.74937   0.16889   0.00000  Uiso   1.00
C295   C     0.88370   0.74776   0.16550   0.00000  Uiso   1.00
C296   C     0.52440   0.74467   0.16680   0.00000  Uiso   1.00
C297   C     0.97621   0.74493   0.16784   0.00000  Uiso   1.00
C298   C     0.59841   0.86721   0.16192   0.00000  Uiso   1.00
C299   C     0.77206   0.60367   0.20383   0.00000  Uiso   1.00
C300   C     0.89472   0.62772   0.19035   0.00000  Uiso   1.00
C301   C     0.88679   0.85363   0.12164   0.00000  Uiso   1.00
C302   C     0.61539   0.62994   0.18670   0.00000  Uiso   1.00
C303   C     0.76422   0.51599   0.27748   0.00000  Uiso   1.00
C304   C     0.65376   0.98103   0.18837   0.00000  Uiso   1.00
C305   C     0.73621   0.51758   0.05576   0.00000  Uiso   1.00
C306   C     0.84462   0.98506   0.14551   0.00000  Uiso   1.00
C307   C     0.71486   0.89679   0.14645   0.00000  Uiso   1.00
C308   C     0.72780   0.60436   0.12961   0.00000  Uiso   1.00
C309   C     0.78559   0.89566   0.18631   0.00000  Uiso   1.00
C310   C     0.77087   0.55333   0.20537   0.00000  Uiso   1.00
C311   C     0.71178   0.94658   0.15363   0.00000  Uiso   1.00
C312   C     0.72893   0.55402   0.12819   0.00000  Uiso   1.00
Cu313  Cu    0.75000   0.79821   0.16667   0.00000  Uiso   1.00
Cu314  Cu    0.75000   0.70178   0.16667   0.00000  Uiso   1.00
H315   H     0.52531   0.81019   0.12555   0.00000  Uiso   1.00
H316   H     0.56286   0.87065   0.16819   0.00000  Uiso   1.00
H317   H     0.60709   0.90081   0.14373   0.00000  Uiso   1.00
H318   H     0.89384   0.64366   0.22746   0.00000  Uiso   1.00
H319   H     0.92733   0.61103   0.18539   0.00000  Uiso   1.00
H320   H     0.87030   0.59867   0.18779   0.00000  Uiso   1.00
H321   H     0.87030   0.82919   0.09441   0.00000  Uiso   1.00
H322   H     0.92044   0.86209   0.11109   0.00000  Uiso   1.00
H323   H     0.86751   0.88736   0.12077   0.00000  Uiso   1.00
H324   H     0.61934   0.63423   0.14686   0.00000  Uiso   1.00
H325   H     0.58290   0.61438   0.19293   0.00000  Uiso   1.00
H326   H     0.96968   0.66962   0.15491   0.00000  Uiso   1.00
H327   H     0.64096   0.60405   0.20091   0.00000  Uiso   1.00
H328   H     0.74170   0.98802   0.26241   0.00000  Uiso   1.00
H329   H     0.74493   0.54710   0.29016   0.00000  Uiso   1.00
H330   H     0.78347   0.50005   0.30920   0.00000  Uiso   1.00
H331   H     0.67232   0.51033   0.20714   0.00000  Uiso   1.00
H332   H     0.61956   0.99412   0.18057   0.00000  Uiso   1.00
H333   H     0.65252   0.94950   0.21305   0.00000  Uiso   1.00
H334   H     0.75991   0.99013   0.07101   0.00000  Uiso   1.00
H335   H     0.75416   0.54889   0.04242   0.00000  Uiso   1.00
H336   H     0.71731   0.50103   0.02449   0.00000  Uiso   1.00
H337   H     0.97140   0.82127   0.17872   0.00000  Uiso   1.00
H338   H     0.83325   0.52257   0.13987   0.00000  Uiso   1.00
H339   H     0.83490   0.96360   0.11246   0.00000  Uiso   1.00
H340   H     0.88102   0.98534   0.14919   0.00000  Uiso   1.00
H341   H     0.53484   0.67920   0.20760   0.00000  Uiso   1.00
H342   H     0.80805   0.65492   0.22884   0.00000  Uiso   1.00
H343   H     0.69445   0.84736   0.10272   0.00000  Uiso   1.00
H344   H     0.69152   0.65636   0.10412   0.00000  Uiso   1.00
H345   H     0.80680   0.84674   0.23089   0.00000  Uiso   1.00
H346   H     0.61794   0.86454   0.19749   0.00000  Uiso   1.00
N347   N     0.75000   0.62934   0.16667   0.00000  Uiso   1.00
N348   N     0.75000   0.87065   0.16667   0.00000  Uiso   1.00
O349   O     0.68573   0.79071   0.16667   0.00000  Uiso   1.00
O350   O     0.68217   0.87614   0.11750   0.00000  Uiso   1.00
O351   O     0.70439   0.62692   0.09156   0.00000  Uiso   1.00
O352   O     0.81937   0.87360   0.21346   0.00000  Uiso   1.00
O353   O     0.60854   0.82828   0.13155   0.00000  Uiso   1.00
O354   O     0.88348   0.66146   0.15316   0.00000  Uiso   1.00
O355   O     0.88774   0.83460   0.16933   0.00000  Uiso   1.00
O356   O     0.62135   0.67340   0.21217   0.00000  Uiso   1.00
O357   O     0.79397   0.53027   0.24355   0.00000  Uiso   1.00
O358   O     0.67155   0.96901   0.14374   0.00000  Uiso   1.00
O359   O     0.70620   0.53173   0.08975   0.00000  Uiso   1.00
O360   O     0.81427   0.70928   0.16666   0.00000  Uiso   1.00
O361   O     0.82925   0.96633   0.18906   0.00000  Uiso   1.00
O362   O     0.81427   0.79071   0.16666   0.00000  Uiso   1.00
O363   O     0.68573   0.70928   0.16667   0.00000  Uiso   1.00
O364   O     0.75000   0.79071   0.09613   0.00000  Uiso   1.00
O365   O     0.75000   0.70929   0.23720   0.00000  Uiso   1.00
O366   O     0.75000   0.79071   0.23720   0.00000  Uiso   1.00
O367   O     0.75000   0.70929   0.09613   0.00000  Uiso   1.00
O368   O     0.79570   0.62559   0.24161   0.00000  Uiso   1.00
C369   C     0.16501   0.25012   0.50079   0.00000  Uiso   1.00
C370   C     0.28873   0.44545   0.51261   0.00000  Uiso   1.00
C371   C     0.24986   0.25002   0.40689   0.00000  Uiso   1.00
C372   C     0.25015   0.24997   0.59311   0.00000  Uiso   1.00
C373   C     0.24992   0.02722   0.50009   0.00000  Uiso   1.00
C374   C     0.25020   0.47274   0.49987   0.00000  Uiso   1.00
C375   C     0.24996   0.25002   0.35514   0.00000  Uiso   1.00
C376   C     0.25006   0.24996   0.64486   0.00000  Uiso   1.00
C377   C     0.04479   0.28275   0.47833   0.00000  Uiso   1.00
C378   C     0.45250   0.20281   0.49482   0.00000  Uiso   1.00
C379   C     0.45369   0.28824   0.50631   0.00000  Uiso   1.00
C380   C     0.33510   0.24952   0.49938   0.00000  Uiso   1.00
C381   C     0.05021   0.20810   0.52239   0.00000  Uiso   1.00
C382   C     0.09026   0.28748   0.48271   0.00000  Uiso   1.00
C383   C     0.40650   0.20335   0.49526   0.00000  Uiso   1.00
C384   C     0.40808   0.29035   0.50234   0.00000  Uiso   1.00
C385   C     0.09616   0.20905   0.52186   0.00000  Uiso   1.00
C386   C     0.11665   0.24937   0.50222   0.00000  Uiso   1.00
C387   C     0.38370   0.24776   0.49883   0.00000  Uiso   1.00
C388   C     0.02440   0.24467   0.50013   0.00000  Uiso   1.00
C389   C     0.47621   0.24493   0.50117   0.00000  Uiso   1.00
C390   C     0.09841   0.36721   0.49526   0.00000  Uiso   1.00
C391   C     0.27206   0.10367   0.53717   0.00000  Uiso   1.00
C392   C     0.39472   0.12772   0.52368   0.00000  Uiso   1.00
C393   C     0.38679   0.35363   0.45497   0.00000  Uiso   1.00
C394   C     0.11539   0.12994   0.52003   0.00000  Uiso   1.00
C395   C     0.26422   0.01599   0.61081   0.00000  Uiso   1.00
C396   C     0.15376   0.48103   0.52170   0.00000  Uiso   1.00
C397   C     0.23621   0.01758   0.38909   0.00000  Uiso   1.00
C398   C     0.34462   0.48506   0.47885   0.00000  Uiso   1.00
C399   C     0.21486   0.39679   0.47978   0.00000  Uiso   1.00
C400   C     0.22780   0.10436   0.46294   0.00000  Uiso   1.00
C401   C     0.28559   0.39566   0.51965   0.00000  Uiso   1.00
C402   C     0.27087   0.05333   0.53871   0.00000  Uiso   1.00
C403   C     0.21178   0.44658   0.48696   0.00000  Uiso   1.00
C404   C     0.22893   0.05402   0.46152   0.00000  Uiso   1.00
Cu405  Cu    0.25000   0.29821   0.50000   0.00000  Uiso   1.00
Cu406  Cu    0.25000   0.20178   0.50000   0.00000  Uiso   1.00
H407   H     0.02531   0.31019   0.45889   0.00000  Uiso   1.00
H408   H     0.06286   0.37065   0.50153   0.00000  Uiso   1.00
H409   H     0.10709   0.40081   0.47707   0.00000  Uiso   1.00
H410   H     0.39384   0.14366   0.56079   0.00000  Uiso   1.00
H411   H     0.42733   0.11103   0.51872   0.00000  Uiso   1.00
H412   H     0.37030   0.09867   0.52112   0.00000  Uiso   1.00
H413   H     0.37030   0.32919   0.42774   0.00000  Uiso   1.00
H414   H     0.42044   0.36209   0.44443   0.00000  Uiso   1.00
H415   H     0.36751   0.38736   0.45411   0.00000  Uiso   1.00
H416   H     0.11934   0.13423   0.48019   0.00000  Uiso   1.00
H417   H     0.08290   0.11438   0.52626   0.00000  Uiso   1.00
H418   H     0.46968   0.16962   0.48824   0.00000  Uiso   1.00
H419   H     0.14096   0.10405   0.53424   0.00000  Uiso   1.00
H420   H     0.24170   0.48802   0.59575   0.00000  Uiso   1.00
H421   H     0.24493   0.04710   0.62349   0.00000  Uiso   1.00
H422   H     0.28347   0.00005   0.64253   0.00000  Uiso   1.00
H423   H     0.17232   0.01033   0.54048   0.00000  Uiso   1.00
H424   H     0.11956   0.49412   0.51390   0.00000  Uiso   1.00
H425   H     0.15252   0.44950   0.54638   0.00000  Uiso   1.00
H426   H     0.25991   0.49013   0.40434   0.00000  Uiso   1.00
H427   H     0.25416   0.04889   0.37575   0.00000  Uiso   1.00
H428   H     0.21731   0.00103   0.35782   0.00000  Uiso   1.00
H429   H     0.47140   0.32127   0.51205   0.00000  Uiso   1.00
H430   H     0.33325   0.02257   0.47321   0.00000  Uiso   1.00
H431   H     0.33490   0.46360   0.44579   0.00000  Uiso   1.00
H432   H     0.38102   0.48534   0.48252   0.00000  Uiso   1.00
H433   H     0.03484   0.17920   0.54093   0.00000  Uiso   1.00
H434   H     0.30805   0.15492   0.56217   0.00000  Uiso   1.00
H435   H     0.19445   0.34736   0.43605   0.00000  Uiso   1.00
H436   H     0.19152   0.15636   0.43745   0.00000  Uiso   1.00
H437   H     0.30680   0.34674   0.56423   0.00000  Uiso   1.00
H438   H     0.11794   0.36454   0.53083   0.00000  Uiso   1.00
N439   N     0.25000   0.12934   0.50000   0.00000  Uiso   1.00
N440   N     0.25000   0.37065   0.50000   0.00000  Uiso   1.00
O441   O     0.18573   0.29071   0.50000   0.00000  Uiso   1.00
O442   O     0.18217   0.37614   0.45083   0.00000  Uiso   1.00
O443   O     0.20439   0.12692   0.42489   0.00000  Uiso   1.00
O444   O     0.31937   0.37360   0.54679   0.00000  Uiso   1.00
O445   O     0.10854   0.32828   0.46488   0.00000  Uiso   1.00
O446   O     0.38348   0.16146   0.48649   0.00000  Uiso   1.00
O447   O     0.38774   0.33460   0.50267   0.00000  Uiso   1.00
O448   O     0.12135   0.17340   0.54550   0.00000  Uiso   1.00
O449   O     0.29397   0.03027   0.57689   0.00000  Uiso   1.00
O450   O     0.17155   0.46901   0.47707   0.00000  Uiso   1.00
O451   O     0.20620   0.03173   0.42308   0.00000  Uiso   1.00
O452   O     0.31427   0.20928   0.50000   0.00000  Uiso   1.00
O453   O     0.32925   0.46633   0.52239   0.00000  Uiso   1.00
O454   O     0.31427   0.29071   0.50000   0.00000  Uiso   1.00
O455   O     0.18573   0.20928   0.50000   0.00000  Uiso   1.00
O456   O     0.25000   0.29071   0.42946   0.00000  Uiso   1.00
O457   O     0.25000   0.20929   0.57054   0.00000  Uiso   1.00
O458   O     0.25000   0.29071   0.57054   0.00000  Uiso   1.00
O459   O     0.25000   0.20929   0.42946   0.00000  Uiso   1.00
O460   O     0.29570   0.12559   0.57495   0.00000  Uiso   1.00
C461   C     0.66501   0.25012   0.50079   0.00000  Uiso   1.00
C462   C     0.78873   0.44545   0.51261   0.00000  Uiso   1.00
C463   C     0.74986   0.25002   0.40689   0.00000  Uiso   1.00
C464   C     0.75015   0.24997   0.59311   0.00000  Uiso   1.00
C465   C     0.74992   0.02722   0.50009   0.00000  Uiso   1.00
C466   C     0.75020   0.47274   0.49987   0.00000  Uiso   1.00
C467   C     0.74996   0.25002   0.35514   0.00000  Uiso   1.00
C468   C     0.75006   0.24996   0.64486   0.00000  Uiso   1.00
C469   C     0.54479   0.28275   0.47833   0.00000  Uiso   1.00
C470   C     0.95250   0.20281   0.49482   0.00000  Uiso   1.00
C471   C     0.95369   0.28824   0.50631   0.00000  Uiso   1.00
C472   C     0.83510   0.24952   0.49938   0.00000  Uiso   1.00
C473   C     0.55021   0.20810   0.52239   0.00000  Uiso   1.00
C474   C     0.59026   0.28748   0.48271   0.00000  Uiso   1.00
C475   C     0.90650   0.20335   0.49526   0.00000  Uiso   1.00
C476   C     0.90808   0.29035   0.50234   0.00000  Uiso   1.00
C477   C     0.59616   0.20905   0.52186   0.00000  Uiso   1.00
C478   C     0.61665   0.24937   0.50222   0.00000  Uiso   1.00
C479   C     0.88370   0.24776   0.49883   0.00000  Uiso   1.00
C480   C     0.52440   0.24467   0.50013   0.00000  Uiso   1.00
C481   C     0.97621   0.24493   0.50117   0.00000  Uiso   1.00
C482   C     0.59841   0.36721   0.49526   0.00000  Uiso   1.00
C483   C     0.77206   0.10367   0.53717   0.00000  Uiso   1.00
C484   C     0.89472   0.12772   0.52368   0.00000  Uiso   1.00
C485   C     0.88679   0.35363   0.45497   0.00000  Uiso   1.00
C486   C     0.61539   0.12994   0.52003   0.00000  Uiso   1.00
C487   C     0.76422   0.01599   0.61081   0.00000  Uiso   1.00
C488   C     0.65376   0.48103   0.52170   0.00000  Uiso   1.00
C489   C     0.73621   0.01758   0.38909   0.00000  Uiso   1.00
C490   C     0.84462   0.48506   0.47885   0.00000  Uiso   1.00
C491   C     0.71486   0.39679   0.47978   0.00000  Uiso   1.00
C492   C     0.72780   0.10436   0.46294   0.00000  Uiso   1.00
C493   C     0.78559   0.39566   0.51965   0.00000  Uiso   1.00
C494   C     0.77087   0.05333   0.53871   0.00000  Uiso   1.00
C495   C     0.71178   0.44658   0.48696   0.00000  Uiso   1.00
C496   C     0.72893   0.05402   0.46152   0.00000  Uiso   1.00
Cu497  Cu    0.75000   0.29821   0.50000   0.00000  Uiso   1.00
Cu498  Cu    0.75000   0.20178   0.50000   0.00000  Uiso   1.00
H499   H     0.52531   0.31019   0.45889   0.00000  Uiso   1.00
H500   H     0.56286   0.37065   0.50153   0.00000  Uiso   1.00
H501   H     0.60709   0.40081   0.47707   0.00000  Uiso   1.00
H502   H     0.89384   0.14366   0.56079   0.00000  Uiso   1.00
H503   H     0.92733   0.11103   0.51872   0.00000  Uiso   1.00
H504   H     0.87030   0.09867   0.52112   0.00000  Uiso   1.00
H505   H     0.87030   0.32919   0.42774   0.00000  Uiso   1.00
H506   H     0.92044   0.36209   0.44443   0.00000  Uiso   1.00
H507   H     0.86751   0.38736   0.45411   0.00000  Uiso   1.00
H508   H     0.61934   0.13423   0.48019   0.00000  Uiso   1.00
H509   H     0.58290   0.11438   0.52626   0.00000  Uiso   1.00
H510   H     0.96968   0.16962   0.48824   0.00000  Uiso   1.00
H511   H     0.64096   0.10405   0.53424   0.00000  Uiso   1.00
H512   H     0.74170   0.48802   0.59575   0.00000  Uiso   1.00
H513   H     0.74493   0.04710   0.62349   0.00000  Uiso   1.00
H514   H     0.78347   0.00005   0.64253   0.00000  Uiso   1.00
H515   H     0.67232   0.01033   0.54048   0.00000  Uiso   1.00
H516   H     0.61956   0.49412   0.51390   0.00000  Uiso   1.00
H517   H     0.65252   0.44950   0.54638   0.00000  Uiso   1.00
H518   H     0.75991   0.49013   0.40434   0.00000  Uiso   1.00
H519   H     0.75416   0.04889   0.37575   0.00000  Uiso   1.00
H520   H     0.71731   0.00103   0.35782   0.00000  Uiso   1.00
H521   H     0.97140   0.32127   0.51205   0.00000  Uiso   1.00
H522   H     0.83325   0.02257   0.47321   0.00000  Uiso   1.00
H523   H     0.83490   0.46360   0.44579   0.00000  Uiso   1.00
H524   H     0.88102   0.48534   0.48252   0.00000  Uiso   1.00
H525   H     0.53484   0.17920   0.54093   0.00000  Uiso   1.00
H526   H     0.80805   0.15492   0.56217   0.00000  Uiso   1.00
H527   H     0.69445   0.34736   0.43605   0.00000  Uiso   1.00
H528   H     0.69152   0.15636   0.43745   0.00000  Uiso   1.00
H529   H     0.80680   0.34674   0.56423   0.00000  Uiso   1.00
H530   H     0.61794   0.36454   0.53083   0.00000  Uiso   1.00
N531   N     0.75000   0.12934   0.50000   0.00000  Uiso   1.00
N532   N     0.75000   0.37065   0.50000   0.00000  Uiso   1.00
O533   O     0.68573   0.29071   0.50000   0.00000  Uiso   1.00
O534   O     0.68217   0.37614   0.45083   0.00000  Uiso   1.00
O535   O     0.70439   0.12692   0.42489   0.00000  Uiso   1.00
O536   O     0.81937   0.37360   0.54679   0.00000  Uiso   1.00
O537   O     0.60854   0.32828   0.46488   0.00000  Uiso   1.00
O538   O     0.88348   0.16146   0.48649   0.00000  Uiso   1.00
O539   O     0.88774   0.33460   0.50267   0.00000  Uiso   1.00
O540   O     0.62135   0.17340   0.54550   0.00000  Uiso   1.00
O541   O     0.79397   0.03027   0.57689   0.00000  Uiso   1.00
O542   O     0.67155   0.46901   0.47707   0.00000  Uiso   1.00
O543   O     0.70620   0.03173   0.42308   0.00000  Uiso   1.00
O544   O     0.81427   0.20928   0.50000   0.00000  Uiso   1.00
O545   O     0.82925   0.46633   0.52239   0.00000  Uiso   1.00
O546   O     0.81427   0.29071   0.50000   0.00000  Uiso   1.00
O547   O     0.68573   0.20928   0.50000   0.00000  Uiso   1.00
O548   O     0.75000   0.29071   0.42946   0.00000  Uiso   1.00
O549   O     0.75000   0.20929   0.57054   0.00000  Uiso   1.00
O550   O     0.75000   0.29071   0.57054   0.00000  Uiso   1.00
O551   O     0.75000   0.20929   0.42946   0.00000  Uiso   1.00
O552   O     0.79570   0.12559   0.57495   0.00000  Uiso   1.00
C553   C     0.16501   0.75012   0.50079   0.00000  Uiso   1.00
C554   C     0.28873   0.94545   0.51261   0.00000  Uiso   1.00
C555   C     0.24986   0.75002   0.40689   0.00000  Uiso   1.00
C556   C     0.25015   0.74997   0.59311   0.00000  Uiso   1.00
C557   C     0.24992   0.52722   0.50009   0.00000  Uiso   1.00
C558   C     0.25020   0.97274   0.49987   0.00000  Uiso   1.00
C559   C     0.24996   0.75002   0.35514   0.00000  Uiso   1.00
C560   C     0.25006   0.74996   0.64486   0.00000  Uiso   1.00
C561   C     0.04479   0.78275   0.47833   0.00000  Uiso   1.00
C562   C     0.45250   0.70281   0.49482   0.00000  Uiso   1.00
C563   C     0.45369   0.78824   0.50631   0.00000  Uiso   1.00
C564   C     0.33510   0.74952   0.49938   0.00000  Uiso   1.00
C565   C     0.05021   0.70810   0.52239   0.00000  Uiso   1.00
C566   C     0.09026   0.78748   0.48271   0.00000  Uiso   1.00
C567   C     0.40650   0.70335   0.49526   0.00000  Uiso   1.00
C568   C     0.40808   0.79035   0.50234   0.00000  Uiso   1.00
C569   C     0.09616   0.70905   0.52186   0.00000  Uiso   1.00
C570   C     0.11665   0.74937   0.50222   0.00000  Uiso   1.00
C571   C     0.38370   0.74776   0.49883   0.00000  Uiso   1.00
C572   C     0.02440   0.74467   0.50013   0.00000  Uiso   1.00
C573   C     0.47621   0.74493   0.50117   0.00000  Uiso   1.00
C574   C     0.09841   0.86721   0.49526   0.00000  Uiso   1.00
C575   C     0.27206   0.60367   0.53717   0.00000  Uiso   1.00
C576   C     0.39472   0.62772   0.52368   0.00000  Uiso   1.00
C577   C     0.38679   0.85363   0.45497   0.00000  Uiso   1.00
C578   C     0.11539   0.62994   0.52003   0.00000  Uiso   1.00
C579   C     0.26422   0.51599   0.61081   0.00000  Uiso   1.00
C580   C     0.15376   0.98103   0.52170   0.00000  Uiso   1.00
C581   C     0.23621   0.51758   0.38909   0.00000  Uiso   1.00
C582   C     0.34462   0.98506   0.47885   0.00000  Uiso   1.00
C583   C     0.21486   0.89679   0.47978   0.00000  Uiso   1.00
C584   C     0.22780   0.60436   0.46294   0.00000  Uiso   1.00
C585   C     0.28559   0.89566   0.51965   0.00000  Uiso   1.00
C586   C     0.27087   0.55333   0.53871   0.00000  Uiso   1.00
C587   C     0.21178   0.94658   0.48696   0.00000  Uiso   1.00
C588   C     0.22893   0.55402   0.46152   0.00000  Uiso   1.00
Cu589  Cu    0.25000   0.79821   0.50000   0.00000  Uiso   1.00
Cu590  Cu    0.25000   0.70178   0.50000   0.00000  Uiso   1.00
H591   H     0.02531   0.81019   0.45889   0.00000  Uiso   1.00
H592   H     0.06286   0.87065   0.50153   0.00000  Uiso   1.00
H593   H     0.10709   0.90081   0.47707   0.00000  Uiso   1.00
H594   H     0.39384   0.64366   0.56079   0.00000  Uiso   1.00
H595   H     0.42733   0.61103   0.51872   0.00000  Uiso   1.00
H596   H     0.37030   0.59867   0.52112   0.00000  Uiso   1.00
H597   H     0.37030   0.82919   0.42774   0.00000  Uiso   1.00
H598   H     0.42044   0.86209   0.44443   0.00000  Uiso   1.00
H599   H     0.36751   0.88736   0.45411   0.00000  Uiso   1.00
H600   H     0.11934   0.63423   0.48019   0.00000  Uiso   1.00
H601   H     0.08290   0.61438   0.52626   0.00000  Uiso   1.00
H602   H     0.46968   0.66962   0.48824   0.00000  Uiso   1.00
H603   H     0.14096   0.60405   0.53424   0.00000  Uiso   1.00
H604   H     0.24170   0.98802   0.59575   0.00000  Uiso   1.00
H605   H     0.24493   0.54710   0.62349   0.00000  Uiso   1.00
H606   H     0.28347   0.50005   0.64253   0.00000  Uiso   1.00
H607   H     0.17232   0.51033   0.54048   0.00000  Uiso   1.00
H608   H     0.11956   0.99412   0.51390   0.00000  Uiso   1.00
H609   H     0.15252   0.94950   0.54638   0.00000  Uiso   1.00
H610   H     0.25991   0.99013   0.40434   0.00000  Uiso   1.00
H611   H     0.25416   0.54889   0.37575   0.00000  Uiso   1.00
H612   H     0.21731   0.50103   0.35782   0.00000  Uiso   1.00
H613   H     0.47140   0.82127   0.51205   0.00000  Uiso   1.00
H614   H     0.33325   0.52257   0.47321   0.00000  Uiso   1.00
H615   H     0.33490   0.96360   0.44579   0.00000  Uiso   1.00
H616   H     0.38102   0.98534   0.48252   0.00000  Uiso   1.00
H617   H     0.03484   0.67920   0.54093   0.00000  Uiso   1.00
H618   H     0.30805   0.65492   0.56217   0.00000  Uiso   1.00
H619   H     0.19445   0.84736   0.43605   0.00000  Uiso   1.00
H620   H     0.19152   0.65636   0.43745   0.00000  Uiso   1.00
H621   H     0.30680   0.84674   0.56423   0.00000  Uiso   1.00
H622   H     0.11794   0.86454   0.53083   0.00000  Uiso   1.00
N623   N     0.25000   0.62934   0.50000   0.00000  Uiso   1.00
N624   N     0.25000   0.87065   0.50000   0.00000  Uiso   1.00
O625   O     0.18573   0.79071   0.50000   0.00000  Uiso   1.00
O626   O     0.18217   0.87614   0.45083   0.00000  Uiso   1.00
O627   O     0.20439   0.62692   0.42489   0.00000  Uiso   1.00
O628   O     0.31937   0.87360   0.54679   0.00000  Uiso   1.00
O629   O     0.10854   0.82828   0.46488   0.00000  Uiso   1.00
O630   O     0.38348   0.66146   0.48649   0.00000  Uiso   1.00
O631   O     0.38774   0.83460   0.50267   0.00000  Uiso   1.00
O632   O     0.12135   0.67340   0.54550   0.00000  Uiso   1.00
O633   O     0.29397   0.53027   0.57689   0.00000  Uiso   1.00
O634   O     0.17155   0.96901   0.47707   0.00000  Uiso   1.00
O635   O     0.20620   0.53173   0.42308   0.00000  Uiso   1.00
O636   O     0.31427   0.70928   0.50000   0.00000  Uiso   1.00
O637   O     0.32925   0.96633   0.52239   0.00000  Uiso   1.00
O638   O     0.31427   0.79071   0.50000   0.00000  Uiso   1.00
O639   O     0.18573   0.70928   0.50000   0.00000  Uiso   1.00
O640   O     0.25000   0.79071   0.42946   0.00000  Uiso   1.00
O641   O     0.25000   0.70929   0.57054   0.00000  Uiso   1.00
O642   O     0.25000   0.79071   0.57054   0.00000  Uiso   1.00
O643   O     0.25000   0.70929   0.42946   0.00000  Uiso   1.00
O644   O     0.29570   0.62559   0.57495   0.00000  Uiso   1.00
C645   C     0.66501   0.75012   0.50079   0.00000  Uiso   1.00
C646   C     0.78873   0.94545   0.51261   0.00000  Uiso   1.00
C647   C     0.74986   0.75002   0.40689   0.00000  Uiso   1.00
C648   C     0.75015   0.74997   0.59311   0.00000  Uiso   1.00
C649   C     0.74992   0.52722   0.50009   0.00000  Uiso   1.00
C650   C     0.75020   0.97274   0.49987   0.00000  Uiso   1.00
C651   C     0.74996   0.75002   0.35514   0.00000  Uiso   1.00
C652   C     0.75006   0.74996   0.64486   0.00000  Uiso   1.00
C653   C     0.54479   0.78275   0.47833   0.00000  Uiso   1.00
C654   C     0.95250   0.70281   0.49482   0.00000  Uiso   1.00
C655   C     0.95369   0.78824   0.50631   0.00000  Uiso   1.00
C656   C     0.83510   0.74952   0.49938   0.00000  Uiso   1.00
C657   C     0.55021   0.70810   0.52239   0.00000  Uiso   1.00
C658   C     0.59026   0.78748   0.48271   0.00000  Uiso   1.00
C659   C     0.90650   0.70335   0.49526   0.00000  Uiso   1.00
C660   C     0.90808   0.79035   0.50234   0.00000  Uiso   1.00
C661   C     0.59616   0.70905   0.52186   0.00000  Uiso   1.00
C662   C     0.61665   0.74937   0.50222   0.00000  Uiso   1.00
C663   C     0.88370   0.74776   0.49883   0.00000  Uiso   1.00
C664   C     0.52440   0.74467   0.50013   0.00000  Uiso   1.00
C665   C     0.97621   0.74493   0.50117   0.00000  Uiso   1.00
C666   C     0.59841   0.86721   0.49526   0.00000  Uiso   1.00
C667   C     0.77206   0.60367   0.53717   0.00000  Uiso   1.00
C668   C     0.89472   0.62772   0.52368   0.00000  Uiso   1.00
C669   C     0.88679   0.85363   0.45497   0.00000  Uiso   1.00
C670   C     0.61539   0.62994   0.52003   0.00000  Uiso   1.00
C671   C     0.76422   0.51599   0.61081   0.00000  Uiso   1.00
C672   C     0.65376   0.98103   0.52170   0.00000  Uiso   1.00
C673   C     0.73621   0.51758   0.38909   0.00000  Uiso   1.00
C674   C     0.84462   0.98506   0.47885   0.00000  Uiso   1.00
C675   C     0.71486   0.89679   0.47978   0.00000  Uiso   1.00
C676   C     0.72780   0.60436   0.46294   0.00000  Uiso   1.00
C677   C     0.78559   0.89566   0.51965   0.00000  Uiso   1.00
C678   C     0.77087   0.55333   0.53871   0.00000  Uiso   1.00
C679   C     0.71178   0.94658   0.48696   0.00000  Uiso   1.00
C680   C     0.72893   0.55402   0.46152   0.00000  Uiso   1.00
Cu681  Cu    0.75000   0.79821   0.50000   0.00000  Uiso   1.00
Cu682  Cu    0.75000   0.70178   0.50000   0.00000  Uiso   1.00
H683   H     0.52531   0.81019   0.45889   0.00000  Uiso   1.00
H684   H     0.56286   0.87065   0.50153   0.00000  Uiso   1.00
H685   H     0.60709   0.90081   0.47707   0.00000  Uiso   1.00
H686   H     0.89384   0.64366   0.56079   0.00000  Uiso   1.00
H687   H     0.92733   0.61103   0.51872   0.00000  Uiso   1.00
H688   H     0.87030   0.59867   0.52112   0.00000  Uiso   1.00
H689   H     0.87030   0.82919   0.42774   0.00000  Uiso   1.00
H690   H     0.92044   0.86209   0.44443   0.00000  Uiso   1.00
H691   H     0.86751   0.88736   0.45411   0.00000  Uiso   1.00
H692   H     0.61934   0.63423   0.48019   0.00000  Uiso   1.00
H693   H     0.58290   0.61438   0.52626   0.00000  Uiso   1.00
H694   H     0.96968   0.66962   0.48824   0.00000  Uiso   1.00
H695   H     0.64096   0.60405   0.53424   0.00000  Uiso   1.00
H696   H     0.74170   0.98802   0.59575   0.00000  Uiso   1.00
H697   H     0.74493   0.54710   0.62349   0.00000  Uiso   1.00
H698   H     0.78347   0.50005   0.64253   0.00000  Uiso   1.00
H699   H     0.67232   0.51033   0.54048   0.00000  Uiso   1.00
H700   H     0.61956   0.99412   0.51390   0.00000  Uiso   1.00
H701   H     0.65252   0.94950   0.54638   0.00000  Uiso   1.00
H702   H     0.75991   0.99013   0.40434   0.00000  Uiso   1.00
H703   H     0.75416   0.54889   0.37575   0.00000  Uiso   1.00
H704   H     0.71731   0.50103   0.35782   0.00000  Uiso   1.00
H705   H     0.97140   0.82127   0.51205   0.00000  Uiso   1.00
H706   H     0.83325   0.52257   0.47321   0.00000  Uiso   1.00
H707   H     0.83490   0.96360   0.44579   0.00000  Uiso   1.00
H708   H     0.88102   0.98534   0.48252   0.00000  Uiso   1.00
H709   H     0.53484   0.67920   0.54093   0.00000  Uiso   1.00
H710   H     0.80805   0.65492   0.56217   0.00000  Uiso   1.00
H711   H     0.69445   0.84736   0.43605   0.00000  Uiso   1.00
H712   H     0.69152   0.65636   0.43745   0.00000  Uiso   1.00
H713   H     0.80680   0.84674   0.56423   0.00000  Uiso   1.00
H714   H     0.61794   0.86454   0.53083   0.00000  Uiso   1.00
N715   N     0.75000   0.62934   0.50000   0.00000  Uiso   1.00
N716   N     0.75000   0.87065   0.50000   0.00000  Uiso   1.00
O717   O     0.68573   0.79071   0.50000   0.00000  Uiso   1.00
O718   O     0.68217   0.87614   0.45083   0.00000  Uiso   1.00
O719   O     0.70439   0.62692   0.42489   0.00000  Uiso   1.00
O720   O     0.81937   0.87360   0.54679   0.00000  Uiso   1.00
O721   O     0.60854   0.82828   0.46488   0.00000  Uiso   1.00
O722   O     0.88348   0.66146   0.48649   0.00000  Uiso   1.00
O723   O     0.88774   0.83460   0.50267   0.00000  Uiso   1.00
O724   O     0.62135   0.67340   0.54550   0.00000  Uiso   1.00
O725   O     0.79397   0.53027   0.57689   0.00000  Uiso   1.00
O726   O     0.67155   0.96901   0.47707   0.00000  Uiso   1.00
O727   O     0.70620   0.53173   0.42308   0.00000  Uiso   1.00
O728   O     0.81427   0.70928   0.50000   0.00000  Uiso   1.00
O729   O     0.82925   0.96633   0.52239   0.00000  Uiso   1.00
O730   O     0.81427   0.79071   0.50000   0.00000  Uiso   1.00
O731   O     0.68573   0.70928   0.50000   0.00000  Uiso   1.00
O732   O     0.75000   0.79071   0.42946   0.00000  Uiso   1.00
O733   O     0.75000   0.70929   0.57054   0.00000  Uiso   1.00
O734   O     0.75000   0.79071   0.57054   0.00000  Uiso   1.00
O735   O     0.75000   0.70929   0.42946   0.00000  Uiso   1.00
O736   O     0.79570   0.62559   0.57495   0.00000  Uiso   1.00
C737   C     0.16501   0.25012   0.83412   0.00000  Uiso   1.00
C738   C     0.28873   0.44545   0.84594   0.00000  Uiso   1.00
C739   C     0.24986   0.25002   0.74022   0.00000  Uiso   1.00
C740   C     0.25015   0.24997   0.92644   0.00000  Uiso   1.00
C741   C     0.24992   0.02722   0.83343   0.00000  Uiso   1.00
C742   C     0.25020   0.47274   0.83320   0.00000  Uiso   1.00
C743   C     0.24996   0.25002   0.68848   0.00000  Uiso   1.00
C744   C     0.25006   0.24996   0.97819   0.00000  Uiso   1.00
C745   C     0.04479   0.28275   0.81166   0.00000  Uiso   1.00
C746   C     0.45250   0.20281   0.82816   0.00000  Uiso   1.00
C747   C     0.45369   0.28824   0.83964   0.00000  Uiso   1.00
C748   C     0.33510   0.24952   0.83271   0.00000  Uiso   1.00
C749   C     0.05021   0.20810   0.85573   0.00000  Uiso   1.00
C750   C     0.09026   0.28748   0.81604   0.00000  Uiso   1.00
C751   C     0.40650   0.20335   0.82859   0.00000  Uiso   1.00
C752   C     0.40808   0.29035   0.83567   0.00000  Uiso   1.00
C753   C     0.09616   0.20905   0.85519   0.00000  Uiso   1.00
C754   C     0.11665   0.24937   0.83556   0.00000  Uiso   1.00
C755   C     0.38370   0.24776   0.83217   0.00000  Uiso   1.00
C756   C     0.02440   0.24467   0.83346   0.00000  Uiso   1.00
C757   C     0.47621   0.24493   0.83450   0.00000  Uiso   1.00
C758   C     0.09841   0.36721   0.82859   0.00000  Uiso   1.00
C759   C     0.27206   0.10367   0.87050   0.00000  Uiso   1.00
C760   C     0.39472   0.12772   0.85701   0.00000  Uiso   1.00
C761   C     0.38679   0.35363   0.78830   0.00000  Uiso   1.00
C762   C     0.11539   0.12994   0.85337   0.00000  Uiso   1.00
C763   C     0.26422   0.01599   0.94415   0.00000  Uiso   1.00
C764   C     0.15376   0.48103   0.85504   0.00000  Uiso   1.00
C765   C     0.23621   0.01758   0.72242   0.00000  Uiso   1.00
C766   C     0.34462   0.48506   0.81218   0.00000  Uiso   1.00
C767   C     0.21486   0.39679   0.81312   0.00000  Uiso   1.00
C768   C     0.22780   0.10436   0.79628   0.00000  Uiso   1.00
C769   C     0.28559   0.39566   0.85298   0.00000  Uiso   1.00
C770   C     0.27087   0.05333   0.87204   0.00000  Uiso   1.00
C771   C     0.21178   0.44658   0.82030   0.00000  Uiso   1.00
C772   C     0.22893   0.05402   0.79485   0.00000  Uiso   1.00
Cu773  Cu    0.25000   0.29821   0.83333   0.00000  Uiso   1.00
Cu774  Cu    0.25000   0.20178   0.83333   0.00000  Uiso   1.00
H775   H     0.02531   0.31019   0.79222   0.00000  Uiso   1.00
H776   H     0.06286   0.37065   0.83486   0.00000  Uiso   1.00
H777   H     0.10709   0.40081   0.81040   0.00000  Uiso   1.00
H778   H     0.39384   0.14366   0.89413   0.00000  Uiso   1.00
H779   H     0.42733   0.11103   0.85205   0.00000  Uiso   1.00
H780   H     0.37030   0.09867   0.85445   0.00000  Uiso   1.00
H781   H     0.37030   0.32919   0.76108   0.00000  Uiso   1.00
H782   H     0.42044   0.36209   0.77776   0.00000  Uiso   1.00
H783   H     0.36751   0.38736   0.78744   0.00000  Uiso   1.00
H784   H     0.11934   0.13423   0.81352   0.00000  Uiso   1.00
H785   H     0.08290   0.11438   0.85960   0.00000  Uiso   1.00
H786   H     0.46968   0.16962   0.82157   0.00000  Uiso   1.00
H787   H     0.14096   0.10405   0.86758   0.00000  Uiso   1.00
H788   H     0.24170   0.48802   0.92908   0.00000  Uiso   1.00
H789   H     0.24493   0.04710   0.95683   0.00000  Uiso   1.00
H790   H     0.28347   0.00005   0.97586   0.00000  Uiso   1.00
H791   H     0.17232   0.01033   0.87381   0.00000  Uiso   1.00
H792   H     0.11956   0.49412   0.84723   0.00000  Uiso   1.00
H793   H     0.15252   0.44950   0.87971   0.00000  Uiso   1.00
H794   H     0.25991   0.49013   0.73767   0.00000  Uiso   1.00
H795   H     0.25416   0.04889   0.70908   0.00000  Uiso   1.00
H796   H     0.21731   0.00103   0.69115   0.00000  Uiso   1.00
H797   H     0.47140   0.32127   0.84539   0.00000  Uiso   1.00
H798   H     0.33325   0.02257   0.80654   0.00000  Uiso   1.00
H799   H     0.33490   0.46360   0.77913   0.00000  Uiso   1.00
H800   H     0.38102   0.48534   0.81585   0.00000  Uiso   1.00
H801   H     0.03484   0.17920   0.87426   0.00000  Uiso   1.00
H802   H     0.30805   0.15492   0.89550   0.00000  Uiso   1.00
H803   H     0.19445   0.34736   0.76939   0.00000  Uiso   1.00
H804   H     0.19152   0.15636   0.77079   0.00000  Uiso   1.00
H805   H     0.30680   0.34674   0.89756   0.00000  Uiso   1.00
H806   H     0.11794   0.36454   0.86416   0.00000  Uiso   1.00
N807   N     0.25000   0.12934   0.83333   0.00000  Uiso   1.00
N808   N     0.25000   0.37065   0.83333   0.00000  Uiso   1.00
O809   O     0.18573   0.29071   0.83334   0.00000  Uiso   1.00
O810   O     0.18217   0.37614   0.78416   0.00000  Uiso   1.00
O811   O     0.20439   0.12692   0.75823   0.00000  Uiso   1.00
O812   O     0.31937   0.37360   0.88013   0.00000  Uiso   1.00
O813   O     0.10854   0.32828   0.79822   0.00000  Uiso   1.00
O814   O     0.38348   0.16146   0.81983   0.00000  Uiso   1.00
O815   O     0.38774   0.33460   0.83600   0.00000  Uiso   1.00
O816   O     0.12135   0.17340   0.87883   0.00000  Uiso   1.00
O817   O     0.29397   0.03027   0.91022   0.00000  Uiso   1.00
O818   O     0.17155   0.46901   0.81041   0.00000  Uiso   1.00
O819   O     0.20620   0.03173   0.75642   0.00000  Uiso   1.00
O820   O     0.31427   0.20928   0.83333   0.00000  Uiso   1.00
O821   O     0.32925   0.46633   0.85572   0.00000  Uiso   1.00
O822   O     0.31427   0.29071   0.83333   0.00000  Uiso   1.00
O823   O     0.18573   0.20928   0.83334   0.00000  Uiso   1.00
O824   O     0.25000   0.29071   0.76280   0.00000  Uiso   1.00
O825   O     0.25000   0.20929   0.90387   0.00000  Uiso   1.00
O826   O     0.25000   0.29071   0.90387   0.00000  Uiso   1.00
O827   O     0.25000   0.20929   0.76280   0.00000  Uiso   1.00
O828   O     0.29570   0.12559   0.90828   0.00000  Uiso   1.00
C829   C     0.66501   0.25012   0.83412   0.00000  Uiso   1.00
C830   C     0.78873   0.44545   0.84594   0.00000  Uiso   1.00
C831   C     0.74986   0.25002   0.74022   0.00000  Uiso   1.00
C832   C     0.75015   0.24997   0.92644   0.00000  Uiso   1.00
C833   C     0.74992   0.02722   0.83343   0.00000  Uiso   1.00
C834   C     0.75020   0.47274   0.83320   0.00000  Uiso   1.00
C835   C     0.74996   0.25002   0.68848   0.00000  Uiso   1.00
C836   C     0.75006   0.24996   0.97819   0.00000  Uiso   1.00
C837   C     0.54479   0.28275   0.81166   0.00000  Uiso   1.00
C838   C     0.95250   0.20281   0.82816   0.00000  Uiso   1.00
C839   C     0.95369   0.28824   0.83964   0.00000  Uiso   1.00
C840   C     0.83510   0.24952   0.83271   0.00000  Uiso   1.00
C841   C     0.55021   0.20810   0.85573   0.00000  Uiso   1.00
C842   C     0.59026   0.28748   0.81604   0.00000  Uiso   1.00
C843   C     0.90650   0.20335   0.82859   0.00000  Uiso   1.00
C844   C     0.90808   0.29035   0.83567   0.00000  Uiso   1.00
C845   C     0.59616   0.20905   0.85519   0.00000  Uiso   1.00
C846   C     0.61665   0.24937   0.83556   0.00000  Uiso   1.00
C847   C     0.88370   0.24776   0.83217   0.00000  Uiso   1.00
C848   C     0.52440   0.24467   0.83346   0.00000  Uiso   1.00
C849   C     0.97621   0.24493   0.83450   0.00000  Uiso   1.00
C850   C     0.59841   0.36721   0.82859   0.00000  Uiso   1.00
C851   C     0.77206   0.10367   0.87050   0.00000  Uiso   1.00
C852   C     0.89472   0.12772   0.85701   0.00000  Uiso   1.00
C853   C     0.88679   0.35363   0.78830   0.00000  Uiso   1.00
C854   C     0.61539   0.12994   0.85337   0.00000  Uiso   1.00
C855   C     0.76422   0.01599   0.94415   0.00000  Uiso   1.00
C856   C     0.65376   0.48103   0.85504   0.00000  Uiso   1.00
C857   C     0.73621   0.01758   0.72242   0.00000  Uiso   1.00
C858   C     0.84462   0.48506   0.81218   0.00000  Uiso   1.00
C859   C     0.71486   0.39679   0.81312   0.00000  Uiso   1.00
C860   C     0.72780   0.10436   0.79628   0.00000  Uiso   1.00
C861   C     0.78559   0.39566   0.85298   0.00000  Uiso   1.00
C862   C     0.77087   0.05333   0.87204   0.00000  Uiso   1.00
C863   C     0.71178   0.44658   0.82030   0.00000  Uiso   1.00
C864   C     0.72893   0.05402   0.79485   0.00000  Uiso   1.00
Cu865  Cu    0.75000   0.29821   0.83333   0.00000  Uiso   1.00
Cu866  Cu    0.75000   0.20178   0.83333   0.00000  Uiso   1.00
H867   H     0.52531   0.31019   0.79222   0.00000  Uiso   1.00
H868   H     0.56286   0.37065   0.83486   0.00000  Uiso   1.00
H869   H     0.60709   0.40081   0.81040   0.00000  Uiso   1.00
H870   H     0.89384   0.14366   0.89413   0.00000  Uiso   1.00
H871   H     0.92733   0.11103   0.85205   0.00000  Uiso   1.00
H872   H     0.87030   0.09867   0.85445   0.00000  Uiso   1.00
H873   H     0.87030   0.32919   0.76108   0.00000  Uiso   1.00
H874   H     0.92044   0.36209   0.77776   0.00000  Uiso   1.00
H875   H     0.86751   0.38736   0.78744   0.00000  Uiso   1.00
H876   H     0.61934   0.13423   0.81352   0.00000  Uiso   1.00
H877   H     0.58290   0.11438   0.85960   0.00000  Uiso   1.00
H878   H     0.96968   0.16962   0.82157   0.00000  Uiso   1.00
H879   H     0.64096   0.10405   0.86758   0.00000  Uiso   1.00
H880   H     0.74170   0.48802   0.92908   0.00000  Uiso   1.00
H881   H     0.74493   0.04710   0.95683   0.00000  Uiso   1.00
H882   H     0.78347   0.00005   0.97586   0.00000  Uiso   1.00
H883   H     0.67232   0.01033   0.87381   0.00000  Uiso   1.00
H884   H     0.61956   0.49412   0.84723   0.00000  Uiso   1.00
H885   H     0.65252   0.44950   0.87971   0.00000  Uiso   1.00
H886   H     0.75991   0.49013   0.73767   0.00000  Uiso   1.00
H887   H     0.75416   0.04889   0.70908   0.00000  Uiso   1.00
H888   H     0.71731   0.00103   0.69115   0.00000  Uiso   1.00
H889   H     0.97140   0.32127   0.84539   0.00000  Uiso   1.00
H890   H     0.83325   0.02257   0.80654   0.00000  Uiso   1.00
H891   H     0.83490   0.46360   0.77913   0.00000  Uiso   1.00
H892   H     0.88102   0.48534   0.81585   0.00000  Uiso   1.00
H893   H     0.53484   0.17920   0.87426   0.00000  Uiso   1.00
H894   H     0.80805   0.15492   0.89550   0.00000  Uiso   1.00
H895   H     0.69445   0.34736   0.76939   0.00000  Uiso   1.00
H896   H     0.69152   0.15636   0.77079   0.00000  Uiso   1.00
H897   H     0.80680   0.34674   0.89756   0.00000  Uiso   1.00
H898   H     0.61794   0.36454   0.86416   0.00000  Uiso   1.00
N899   N     0.75000   0.12934   0.83333   0.00000  Uiso   1.00
N900   N     0.75000   0.37065   0.83333   0.00000  Uiso   1.00
O901   O     0.68573   0.29071   0.83334   0.00000  Uiso   1.00
O902   O     0.68217   0.37614   0.78416   0.00000  Uiso   1.00
O903   O     0.70439   0.12692   0.75823   0.00000  Uiso   1.00
O904   O     0.81937   0.37360   0.88013   0.00000  Uiso   1.00
O905   O     0.60854   0.32828   0.79822   0.00000  Uiso   1.00
O906   O     0.88348   0.16146   0.81983   0.00000  Uiso   1.00
O907   O     0.88774   0.33460   0.83600   0.00000  Uiso   1.00
O908   O     0.62135   0.17340   0.87883   0.00000  Uiso   1.00
O909   O     0.79397   0.03027   0.91022   0.00000  Uiso   1.00
O910   O     0.67155   0.46901   0.81041   0.00000  Uiso   1.00
O911   O     0.70620   0.03173   0.75642   0.00000  Uiso   1.00
O912   O     0.81427   0.20928   0.83333   0.00000  Uiso   1.00
O913   O     0.82925   0.46633   0.85572   0.00000  Uiso   1.00
O914   O     0.81427   0.29071   0.83333   0.00000  Uiso   1.00
O915   O     0.68573   0.20928   0.83334   0.00000  Uiso   1.00
O916   O     0.75000   0.29071   0.76280   0.00000  Uiso   1.00
O917   O     0.75000   0.20929   0.90387   0.00000  Uiso   1.00
O918   O     0.75000   0.29071   0.90387   0.00000  Uiso   1.00
O919   O     0.75000   0.20929   0.76280   0.00000  Uiso   1.00
O920   O     0.79570   0.12559   0.90828   0.00000  Uiso   1.00
C921   C     0.16501   0.75012   0.83412   0.00000  Uiso   1.00
C922   C     0.28873   0.94545   0.84594   0.00000  Uiso   1.00
C923   C     0.24986   0.75002   0.74022   0.00000  Uiso   1.00
C924   C     0.25015   0.74997   0.92644   0.00000  Uiso   1.00
C925   C     0.24992   0.52722   0.83343   0.00000  Uiso   1.00
C926   C     0.25020   0.97274   0.83320   0.00000  Uiso   1.00
C927   C     0.24996   0.75002   0.68848   0.00000  Uiso   1.00
C928   C     0.25006   0.74996   0.97819   0.00000  Uiso   1.00
C929   C     0.04479   0.78275   0.81166   0.00000  Uiso   1.00
C930   C     0.45250   0.70281   0.82816   0.00000  Uiso   1.00
C931   C     0.45369   0.78824   0.83964   0.00000  Uiso   1.00
C932   C     0.33510   0.74952   0.83271   0.00000  Uiso   1.00
C933   C     0.05021   0.70810   0.85573   0.00000  Uiso   1.00
C934   C     0.09026   0.78748   0.81604   0.00000  Uiso   1.00
C935   C     0.40650   0.70335   0.82859   0.00000  Uiso   1.00
C936   C     0.40808   0.79035   0.83567   0.00000  Uiso   1.00
C937   C     0.09616   0.70905   0.85519   0.00000  Uiso   1.00
C938   C     0.11665   0.74937   0.83556   0.00000  Uiso   1.00
C939   C     0.38370   0.74776   0.83217   0.00000  Uiso   1.00
C940   C     0.02440   0.74467   0.83346   0.00000  Uiso   1.00
C941   C     0.47621   0.74493   0.83450   0.00000  Uiso   1.00
C942   C     0.09841   0.86721   0.82859   0.00000  Uiso   1.00
C943   C     0.27206   0.60367   0.87050   0.00000  Uiso   1.00
C944   C     0.39472   0.62772   0.85701   0.00000  Uiso   1.00
C945   C     0.38679   0.85363   0.78830   0.00000  Uiso   1.00
C946   C     0.11539   0.62994   0.85337   0.00000  Uiso   1.00
C947   C     0.26422   0.51599   0.94415   0.00000  Uiso   1.00
C948   C     0.15376   0.98103   0.85504   0.00000  Uiso   1.00
C949   C     0.23621   0.51758   0.72242   0.00000  Uiso   1.00
C950   C     0.34462   0.98506   0.81218   0.00000  Uiso   1.00
C951   C     0.21486   0.89679   0.81312   0.00000  Uiso   1.00
C952   C     0.22780   0.60436   0.79628   0.00000  Uiso   1.00
C953   C     0.28559   0.89566   0.85298   0.00000  Uiso   1.00
C954   C     0.27087   0.55333   0.87204   0.00000  Uiso   1.00
C955   C     0.21178   0.94658   0.82030   0.00000  Uiso   1.00
C956   C     0.22893   0.55402   0.79485   0.00000  Uiso   1.00
Cu957  Cu    0.25000   0.79821   0.83333   0.00000  Uiso   1.00
Cu958  Cu    0.25000   0.70178   0.83333   0.00000  Uiso   1.00
H959   H     0.02531   0.81019   0.79222   0.00000  Uiso   1.00
H960   H     0.06286   0.87065   0.83486   0.00000  Uiso   1.00
H961   H     0.10709   0.90081   0.81040   0.00000  Uiso   1.00
H962   H     0.39384   0.64366   0.89413   0.00000  Uiso   1.00
H963   H     0.42733   0.61103   0.85205   0.00000  Uiso   1.00
H964   H     0.37030   0.59867   0.85445   0.00000  Uiso   1.00
H965   H     0.37030   0.82919   0.76108   0.00000  Uiso   1.00
H966   H     0.42044   0.86209   0.77776   0.00000  Uiso   1.00
H967   H     0.36751   0.88736   0.78744   0.00000  Uiso   1.00
H968   H     0.11934   0.63423   0.81352   0.00000  Uiso   1.00
H969   H     0.08290   0.61438   0.85960   0.00000  Uiso   1.00
H970   H     0.46968   0.66962   0.82157   0.00000  Uiso   1.00
H971   H     0.14096   0.60405   0.86758   0.00000  Uiso   1.00
H972   H     0.24170   0.98802   0.92908   0.00000  Uiso   1.00
H973   H     0.24493   0.54710   0.95683   0.00000  Uiso   1.00
H974   H     0.28347   0.50005   0.97586   0.00000  Uiso   1.00
H975   H     0.17232   0.51033   0.87381   0.00000  Uiso   1.00
H976   H     0.11956   0.99412   0.84723   0.00000  Uiso   1.00
H977   H     0.15252   0.94950   0.87971   0.00000  Uiso   1.00
H978   H     0.25991   0.99013   0.73767   0.00000  Uiso   1.00
H979   H     0.25416   0.54889   0.70908   0.00000  Uiso   1.00
H980   H     0.21731   0.50103   0.69115   0.00000  Uiso   1.00
H981   H     0.47140   0.82127   0.84539   0.00000  Uiso   1.00
H982   H     0.33325   0.52257   0.80654   0.00000  Uiso   1.00
H983   H     0.33490   0.96360   0.77913   0.00000  Uiso   1.00
H984   H     0.38102   0.98534   0.81585   0.00000  Uiso   1.00
H985   H     0.03484   0.67920   0.87426   0.00000  Uiso   1.00
H986   H     0.30805   0.65492   0.89550   0.00000  Uiso   1.00
H987   H     0.19445   0.84736   0.76939   0.00000  Uiso   1.00
H988   H     0.19152   0.65636   0.77079   0.00000  Uiso   1.00
H989   H     0.30680   0.84674   0.89756   0.00000  Uiso   1.00
H990   H     0.11794   0.86454   0.86416   0.00000  Uiso   1.00
N991   N     0.25000   0.62934   0.83333   0.00000  Uiso   1.00
N992   N     0.25000   0.87065   0.83333   0.00000  Uiso   1.00
O993   O     0.18573   0.79071   0.83334   0.00000  Uiso   1.00
O994   O     0.18217   0.87614   0.78416   0.00000  Uiso   1.00
O995   O     0.20439   0.62692   0.75823   0.00000  Uiso   1.00
O996   O     0.31937   0.87360   0.88013   0.00000  Uiso   1.00
O997   O     0.10854   0.82828   0.79822   0.00000  Uiso   1.00
O998   O     0.38348   0.66146   0.81983   0.00000  Uiso   1.00
O999   O     0.38774   0.83460   0.83600   0.00000  Uiso   1.00
O1000  O     0.12135   0.67340   0.87883   0.00000  Uiso   1.00
O1001  O     0.29397   0.53027   0.91022   0.00000  Uiso   1.00
O1002  O     0.17155   0.96901   0.81041   0.00000  Uiso   1.00
O1003  O     0.20620   0.53173   0.75642   0.00000  Uiso   1.00
O1004  O     0.31427   0.70928   0.83333   0.00000  Uiso   1.00
O1005  O     0.32925   0.96633   0.85572   0.00000  Uiso   1.00
O1006  O     0.31427   0.79071   0.83333   0.00000  Uiso   1.00
O1007  O     0.18573   0.70928   0.83334   0.00000  Uiso   1.00
O1008  O     0.25000   0.79071   0.76280   0.00000  Uiso   1.00
O1009  O     0.25000   0.70929   0.90387   0.00000  Uiso   1.00
O1010  O     0.25000   0.79071   0.90387   0.00000  Uiso   1.00
O1011  O     0.25000   0.70929   0.76280   0.00000  Uiso   1.00
O1012  O     0.29570   0.62559   0.90828   0.00000  Uiso   1.00
C1013  C     0.66501   0.75012   0.83412   0.00000  Uiso   1.00
C1014  C     0.78873   0.94545   0.84594   0.00000  Uiso   1.00
C1015  C     0.74986   0.75002   0.74022   0.00000  Uiso   1.00
C1016  C     0.75015   0.74997   0.92644   0.00000  Uiso   1.00
C1017  C     0.74992   0.52722   0.83343   0.00000  Uiso   1.00
C1018  C     0.75020   0.97274   0.83320   0.00000  Uiso   1.00
C1019  C     0.74996   0.75002   0.68848   0.00000  Uiso   1.00
C1020  C     0.75006   0.74996   0.97819   0.00000  Uiso   1.00
C1021  C     0.54479   0.78275   0.81166   0.00000  Uiso   1.00
C1022  C     0.95250   0.70281   0.82816   0.00000  Uiso   1.00
C1023  C     0.95369   0.78824   0.83964   0.00000  Uiso   1.00
C1024  C     0.83510   0.74952   0.83271   0.00000  Uiso   1.00
C1025  C     0.55021   0.70810   0.85573   0.00000  Uiso   1.00
C1026  C     0.59026   0.78748   0.81604   0.00000  Uiso   1.00
C1027  C     0.90650   0.70335   0.82859   0.00000  Uiso   1.00
C1028  C     0.90808   0.79035   0.83567   0.00000  Uiso   1.00
C1029  C     0.59616   0.70905   0.85519   0.00000  Uiso   1.00
C1030  C     0.61665   0.74937   0.83556   0.00000  Uiso   1.00
C1031  C     0.88370   0.74776   0.83217   0.00000  Uiso   1.00
C1032  C     0.52440   0.74467   0.83346   0.00000  Uiso   1.00
C1033  C     0.97621   0.74493   0.83450   0.00000  Uiso   1.00
C1034  C     0.59841   0.86721   0.82859   0.00000  Uiso   1.00
C1035  C     0.77206   0.60367   0.87050   0.00000  Uiso   1.00
C1036  C     0.89472   0.62772   0.85701   0.00000  Uiso   1.00
C1037  C     0.88679   0.85363   0.78830   0.00000  Uiso   1.00
C1038  C     0.61539   0.62994   0.85337   0.00000  Uiso   1.00
C1039  C     0.76422   0.51599   0.94415   0.00000  Uiso   1.00
C1040  C     0.65376   0.98103   0.85504   0.00000  Uiso   1.00
C1041  C     0.73621   0.51758   0.72242   0.00000  Uiso   1.00
C1042  C     0.84462   0.98506   0.81218   0.00000  Uiso   1.00
C1043  C     0.71486   0.89679   0.81312   0.00000  Uiso   1.00
C1044  C     0.72780   0.60436   0.79628   0.00000  Uiso   1.00
C1045  C     0.78559   0.89566   0.85298   0.00000  Uiso   1.00
C1046  C     0.77087   0.55333   0.87204   0.00000  Uiso   1.00
C1047  C     0.71178   0.94658   0.82030   0.00000  Uiso   1.00
C1048  C     0.72893   0.55402   0.79485   0.00000  Uiso   1.00
Cu1049 Cu    0.75000   0.79821   0.83333   0.00000  Uiso   1.00
Cu1050 Cu    0.75000   0.70178   0.83333   0.00000  Uiso   1.00
H1051  H     0.52531   0.81019   0.79222   0.00000  Uiso   1.00
H1052  H     0.56286   0.87065   0.83486   0.00000  Uiso   1.00
H1053  H     0.60709   0.90081   0.81040   0.00000  Uiso   1.00
H1054  H     0.89384   0.64366   0.89413   0.00000  Uiso   1.00
H1055  H     0.92733   0.61103   0.85205   0.00000  Uiso   1.00
H1056  H     0.87030   0.59867   0.85445   0.00000  Uiso   1.00
H1057  H     0.87030   0.82919   0.76108   0.00000  Uiso   1.00
H1058  H     0.92044   0.86209   0.77776   0.00000  Uiso   1.00
H1059  H     0.86751   0.88736   0.78744   0.00000  Uiso   1.00
H1060  H     0.61934   0.63423   0.81352   0.00000  Uiso   1.00
H1061  H     0.58290   0.61438   0.85960   0.00000  Uiso   1.00
H1062  H     0.96968   0.66962   0.82157   0.00000  Uiso   1.00
H1063  H     0.64096   0.60405   0.86758   0.00000  Uiso   1.00
H1064  H     0.74170   0.98802   0.92908   0.00000  Uiso   1.00
H1065  H     0.74493   0.54710   0.95683   0.00000  Uiso   1.00
H1066  H     0.78347   0.50005   0.97586   0.00000  Uiso   1.00
H1067  H     0.67232   0.51033   0.87381   0.00000  Uiso   1.00
H1068  H     0.61956   0.99412   0.84723   0.00000  Uiso   1.00
H1069  H     0.65252   0.94950   0.87971   0.00000  Uiso   1.00
H1070  H     0.75991   0.99013   0.73767   0.00000  Uiso   1.00
H1071  H     0.75416   0.54889   0.70908   0.00000  Uiso   1.00
H1072  H     0.71731   0.50103   0.69115   0.00000  Uiso   1.00
H1073  H     0.97140   0.82127   0.84539   0.00000  Uiso   1.00
H1074  H     0.83325   0.52257   0.80654   0.00000  Uiso   1.00
H1075  H     0.83490   0.96360   0.77913   0.00000  Uiso   1.00
H1076  H     0.88102   0.98534   0.81585   0.00000  Uiso   1.00
H1077  H     0.53484   0.67920   0.87426   0.00000  Uiso   1.00
H1078  H     0.80805   0.65492   0.89550   0.00000  Uiso   1.00
H1079  H     0.69445   0.84736   0.76939   0.00000  Uiso   1.00
H1080  H     0.69152   0.65636   0.77079   0.00000  Uiso   1.00
H1081  H     0.80680   0.84674   0.89756   0.00000  Uiso   1.00
H1082  H     0.61794   0.86454   0.86416   0.00000  Uiso   1.00
N1083  N     0.75000   0.62934   0.83333   0.00000  Uiso   1.00
N1084  N     0.75000   0.87065   0.83333   0.00000  Uiso   1.00
O1085  O     0.68573   0.79071   0.83334   0.00000  Uiso   1.00
O1086  O     0.68217   0.87614   0.78416   0.00000  Uiso   1.00
O1087  O     0.70439   0.62692   0.75823   0.00000  Uiso   1.00
O1088  O     0.81937   0.87360   0.88013   0.00000  Uiso   1.00
O1089  O     0.60854   0.82828   0.79822   0.00000  Uiso   1.00
O1090  O     0.88348   0.66146   0.81983   0.00000  Uiso   1.00
O1091  O     0.88774   0.83460   0.83600   0.00000  Uiso   1.00
O1092  O     0.62135   0.67340   0.87883   0.00000  Uiso   1.00
O1093  O     0.79397   0.53027   0.91022   0.00000  Uiso   1.00
O1094  O     0.67155   0.96901   0.81041   0.00000  Uiso   1.00
O1095  O     0.70620   0.53173   0.75642   0.00000  Uiso   1.00
O1096  O     0.81427   0.70928   0.83333   0.00000  Uiso   1.00
O1097  O     0.82925   0.96633   0.85572   0.00000  Uiso   1.00
O1098  O     0.81427   0.79071   0.83333   0.00000  Uiso   1.00
O1099  O     0.68573   0.70928   0.83334   0.00000  Uiso   1.00
O1100  O     0.75000   0.79071   0.76280   0.00000  Uiso   1.00
O1101  O     0.75000   0.70929   0.90387   0.00000  Uiso   1.00
O1102  O     0.75000   0.79071   0.90387   0.00000  Uiso   1.00
O1103  O     0.75000   0.70929   0.76280   0.00000  Uiso   1.00
O1104  O     0.79570   0.62559   0.90828   0.00000  Uiso   1.00
loop_
_geom_bond_atom_site_label_1
_geom_bond_atom_site_label_2
_geom_bond_distance
_geom_bond_site_symmetry_2
_ccdc_geom_bond_type
C1     O87     1.300   .     A
C1     C18     1.479   .     S
C1     O73     1.308   .     A
C2     O85     1.385   .     S
C2     C6      1.418   .     A
C2     C33     1.412   .     A
C3     C7      1.420   .     S
C3     O91     1.296   .     A
C3     O88     1.297   .     A
C4     C8      1.420   .     S
C4     O90     1.297   .     A
C4     O89     1.297   .     A
C5     C36     1.411   .     A
C5     C34     1.412   .     A
C5     C190    1.525   1_545 S
C6     C35     1.416   .     A
C6     C189    1.525   .     S
C7     C744    1.197   1_554 S
C8     C375    1.197   .     S
C9     H39     1.083   .     S
C9     C14     1.393   .     A
C9     C20     1.394   .     A
C10    C15     1.404   .     A
C10    C21     1.396   .     A
C10    H50     1.082   .     S
C11    C21     1.398   .     A
C11    C16     1.390   .     A
C11    H61     1.083   .     S
C12    O84     1.301   .     A
C12    O86     1.310   .     A
C12    C19     1.484   .     S
C13    H65     1.083   .     S
C13    C20     1.399   .     A
C13    C17     1.404   .     A
C14    C18     1.412   .     A
C14    O77     1.380   .     S
C15    C19     1.423   .     A
C15    O78     1.388   .     S
C16    O79     1.379   .     S
C16    C19     1.413   .     A
C17    O80     1.386   .     S
C17    C18     1.419   .     A
C20    C113    1.473   1_455 S
C21    C112    1.473   .     S
C22    H41     1.107   .     S
C22    H40     1.112   .     S
C22    O77     1.416   .     S
C22    H70     1.112   .     S
C23    N71     1.381   .     A
C23    C34     1.410   .     A
C23    O92     1.374   .     S
C24    H42     1.114   .     S
C24    O78     1.412   .     S
C24    H44     1.109   .     S
C24    H43     1.110   .     S
C25    H47     1.105   .     S
C25    H45     1.114   .     S
C25    O79     1.411   .     S
C25    H46     1.113   .     S
C26    H48     1.114   .     S
C26    H49     1.111   .     S
C26    O80     1.412   .     S
C26    H51     1.110   .     S
C27    H54     1.108   .     S
C27    O81     1.403   .     S
C27    H53     1.113   .     S
C27    H236    1.111   1_545 S
C28    H56     1.109   .     S
C28    H57     1.114   .     S
C28    O82     1.411   .     S
C28    H239    1.111   .     S
C29    O83     1.403   .     S
C29    H59     1.113   .     S
C29    H60     1.108   .     S
C29    H242    1.111   1_545 S
C30    H64     1.109   .     S
C30    H63     1.115   .     S
C30    O85     1.414   .     S
C30    H246    1.109   .     S
C31    O74     1.369   .     S
C31    N72     1.376   .     A
C31    C35     1.410   .     A
C32    O75     1.375   .     S
C32    C36     1.409   .     A
C32    N71     1.381   .     A
C33    O76     1.372   .     S
C33    N72     1.380   .     A
C34    O81     1.379   .     S
C35    O82     1.383   .     S
C36    O83     1.379   .     S
Cu37   O88     1.948   .     S
Cu37   O90     1.947   .     S
Cu37   O86     1.970   .     S
Cu37   Cu38    2.699   .     S
Cu37   O73     1.975   .     S
Cu37   N72     2.027   .     S
Cu38   O89     1.948   .     S
Cu38   O91     1.947   .     S
Cu38   N71     2.027   .     S
Cu38   O84     1.975   .     S
Cu38   O87     1.970   .     S
H52    C211    1.111   .     S
H55    C212    1.111   1_545 S
H58    C213    1.111   .     S
H62    C214    1.109   1_545 S
H66    O92     0.981   .     S
H67    O74     0.983   .     S
H68    O75     0.981   .     S
H69    O76     0.985   .     S
C93    O179    1.300   .     A
C93    C110    1.479   .     S
C93    O165    1.308   .     A
C94    O177    1.385   .     S
C94    C98     1.418   .     A
C94    C125    1.412   .     A
C95    C99     1.420   .     S
C95    O183    1.296   .     A
C95    O180    1.297   .     A
C96    C100    1.420   .     S
C96    O182    1.297   .     A
C96    O181    1.297   .     A
C97    C128    1.411   .     A
C97    C126    1.412   .     A
C97    C282    1.525   1_545 S
C98    C127    1.416   .     A
C98    C281    1.525   .     S
C99    C836    1.197   1_554 S
C100   C467    1.197   .     S
C101   H131    1.083   .     S
C101   C106    1.393   .     A
C101   C112    1.394   .     A
C102   C107    1.404   .     A
C102   C113    1.396   .     A
C102   H142    1.082   .     S
C103   C113    1.398   .     A
C103   C108    1.390   .     A
C103   H153    1.083   .     S
C104   O176    1.301   .     A
C104   O178    1.310   .     A
C104   C111    1.484   .     S
C105   H157    1.083   .     S
C105   C112    1.399   .     A
C105   C109    1.404   .     A
C106   C110    1.412   .     A
C106   O169    1.380   .     S
C107   C111    1.423   .     A
C107   O170    1.388   .     S
C108   O171    1.379   .     S
C108   C111    1.413   .     A
C109   O172    1.386   .     S
C109   C110    1.419   .     A
C113   C20     1.473   1_655 S
C114   H133    1.107   .     S
C114   H132    1.112   .     S
C114   O169    1.416   .     S
C114   H162    1.112   .     S
C115   N163    1.381   .     A
C115   C126    1.410   .     A
C115   O184    1.374   .     S
C116   H134    1.114   .     S
C116   O170    1.412   .     S
C116   H136    1.109   .     S
C116   H135    1.110   .     S
C117   H139    1.105   .     S
C117   H137    1.114   .     S
C117   O171    1.411   .     S
C117   H138    1.113   .     S
C118   H140    1.114   .     S
C118   H141    1.111   .     S
C118   O172    1.412   .     S
C118   H143    1.110   .     S
C119   H146    1.108   .     S
C119   O173    1.403   .     S
C119   H145    1.113   .     S
C119   H328    1.111   1_545 S
C120   H148    1.109   .     S
C120   H149    1.114   .     S
C120   O174    1.411   .     S
C120   H331    1.111   .     S
C121   O175    1.403   .     S
C121   H151    1.113   .     S
C121   H152    1.108   .     S
C121   H334    1.111   1_545 S
C122   H156    1.109   .     S
C122   H155    1.115   .     S
C122   O177    1.414   .     S
C122   H338    1.109   .     S
C123   O166    1.369   .     S
C123   N164    1.376   .     A
C123   C127    1.410   .     A
C124   O167    1.375   .     S
C124   C128    1.409   .     A
C124   N163    1.381   .     A
C125   O168    1.372   .     S
C125   N164    1.380   .     A
C126   O173    1.379   .     S
C127   O174    1.383   .     S
C128   O175    1.379   .     S
Cu129  O180    1.948   .     S
Cu129  O182    1.947   .     S
Cu129  O178    1.970   .     S
Cu129  Cu130   2.699   .     S
Cu129  O165    1.975   .     S
Cu129  N164    2.027   .     S
Cu130  O181    1.948   .     S
Cu130  O183    1.947   .     S
Cu130  N163    2.027   .     S
Cu130  O176    1.975   .     S
Cu130  O179    1.970   .     S
H144   C303    1.111   .     S
H147   C304    1.111   1_545 S
H150   C305    1.111   .     S
H154   C306    1.109   1_545 S
H158   O184    0.981   .     S
H159   O166    0.983   .     S
H160   O167    0.981   .     S
H161   O168    0.985   .     S
C185   O271    1.300   .     A
C185   C202    1.479   .     S
C185   O257    1.308   .     A
C186   O269    1.385   .     S
C186   C190    1.418   .     A
C186   C217    1.412   .     A
C187   C191    1.420   .     S
C187   O275    1.296   .     A
C187   O272    1.297   .     A
C188   C192    1.420   .     S
C188   O274    1.297   .     A
C188   O273    1.297   .     A
C189   C220    1.411   .     A
C189   C218    1.412   .     A
C190   C219    1.416   .     A
C190   C5      1.525   1_565 S
C191   C928    1.197   1_554 S
C192   C559    1.197   .     S
C193   H223    1.083   .     S
C193   C198    1.393   .     A
C193   C204    1.394   .     A
C194   C199    1.404   .     A
C194   C205    1.396   .     A
C194   H234    1.082   .     S
C195   C205    1.398   .     A
C195   C200    1.390   .     A
C195   H245    1.083   .     S
C196   O268    1.301   .     A
C196   O270    1.310   .     A
C196   C203    1.484   .     S
C197   H249    1.083   .     S
C197   C204    1.399   .     A
C197   C201    1.404   .     A
C198   C202    1.412   .     A
C198   O261    1.380   .     S
C199   C203    1.423   .     A
C199   O262    1.388   .     S
C200   O263    1.379   .     S
C200   C203    1.413   .     A
C201   O264    1.386   .     S
C201   C202    1.419   .     A
C204   C297    1.473   1_455 S
C205   C296    1.473   .     S
C206   H225    1.107   .     S
C206   H224    1.112   .     S
C206   O261    1.416   .     S
C206   H254    1.112   .     S
C207   N255    1.381   .     A
C207   C218    1.410   .     A
C207   O276    1.374   .     S
C208   H226    1.114   .     S
C208   O262    1.412   .     S
C208   H228    1.109   .     S
C208   H227    1.110   .     S
C209   H231    1.105   .     S
C209   H229    1.114   .     S
C209   O263    1.411   .     S
C209   H230    1.113   .     S
C210   H232    1.114   .     S
C210   H233    1.111   .     S
C210   O264    1.412   .     S
C210   H235    1.110   .     S
C211   H238    1.108   .     S
C211   O265    1.403   .     S
C211   H237    1.113   .     S
C212   H240    1.109   .     S
C212   H241    1.114   .     S
C212   O266    1.411   .     S
C212   H55     1.111   1_565 S
C213   O267    1.403   .     S
C213   H243    1.113   .     S
C213   H244    1.108   .     S
C214   H248    1.109   .     S
C214   H247    1.115   .     S
C214   O269    1.414   .     S
C214   H62     1.109   1_565 S
C215   O258    1.369   .     S
C215   N256    1.376   .     A
C215   C219    1.410   .     A
C216   O259    1.375   .     S
C216   C220    1.409   .     A
C216   N255    1.381   .     A
C217   O260    1.372   .     S
C217   N256    1.380   .     A
C218   O265    1.379   .     S
C219   O266    1.383   .     S
C220   O267    1.379   .     S
Cu221  O272    1.948   .     S
Cu221  O274    1.947   .     S
Cu221  O270    1.970   .     S
Cu221  Cu222   2.699   .     S
Cu221  O257    1.975   .     S
Cu221  N256    2.027   .     S
Cu222  O273    1.948   .     S
Cu222  O275    1.947   .     S
Cu222  N255    2.027   .     S
Cu222  O268    1.975   .     S
Cu222  O271    1.970   .     S
H236   C27     1.111   1_565 S
H242   C29     1.111   1_565 S
H250   O276    0.981   .     S
H251   O258    0.983   .     S
H252   O259    0.981   .     S
H253   O260    0.985   .     S
C277   O363    1.300   .     A
C277   C294    1.479   .     S
C277   O349    1.308   .     A
C278   O361    1.385   .     S
C278   C282    1.418   .     A
C278   C309    1.412   .     A
C279   C283    1.420   .     S
C279   O367    1.296   .     A
C279   O364    1.297   .     A
C280   C284    1.420   .     S
C280   O366    1.297   .     A
C280   O365    1.297   .     A
C281   C312    1.411   .     A
C281   C310    1.412   .     A
C282   C311    1.416   .     A
C282   C97     1.525   1_565 S
C283   C1020   1.197   1_554 S
C284   C651    1.197   .     S
C285   H315    1.083   .     S
C285   C290    1.393   .     A
C285   C296    1.394   .     A
C286   C291    1.404   .     A
C286   C297    1.396   .     A
C286   H326    1.082   .     S
C287   C297    1.398   .     A
C287   C292    1.390   .     A
C287   H337    1.083   .     S
C288   O360    1.301   .     A
C288   O362    1.310   .     A
C288   C295    1.484   .     S
C289   H341    1.083   .     S
C289   C296    1.399   .     A
C289   C293    1.404   .     A
C290   C294    1.412   .     A
C290   O353    1.380   .     S
C291   C295    1.423   .     A
C291   O354    1.388   .     S
C292   O355    1.379   .     S
C292   C295    1.413   .     A
C293   O356    1.386   .     S
C293   C294    1.419   .     A
C297   C204    1.473   1_655 S
C298   H317    1.107   .     S
C298   H316    1.112   .     S
C298   O353    1.416   .     S
C298   H346    1.112   .     S
C299   N347    1.381   .     A
C299   C310    1.410   .     A
C299   O368    1.374   .     S
C300   H318    1.114   .     S
C300   O354    1.412   .     S
C300   H320    1.109   .     S
C300   H319    1.110   .     S
C301   H323    1.105   .     S
C301   H321    1.114   .     S
C301   O355    1.411   .     S
C301   H322    1.113   .     S
C302   H324    1.114   .     S
C302   H325    1.111   .     S
C302   O356    1.412   .     S
C302   H327    1.110   .     S
C303   H330    1.108   .     S
C303   O357    1.403   .     S
C303   H329    1.113   .     S
C304   H332    1.109   .     S
C304   H333    1.114   .     S
C304   O358    1.411   .     S
C304   H147    1.111   1_565 S
C305   O359    1.403   .     S
C305   H335    1.113   .     S
C305   H336    1.108   .     S
C306   H340    1.109   .     S
C306   H339    1.115   .     S
C306   O361    1.414   .     S
C306   H154    1.109   1_565 S
C307   O350    1.369   .     S
C307   N348    1.376   .     A
C307   C311    1.410   .     A
C308   O351    1.375   .     S
C308   C312    1.409   .     A
C308   N347    1.381   .     A
C309   O352    1.372   .     S
C309   N348    1.380   .     A
C310   O357    1.379   .     S
C311   O358    1.383   .     S
C312   O359    1.379   .     S
Cu313  O364    1.948   .     S
Cu313  O366    1.947   .     S
Cu313  O362    1.970   .     S
Cu313  Cu314   2.699   .     S
Cu313  O349    1.975   .     S
Cu313  N348    2.027   .     S
Cu314  O365    1.948   .     S
Cu314  O367    1.947   .     S
Cu314  N347    2.027   .     S
Cu314  O360    1.975   .     S
Cu314  O363    1.970   .     S
H328   C119    1.111   1_565 S
H334   C121    1.111   1_565 S
H342   O368    0.981   .     S
H343   O350    0.983   .     S
H344   O351    0.981   .     S
H345   O352    0.985   .     S
C369   O455    1.300   .     A
C369   C386    1.479   .     S
C369   O441    1.308   .     A
C370   O453    1.385   .     S
C370   C374    1.418   .     A
C370   C401    1.412   .     A
C371   C375    1.420   .     S
C371   O459    1.296   .     A
C371   O456    1.297   .     A
C372   C376    1.420   .     S
C372   O458    1.297   .     A
C372   O457    1.297   .     A
C373   C404    1.411   .     A
C373   C402    1.412   .     A
C373   C558    1.525   1_545 S
C374   C403    1.416   .     A
C374   C557    1.525   .     S
C376   C743    1.197   .     S
C377   H407    1.083   .     S
C377   C382    1.393   .     A
C377   C388    1.394   .     A
C378   C383    1.404   .     A
C378   C389    1.396   .     A
C378   H418    1.082   .     S
C379   C389    1.398   .     A
C379   C384    1.390   .     A
C379   H429    1.083   .     S
C380   O452    1.301   .     A
C380   O454    1.310   .     A
C380   C387    1.484   .     S
C381   H433    1.083   .     S
C381   C388    1.399   .     A
C381   C385    1.404   .     A
C382   C386    1.412   .     A
C382   O445    1.380   .     S
C383   C387    1.423   .     A
C383   O446    1.388   .     S
C384   O447    1.379   .     S
C384   C387    1.413   .     A
C385   O448    1.386   .     S
C385   C386    1.419   .     A
C388   C481    1.473   1_455 S
C389   C480    1.473   .     S
C390   H409    1.107   .     S
C390   H408    1.112   .     S
C390   O445    1.416   .     S
C390   H438    1.112   .     S
C391   N439    1.381   .     A
C391   C402    1.410   .     A
C391   O460    1.374   .     S
C392   H410    1.114   .     S
C392   O446    1.412   .     S
C392   H412    1.109   .     S
C392   H411    1.110   .     S
C393   H415    1.105   .     S
C393   H413    1.114   .     S
C393   O447    1.411   .     S
C393   H414    1.113   .     S
C394   H416    1.114   .     S
C394   H417    1.111   .     S
C394   O448    1.412   .     S
C394   H419    1.110   .     S
C395   H422    1.108   .     S
C395   O449    1.403   .     S
C395   H421    1.113   .     S
C395   H604    1.111   1_545 S
C396   H424    1.109   .     S
C396   H425    1.114   .     S
C396   O450    1.411   .     S
C396   H607    1.111   .     S
C397   O451    1.403   .     S
C397   H427    1.113   .     S
C397   H428    1.108   .     S
C397   H610    1.111   1_545 S
C398   H432    1.109   .     S
C398   H431    1.115   .     S
C398   O453    1.414   .     S
C398   H614    1.109   .     S
C399   O442    1.369   .     S
C399   N440    1.376   .     A
C399   C403    1.410   .     A
C400   O443    1.375   .     S
C400   C404    1.409   .     A
C400   N439    1.381   .     A
C401   O444    1.372   .     S
C401   N440    1.380   .     A
C402   O449    1.379   .     S
C403   O450    1.383   .     S
C404   O451    1.379   .     S
Cu405  O456    1.948   .     S
Cu405  O458    1.947   .     S
Cu405  O454    1.970   .     S
Cu405  Cu406   2.699   .     S
Cu405  O441    1.975   .     S
Cu405  N440    2.027   .     S
Cu406  O457    1.948   .     S
Cu406  O459    1.947   .     S
Cu406  N439    2.027   .     S
Cu406  O452    1.975   .     S
Cu406  O455    1.970   .     S
H420   C579    1.111   .     S
H423   C580    1.111   1_545 S
H426   C581    1.111   .     S
H430   C582    1.109   1_545 S
H434   O460    0.981   .     S
H435   O442    0.983   .     S
H436   O443    0.981   .     S
H437   O444    0.985   .     S
C461   O547    1.300   .     A
C461   C478    1.479   .     S
C461   O533    1.308   .     A
C462   O545    1.385   .     S
C462   C466    1.418   .     A
C462   C493    1.412   .     A
C463   C467    1.420   .     S
C463   O551    1.296   .     A
C463   O548    1.297   .     A
C464   C468    1.420   .     S
C464   O550    1.297   .     A
C464   O549    1.297   .     A
C465   C496    1.411   .     A
C465   C494    1.412   .     A
C465   C650    1.525   1_545 S
C466   C495    1.416   .     A
C466   C649    1.525   .     S
C468   C835    1.197   .     S
C469   H499    1.083   .     S
C469   C474    1.393   .     A
C469   C480    1.394   .     A
C470   C475    1.404   .     A
C470   C481    1.396   .     A
C470   H510    1.082   .     S
C471   C481    1.398   .     A
C471   C476    1.390   .     A
C471   H521    1.083   .     S
C472   O544    1.301   .     A
C472   O546    1.310   .     A
C472   C479    1.484   .     S
C473   H525    1.083   .     S
C473   C480    1.399   .     A
C473   C477    1.404   .     A
C474   C478    1.412   .     A
C474   O537    1.380   .     S
C475   C479    1.423   .     A
C475   O538    1.388   .     S
C476   O539    1.379   .     S
C476   C479    1.413   .     A
C477   O540    1.386   .     S
C477   C478    1.419   .     A
C481   C388    1.473   1_655 S
C482   H501    1.107   .     S
C482   H500    1.112   .     S
C482   O537    1.416   .     S
C482   H530    1.112   .     S
C483   N531    1.381   .     A
C483   C494    1.410   .     A
C483   O552    1.374   .     S
C484   H502    1.114   .     S
C484   O538    1.412   .     S
C484   H504    1.109   .     S
C484   H503    1.110   .     S
C485   H507    1.105   .     S
C485   H505    1.114   .     S
C485   O539    1.411   .     S
C485   H506    1.113   .     S
C486   H508    1.114   .     S
C486   H509    1.111   .     S
C486   O540    1.412   .     S
C486   H511    1.110   .     S
C487   H514    1.108   .     S
C487   O541    1.403   .     S
C487   H513    1.113   .     S
C487   H696    1.111   1_545 S
C488   H516    1.109   .     S
C488   H517    1.114   .     S
C488   O542    1.411   .     S
C488   H699    1.111   .     S
C489   O543    1.403   .     S
C489   H519    1.113   .     S
C489   H520    1.108   .     S
C489   H702    1.111   1_545 S
C490   H524    1.109   .     S
C490   H523    1.115   .     S
C490   O545    1.414   .     S
C490   H706    1.109   .     S
C491   O534    1.369   .     S
C491   N532    1.376   .     A
C491   C495    1.410   .     A
C492   O535    1.375   .     S
C492   C496    1.409   .     A
C492   N531    1.381   .     A
C493   O536    1.372   .     S
C493   N532    1.380   .     A
C494   O541    1.379   .     S
C495   O542    1.383   .     S
C496   O543    1.379   .     S
Cu497  O548    1.948   .     S
Cu497  O550    1.947   .     S
Cu497  O546    1.970   .     S
Cu497  Cu498   2.699   .     S
Cu497  O533    1.975   .     S
Cu497  N532    2.027   .     S
Cu498  O549    1.948   .     S
Cu498  O551    1.947   .     S
Cu498  N531    2.027   .     S
Cu498  O544    1.975   .     S
Cu498  O547    1.970   .     S
H512   C671    1.111   .     S
H515   C672    1.111   1_545 S
H518   C673    1.111   .     S
H522   C674    1.109   1_545 S
H526   O552    0.981   .     S
H527   O534    0.983   .     S
H528   O535    0.981   .     S
H529   O536    0.985   .     S
C553   O639    1.300   .     A
C553   C570    1.479   .     S
C553   O625    1.308   .     A
C554   O637    1.385   .     S
C554   C558    1.418   .     A
C554   C585    1.412   .     A
C555   C559    1.420   .     S
C555   O643    1.296   .     A
C555   O640    1.297   .     A
C556   C560    1.420   .     S
C556   O642    1.297   .     A
C556   O641    1.297   .     A
C557   C588    1.411   .     A
C557   C586    1.412   .     A
C558   C587    1.416   .     A
C558   C373    1.525   1_565 S
C560   C927    1.197   .     S
C561   H591    1.083   .     S
C561   C566    1.393   .     A
C561   C572    1.394   .     A
C562   C567    1.404   .     A
C562   C573    1.396   .     A
C562   H602    1.082   .     S
C563   C573    1.398   .     A
C563   C568    1.390   .     A
C563   H613    1.083   .     S
C564   O636    1.301   .     A
C564   O638    1.310   .     A
C564   C571    1.484   .     S
C565   H617    1.083   .     S
C565   C572    1.399   .     A
C565   C569    1.404   .     A
C566   C570    1.412   .     A
C566   O629    1.380   .     S
C567   C571    1.423   .     A
C567   O630    1.388   .     S
C568   O631    1.379   .     S
C568   C571    1.413   .     A
C569   O632    1.386   .     S
C569   C570    1.419   .     A
C572   C665    1.473   1_455 S
C573   C664    1.473   .     S
C574   H593    1.107   .     S
C574   H592    1.112   .     S
C574   O629    1.416   .     S
C574   H622    1.112   .     S
C575   N623    1.381   .     A
C575   C586    1.410   .     A
C575   O644    1.374   .     S
C576   H594    1.114   .     S
C576   O630    1.412   .     S
C576   H596    1.109   .     S
C576   H595    1.110   .     S
C577   H599    1.105   .     S
C577   H597    1.114   .     S
C577   O631    1.411   .     S
C577   H598    1.113   .     S
C578   H600    1.114   .     S
C578   H601    1.111   .     S
C578   O632    1.412   .     S
C578   H603    1.110   .     S
C579   H606    1.108   .     S
C579   O633    1.403   .     S
C579   H605    1.113   .     S
C580   H608    1.109   .     S
C580   H609    1.114   .     S
C580   O634    1.411   .     S
C580   H423    1.111   1_565 S
C581   O635    1.403   .     S
C581   H611    1.113   .     S
C581   H612    1.108   .     S
C582   H616    1.109   .     S
C582   H615    1.115   .     S
C582   O637    1.414   .     S
C582   H430    1.109   1_565 S
C583   O626    1.369   .     S
C583   N624    1.376   .     A
C583   C587    1.410   .     A
C584   O627    1.375   .     S
C584   C588    1.409   .     A
C584   N623    1.381   .     A
C585   O628    1.372   .     S
C585   N624    1.380   .     A
C586   O633    1.379   .     S
C587   O634    1.383   .     S
C588   O635    1.379   .     S
Cu589  O640    1.948   .     S
Cu589  O642    1.947   .     S
Cu589  O638    1.970   .     S
Cu589  Cu590   2.699   .     S
Cu589  O625    1.975   .     S
Cu589  N624    2.027   .     S
Cu590  O641    1.948   .     S
Cu590  O643    1.947   .     S
Cu590  N623    2.027   .     S
Cu590  O636    1.975   .     S
Cu590  O639    1.970   .     S
H604   C395    1.111   1_565 S
H610   C397    1.111   1_565 S
H618   O644    0.981   .     S
H619   O626    0.983   .     S
H620   O627    0.981   .     S
H621   O628    0.985   .     S
C645   O731    1.300   .     A
C645   C662    1.479   .     S
C645   O717    1.308   .     A
C646   O729    1.385   .     S
C646   C650    1.418   .     A
C646   C677    1.412   .     A
C647   C651    1.420   .     S
C647   O735    1.296   .     A
C647   O732    1.297   .     A
C648   C652    1.420   .     S
C648   O734    1.297   .     A
C648   O733    1.297   .     A
C649   C680    1.411   .     A
C649   C678    1.412   .     A
C650   C679    1.416   .     A
C650   C465    1.525   1_565 S
C652   C1019   1.197   .     S
C653   H683    1.083   .     S
C653   C658    1.393   .     A
C653   C664    1.394   .     A
C654   C659    1.404   .     A
C654   C665    1.396   .     A
C654   H694    1.082   .     S
C655   C665    1.398   .     A
C655   C660    1.390   .     A
C655   H705    1.083   .     S
C656   O728    1.301   .     A
C656   O730    1.310   .     A
C656   C663    1.484   .     S
C657   H709    1.083   .     S
C657   C664    1.399   .     A
C657   C661    1.404   .     A
C658   C662    1.412   .     A
C658   O721    1.380   .     S
C659   C663    1.423   .     A
C659   O722    1.388   .     S
C660   O723    1.379   .     S
C660   C663    1.413   .     A
C661   O724    1.386   .     S
C661   C662    1.419   .     A
C665   C572    1.473   1_655 S
C666   H685    1.107   .     S
C666   H684    1.112   .     S
C666   O721    1.416   .     S
C666   H714    1.112   .     S
C667   N715    1.381   .     A
C667   C678    1.410   .     A
C667   O736    1.374   .     S
C668   H686    1.114   .     S
C668   O722    1.412   .     S
C668   H688    1.109   .     S
C668   H687    1.110   .     S
C669   H691    1.105   .     S
C669   H689    1.114   .     S
C669   O723    1.411   .     S
C669   H690    1.113   .     S
C670   H692    1.114   .     S
C670   H693    1.111   .     S
C670   O724    1.412   .     S
C670   H695    1.110   .     S
C671   H698    1.108   .     S
C671   O725    1.403   .     S
C671   H697    1.113   .     S
C672   H700    1.109   .     S
C672   H701    1.114   .     S
C672   O726    1.411   .     S
C672   H515    1.111   1_565 S
C673   O727    1.403   .     S
C673   H703    1.113   .     S
C673   H704    1.108   .     S
C674   H708    1.109   .     S
C674   H707    1.115   .     S
C674   O729    1.414   .     S
C674   H522    1.109   1_565 S
C675   O718    1.369   .     S
C675   N716    1.376   .     A
C675   C679    1.410   .     A
C676   O719    1.375   .     S
C676   C680    1.409   .     A
C676   N715    1.381   .     A
C677   O720    1.372   .     S
C677   N716    1.380   .     A
C678   O725    1.379   .     S
C679   O726    1.383   .     S
C680   O727    1.379   .     S
Cu681  O732    1.948   .     S
Cu681  O734    1.947   .     S
Cu681  O730    1.970   .     S
Cu681  Cu682   2.699   .     S
Cu681  O717    1.975   .     S
Cu681  N716    2.027   .     S
Cu682  O733    1.948   .     S
Cu682  O735    1.947   .     S
Cu682  N715    2.027   .     S
Cu682  O728    1.975   .     S
Cu682  O731    1.970   .     S
H696   C487    1.111   1_565 S
H702   C489    1.111   1_565 S
H710   O736    0.981   .     S
H711   O718    0.983   .     S
H712   O719    0.981   .     S
H713   O720    0.985   .     S
C737   O823    1.300   .     A
C737   C754    1.479   .     S
C737   O809    1.308   .     A
C738   O821    1.385   .     S
C738   C742    1.418   .     A
C738   C769    1.412   .     A
C739   C743    1.420   .     S
C739   O827    1.296   .     A
C739   O824    1.297   .     A
C740   C744    1.420   .     S
C740   O826    1.297   .     A
C740   O825    1.297   .     A
C741   C772    1.411   .     A
C741   C770    1.412   .     A
C741   C926    1.525   1_545 S
C742   C771    1.416   .     A
C742   C925    1.525   .     S
C744   C7      1.197   1_556 S
C745   H775    1.083   .     S
C745   C750    1.393   .     A
C745   C756    1.394   .     A
C746   C751    1.404   .     A
C746   C757    1.396   .     A
C746   H786    1.082   .     S
C747   C757    1.398   .     A
C747   C752    1.390   .     A
C747   H797    1.083   .     S
C748   O820    1.301   .     A
C748   O822    1.310   .     A
C748   C755    1.484   .     S
C749   H801    1.083   .     S
C749   C756    1.399   .     A
C749   C753    1.404   .     A
C750   C754    1.412   .     A
C750   O813    1.380   .     S
C751   C755    1.423   .     A
C751   O814    1.388   .     S
C752   O815    1.379   .     S
C752   C755    1.413   .     A
C753   O816    1.386   .     S
C753   C754    1.419   .     A
C756   C849    1.473   1_455 S
C757   C848    1.473   .     S
C758   H777    1.107   .     S
C758   H776    1.112   .     S
C758   O813    1.416   .     S
C758   H806    1.112   .     S
C759   N807    1.381   .     A
C759   C770    1.410   .     A
C759   O828    1.374   .     S
C760   H778    1.114   .     S
C760   O814    1.412   .     S
C760   H780    1.109   .     S
C760   H779    1.110   .     S
C761   H783    1.105   .     S
C761   H781    1.114   .     S
C761   O815    1.411   .     S
C761   H782    1.113   .     S
C762   H784    1.114   .     S
C762   H785    1.111   .     S
C762   O816    1.412   .     S
C762   H787    1.110   .     S
C763   H790    1.108   .     S
C763   O817    1.403   .     S
C763   H789    1.113   .     S
C763   H972    1.111   1_545 S
C764   H792    1.109   .     S
C764   H793    1.114   .     S
C764   O818    1.411   .     S
C764   H975    1.111   .     S
C765   O819    1.403   .     S
C765   H795    1.113   .     S
C765   H796    1.108   .     S
C765   H978    1.111   1_545 S
C766   H800    1.109   .     S
C766   H799    1.115   .     S
C766   O821    1.414   .     S
C766   H982    1.109   .     S
C767   O810    1.369   .     S
C767   N808    1.376   .     A
C767   C771    1.410   .     A
C768   O811    1.375   .     S
C768   C772    1.409   .     A
C768   N807    1.381   .     A
C769   O812    1.372   .     S
C769   N808    1.380   .     A
C770   O817    1.379   .     S
C771   O818    1.383   .     S
C772   O819    1.379   .     S
Cu773  O824    1.948   .     S
Cu773  O826    1.947   .     S
Cu773  O822    1.970   .     S
Cu773  Cu774   2.699   .     S
Cu773  O809    1.975   .     S
Cu773  N808    2.027   .     S
Cu774  O825    1.948   .     S
Cu774  O827    1.947   .     S
Cu774  N807    2.027   .     S
Cu774  O820    1.975   .     S
Cu774  O823    1.970   .     S
H788   C947    1.111   .     S
H791   C948    1.111   1_545 S
H794   C949    1.111   .     S
H798   C950    1.109   1_545 S
H802   O828    0.981   .     S
H803   O810    0.983   .     S
H804   O811    0.981   .     S
H805   O812    0.985   .     S
C829   O915    1.300   .     A
C829   C846    1.479   .     S
C829   O901    1.308   .     A
C830   O913    1.385   .     S
C830   C834    1.418   .     A
C830   C861    1.412   .     A
C831   C835    1.420   .     S
C831   O919    1.296   .     A
C831   O916    1.297   .     A
C832   C836    1.420   .     S
C832   O918    1.297   .     A
C832   O917    1.297   .     A
C833   C864    1.411   .     A
C833   C862    1.412   .     A
C833   C1018   1.525   1_545 S
C834   C863    1.416   .     A
C834   C1017   1.525   .     S
C836   C99     1.197   1_556 S
C837   H867    1.083   .     S
C837   C842    1.393   .     A
C837   C848    1.394   .     A
C838   C843    1.404   .     A
C838   C849    1.396   .     A
C838   H878    1.082   .     S
C839   C849    1.398   .     A
C839   C844    1.390   .     A
C839   H889    1.083   .     S
C840   O912    1.301   .     A
C840   O914    1.310   .     A
C840   C847    1.484   .     S
C841   H893    1.083   .     S
C841   C848    1.399   .     A
C841   C845    1.404   .     A
C842   C846    1.412   .     A
C842   O905    1.380   .     S
C843   C847    1.423   .     A
C843   O906    1.388   .     S
C844   O907    1.379   .     S
C844   C847    1.413   .     A
C845   O908    1.386   .     S
C845   C846    1.419   .     A
C849   C756    1.473   1_655 S
C850   H869    1.107   .     S
C850   H868    1.112   .     S
C850   O905    1.416   .     S
C850   H898    1.112   .     S
C851   N899    1.381   .     A
C851   C862    1.410   .     A
C851   O920    1.374   .     S
C852   H870    1.114   .     S
C852   O906    1.412   .     S
C852   H872    1.109   .     S
C852   H871    1.110   .     S
C853   H875    1.105   .     S
C853   H873    1.114   .     S
C853   O907    1.411   .     S
C853   H874    1.113   .     S
C854   H876    1.114   .     S
C854   H877    1.111   .     S
C854   O908    1.412   .     S
C854   H879    1.110   .     S
C855   H882    1.108   .     S
C855   O909    1.403   .     S
C855   H881    1.113   .     S
C855   H1064   1.111   1_545 S
C856   H884    1.109   .     S
C856   H885    1.114   .     S
C856   O910    1.411   .     S
C856   H1067   1.111   .     S
C857   O911    1.403   .     S
C857   H887    1.113   .     S
C857   H888    1.108   .     S
C857   H1070   1.111   1_545 S
C858   H892    1.109   .     S
C858   H891    1.115   .     S
C858   O913    1.414   .     S
C858   H1074   1.109   .     S
C859   O902    1.369   .     S
C859   N900    1.376   .     A
C859   C863    1.410   .     A
C860   O903    1.375   .     S
C860   C864    1.409   .     A
C860   N899    1.381   .     A
C861   O904    1.372   .     S
C861   N900    1.380   .     A
C862   O909    1.379   .     S
C863   O910    1.383   .     S
C864   O911    1.379   .     S
Cu865  O916    1.948   .     S
Cu865  O918    1.947   .     S
Cu865  O914    1.970   .     S
Cu865  Cu866   2.699   .     S
Cu865  O901    1.975   .     S
Cu865  N900    2.027   .     S
Cu866  O917    1.948   .     S
Cu866  O919    1.947   .     S
Cu866  N899    2.027   .     S
Cu866  O912    1.975   .     S
Cu866  O915    1.970   .     S
H880   C1039   1.111   .     S
H883   C1040   1.111   1_545 S
H886   C1041   1.111   .     S
H890   C1042   1.109   1_545 S
H894   O920    0.981   .     S
H895   O902    0.983   .     S
H896   O903    0.981   .     S
H897   O904    0.985   .     S
C921   O1007   1.300   .     A
C921   C938    1.479   .     S
C921   O993    1.308   .     A
C922   O1005   1.385   .     S
C922   C926    1.418   .     A
C922   C953    1.412   .     A
C923   C927    1.420   .     S
C923   O1011   1.296   .     A
C923   O1008   1.297   .     A
C924   C928    1.420   .     S
C924   O1010   1.297   .     A
C924   O1009   1.297   .     A
C925   C956    1.411   .     A
C925   C954    1.412   .     A
C926   C955    1.416   .     A
C926   C741    1.525   1_565 S
C928   C191    1.197   1_556 S
C929   H959    1.083   .     S
C929   C934    1.393   .     A
C929   C940    1.394   .     A
C930   C935    1.404   .     A
C930   C941    1.396   .     A
C930   H970    1.082   .     S
C931   C941    1.398   .     A
C931   C936    1.390   .     A
C931   H981    1.083   .     S
C932   O1004   1.301   .     A
C932   O1006   1.310   .     A
C932   C939    1.484   .     S
C933   H985    1.083   .     S
C933   C940    1.399   .     A
C933   C937    1.404   .     A
C934   C938    1.412   .     A
C934   O997    1.380   .     S
C935   C939    1.423   .     A
C935   O998    1.388   .     S
C936   O999    1.379   .     S
C936   C939    1.413   .     A
C937   O1000   1.386   .     S
C937   C938    1.419   .     A
C940   C1033   1.473   1_455 S
C941   C1032   1.473   .     S
C942   H961    1.107   .     S
C942   H960    1.112   .     S
C942   O997    1.416   .     S
C942   H990    1.112   .     S
C943   N991    1.381   .     A
C943   C954    1.410   .     A
C943   O1012   1.374   .     S
C944   H962    1.114   .     S
C944   O998    1.412   .     S
C944   H964    1.109   .     S
C944   H963    1.110   .     S
C945   H967    1.105   .     S
C945   H965    1.114   .     S
C945   O999    1.411   .     S
C945   H966    1.113   .     S
C946   H968    1.114   .     S
C946   H969    1.111   .     S
C946   O1000   1.412   .     S
C946   H971    1.110   .     S
C947   H974    1.108   .     S
C947   O1001   1.403   .     S
C947   H973    1.113   .     S
C948   H976    1.109   .     S
C948   H977    1.114   .     S
C948   O1002   1.411   .     S
C948   H791    1.111   1_565 S
C949   O1003   1.403   .     S
C949   H979    1.113   .     S
C949   H980    1.108   .     S
C950   H984    1.109   .     S
C950   H983    1.115   .     S
C950   O1005   1.414   .     S
C950   H798    1.109   1_565 S
C951   O994    1.369   .     S
C951   N992    1.376   .     A
C951   C955    1.410   .     A
C952   O995    1.375   .     S
C952   C956    1.409   .     A
C952   N991    1.381   .     A
C953   O996    1.372   .     S
C953   N992    1.380   .     A
C954   O1001   1.379   .     S
C955   O1002   1.383   .     S
C956   O1003   1.379   .     S
Cu957  O1008   1.948   .     S
Cu957  O1010   1.947   .     S
Cu957  O1006   1.970   .     S
Cu957  Cu958   2.699   .     S
Cu957  O993    1.975   .     S
Cu957  N992    2.027   .     S
Cu958  O1009   1.948   .     S
Cu958  O1011   1.947   .     S
Cu958  N991    2.027   .     S
Cu958  O1004   1.975   .     S
Cu958  O1007   1.970   .     S
H972   C763    1.111   1_565 S
H978   C765    1.111   1_565 S
H986   O1012   0.981   .     S
H987   O994    0.983   .     S
H988   O995    0.981   .     S
H989   O996    0.985   .     S
C1013  O1099   1.300   .     A
C1013  C1030   1.479   .     S
C1013  O1085   1.308   .     A
C1014  O1097   1.385   .     S
C1014  C1018   1.418   .     A
C1014  C1045   1.412   .     A
C1015  C1019   1.420   .     S
C1015  O1103   1.296   .     A
C1015  O1100   1.297   .     A
C1016  C1020   1.420   .     S
C1016  O1102   1.297   .     A
C1016  O1101   1.297   .     A
C1017  C1048   1.411   .     A
C1017  C1046   1.412   .     A
C1018  C1047   1.416   .     A
C1018  C833    1.525   1_565 S
C1020  C283    1.197   1_556 S
C1021  H1051   1.083   .     S
C1021  C1026   1.393   .     A
C1021  C1032   1.394   .     A
C1022  C1027   1.404   .     A
C1022  C1033   1.396   .     A
C1022  H1062   1.082   .     S
C1023  C1033   1.398   .     A
C1023  C1028   1.390   .     A
C1023  H1073   1.083   .     S
C1024  O1096   1.301   .     A
C1024  O1098   1.310   .     A
C1024  C1031   1.484   .     S
C1025  H1077   1.083   .     S
C1025  C1032   1.399   .     A
C1025  C1029   1.404   .     A
C1026  C1030   1.412   .     A
C1026  O1089   1.380   .     S
C1027  C1031   1.423   .     A
C1027  O1090   1.388   .     S
C1028  O1091   1.379   .     S
C1028  C1031   1.413   .     A
C1029  O1092   1.386   .     S
C1029  C1030   1.419   .     A
C1033  C940    1.473   1_655 S
C1034  H1053   1.107   .     S
C1034  H1052   1.112   .     S
C1034  O1089   1.416   .     S
C1034  H1082   1.112   .     S
C1035  N1083   1.381   .     A
C1035  C1046   1.410   .     A
C1035  O1104   1.374   .     S
C1036  H1054   1.114   .     S
C1036  O1090   1.412   .     S
C1036  H1056   1.109   .     S
C1036  H1055   1.110   .     S
C1037  H1059   1.105   .     S
C1037  H1057   1.114   .     S
C1037  O1091   1.411   .     S
C1037  H1058   1.113   .     S
C1038  H1060   1.114   .     S
C1038  H1061   1.111   .     S
C1038  O1092   1.412   .     S
C1038  H1063   1.110   .     S
C1039  H1066   1.108   .     S
C1039  O1093   1.403   .     S
C1039  H1065   1.113   .     S
C1040  H1068   1.109   .     S
C1040  H1069   1.114   .     S
C1040  O1094   1.411   .     S
C1040  H883    1.111   1_565 S
C1041  O1095   1.403   .     S
C1041  H1071   1.113   .     S
C1041  H1072   1.108   .     S
C1042  H1076   1.109   .     S
C1042  H1075   1.115   .     S
C1042  O1097   1.414   .     S
C1042  H890    1.109   1_565 S
C1043  O1086   1.369   .     S
C1043  N1084   1.376   .     A
C1043  C1047   1.410   .     A
C1044  O1087   1.375   .     S
C1044  C1048   1.409   .     A
C1044  N1083   1.381   .     A
C1045  O1088   1.372   .     S
C1045  N1084   1.380   .     A
C1046  O1093   1.379   .     S
C1047  O1094   1.383   .     S
C1048  O1095   1.379   .     S
Cu1049 O1100   1.948   .     S
Cu1049 O1102   1.947   .     S
Cu1049 O1098   1.970   .     S
Cu1049 Cu1050  2.699   .     S
Cu1049 O1085   1.975   .     S
Cu1049 N1084   2.027   .     S
Cu1050 O1101   1.948   .     S
Cu1050 O1103   1.947   .     S
Cu1050 N1083   2.027   .     S
Cu1050 O1096   1.975   .     S
Cu1050 O1099   1.970   .     S
H1064  C855    1.111   1_565 S
H1070  C857    1.111   1_565 S
H1078  O1104   0.981   .     S
H1079  O1086   0.983   .     S
H1080  O1087   0.981   .     S
H1081  O1088   0.985   .     S
