data_str_m2_o2_o10_pcu_sym.27
_audit_creation_date              2020-01-03
_audit_creation_method            'Materials Studio'
_symmetry_space_group_name_H-M    'P1'
_symmetry_Int_Tables_number       1
_symmetry_cell_setting            triclinic
loop_
_symmetry_equiv_pos_as_xyz
  x,y,z
_cell_length_a                    26.1573
_cell_length_b                    30.2433
_cell_length_c                    27.7160
_cell_angle_alpha                 89.9309
_cell_angle_beta                  97.8598
_cell_angle_gamma                 90.4348
loop_
_atom_site_label
_atom_site_type_symbol
_atom_site_fract_x
_atom_site_fract_y
_atom_site_fract_z
_atom_site_U_iso_or_equiv
_atom_site_adp_type
_atom_site_occupancy
C1     C     0.16717   0.16517   0.25013   0.00000  Uiso   1.00
C2     C     0.18881   0.28514   0.44888   0.00000  Uiso   1.00
C3     C     0.16647   0.25025   0.02733   0.00000  Uiso   1.00
C4     C     0.16651   0.25016   0.47268   0.00000  Uiso   1.00
C5     C     0.06789   0.25004   0.23756   0.00000  Uiso   1.00
C6     C     0.26544   0.25014   0.26243   0.00000  Uiso   1.00
C7     C     0.01264   0.25015   0.23064   0.00000  Uiso   1.00
C8     C     0.32069   0.25047   0.26929   0.00000  Uiso   1.00
C9     C     0.20736   0.04768   0.27659   0.00000  Uiso   1.00
C10    C     0.14710   0.45338   0.20615   0.00000  Uiso   1.00
C11    C     0.20820   0.09382   0.27777   0.00000  Uiso   1.00
C12    C     0.16502   0.33511   0.24966   0.00000  Uiso   1.00
C13    C     0.14460   0.40726   0.20563   0.00000  Uiso   1.00
C14    C     0.16773   0.11724   0.25046   0.00000  Uiso   1.00
C15    C     0.16242   0.38358   0.24884   0.00000  Uiso   1.00
C16    C     0.12703   0.09462   0.22294   0.00000  Uiso   1.00
C17    C     0.17952   0.40680   0.29187   0.00000  Uiso   1.00
C18    C     0.12580   0.04875   0.22293   0.00000  Uiso   1.00
C19    C     0.18036   0.45268   0.29216   0.00000  Uiso   1.00
C20    C     0.16602   0.02491   0.24956   0.00000  Uiso   1.00
C21    C     0.16474   0.47630   0.24924   0.00000  Uiso   1.00
C22    C     0.25234   0.11681   0.30633   0.00000  Uiso   1.00
C23    C     0.20566   0.27184   0.05896   0.00000  Uiso   1.00
C24    C     0.29886   0.12242   0.28701   0.00000  Uiso   1.00
C25    C     0.00698   0.14486   0.31378   0.00000  Uiso   1.00
C26    C     0.00209   0.16187   0.35981   0.00000  Uiso   1.00
C27    C     0.28925   0.15622   0.37927   0.00000  Uiso   1.00
C28    C     0.24787   0.13354   0.35277   0.00000  Uiso   1.00
C29    C     0.12148   0.38512   0.16002   0.00000  Uiso   1.00
C30    C     0.14539   0.38845   0.11776   0.00000  Uiso   1.00
C31    C     0.12453   0.36619   0.07529   0.00000  Uiso   1.00
C32    C     0.07962   0.34072   0.07468   0.00000  Uiso   1.00
C33    C     0.05529   0.33766   0.11644   0.00000  Uiso   1.00
C34    C     0.14438   0.21503   0.44330   0.00000  Uiso   1.00
C35    C     0.07596   0.35990   0.15895   0.00000  Uiso   1.00
C36    C     0.20483   0.27157   0.10960   0.00000  Uiso   1.00
C37    C     0.14465   0.21571   0.39257   0.00000  Uiso   1.00
C38    C     0.12828   0.22874   0.09978   0.00000  Uiso   1.00
C39    C     0.18882   0.28425   0.39813   0.00000  Uiso   1.00
C40    C     0.12728   0.22869   0.04890   0.00000  Uiso   1.00
Cu41   Cu    0.16667   0.25000   0.29822   0.00000  Uiso   1.00
Cu42   Cu    0.16667   0.25001   0.20179   0.00000  Uiso   1.00
H43    H     0.32603   0.24989   0.19355   0.00000  Uiso   1.00
H44    H     0.12749   0.18672   0.45922   0.00000  Uiso   1.00
H45    H     0.23503   0.28865   0.13312   0.00000  Uiso   1.00
H46    H     0.12732   0.18850   0.37078   0.00000  Uiso   1.00
H47    H     0.09799   0.21182   0.11556   0.00000  Uiso   1.00
H48    H     0.20655   0.31128   0.38080   0.00000  Uiso   1.00
H49    H     0.09547   0.21228   0.02676   0.00000  Uiso   1.00
H50    H     0.20567   0.31350   0.46904   0.00000  Uiso   1.00
H51    H     0.30283   0.10969   0.25121   0.00000  Uiso   1.00
H52    H     0.04274   0.14937   0.29872   0.00000  Uiso   1.00
H53    H     0.03396   0.17954   0.38037   0.00000  Uiso   1.00
H54    H     0.00732   0.25080   0.30637   0.00000  Uiso   1.00
H55    H     0.28549   0.16947   0.41487   0.00000  Uiso   1.00
H56    H     0.21224   0.12936   0.36816   0.00000  Uiso   1.00
H57    H     0.18054   0.40764   0.11797   0.00000  Uiso   1.00
H58    H     0.14341   0.36838   0.04296   0.00000  Uiso   1.00
H59    H     0.06376   0.32328   0.04187   0.00000  Uiso   1.00
H60    H     0.02056   0.31787   0.11595   0.00000  Uiso   1.00
H61    H     0.05697   0.35703   0.19120   0.00000  Uiso   1.00
H62    H     0.23914   0.02964   0.29651   0.00000  Uiso   1.00
H63    H     0.13482   0.47141   0.17280   0.00000  Uiso   1.00
H64    H     0.09567   0.11257   0.20220   0.00000  Uiso   1.00
H65    H     0.19291   0.38945   0.32539   0.00000  Uiso   1.00
H66    H     0.09305   0.03196   0.20256   0.00000  Uiso   1.00
H67    H     0.19307   0.46969   0.32609   0.00000  Uiso   1.00
H68    H     0.23734   0.28846   0.04499   0.00000  Uiso   1.00
N69    N     0.16667   0.25001   0.12935   0.00000  Uiso   1.00
N70    N     0.16667   0.24999   0.37066   0.00000  Uiso   1.00
O71    O     0.16667   0.18573   0.29072   0.00000  Uiso   1.00
O72    O     0.16666   0.31427   0.20929   0.00000  Uiso   1.00
O73    O     0.16667   0.18573   0.20928   0.00000  Uiso   1.00
O74    O     0.16666   0.31427   0.29072   0.00000  Uiso   1.00
O75    O     0.09161   0.24999   0.28132   0.00000  Uiso   1.00
O76    O     0.24172   0.25001   0.21868   0.00000  Uiso   1.00
O77    O     0.09161   0.25000   0.19989   0.00000  Uiso   1.00
O78    O     0.24172   0.25000   0.30012   0.00000  Uiso   1.00
C79    C     0.50050   0.16517   0.25013   0.00000  Uiso   1.00
C80    C     0.52215   0.28514   0.44888   0.00000  Uiso   1.00
C81    C     0.49980   0.25025   0.02733   0.00000  Uiso   1.00
C82    C     0.49984   0.25016   0.47268   0.00000  Uiso   1.00
C83    C     0.40123   0.25004   0.23756   0.00000  Uiso   1.00
C84    C     0.59877   0.25014   0.26243   0.00000  Uiso   1.00
C85    C     0.34597   0.25015   0.23064   0.00000  Uiso   1.00
C86    C     0.65403   0.25047   0.26929   0.00000  Uiso   1.00
C87    C     0.54069   0.04768   0.27659   0.00000  Uiso   1.00
C88    C     0.48044   0.45338   0.20615   0.00000  Uiso   1.00
C89    C     0.54153   0.09382   0.27777   0.00000  Uiso   1.00
C90    C     0.49836   0.33511   0.24966   0.00000  Uiso   1.00
C91    C     0.47793   0.40726   0.20563   0.00000  Uiso   1.00
C92    C     0.50107   0.11724   0.25046   0.00000  Uiso   1.00
C93    C     0.49575   0.38358   0.24884   0.00000  Uiso   1.00
C94    C     0.46036   0.09462   0.22294   0.00000  Uiso   1.00
C95    C     0.51286   0.40680   0.29187   0.00000  Uiso   1.00
C96    C     0.45913   0.04875   0.22293   0.00000  Uiso   1.00
C97    C     0.51369   0.45268   0.29216   0.00000  Uiso   1.00
C98    C     0.49935   0.02491   0.24956   0.00000  Uiso   1.00
C99    C     0.49807   0.47630   0.24924   0.00000  Uiso   1.00
C100   C     0.58568   0.11681   0.30633   0.00000  Uiso   1.00
C101   C     0.53899   0.27184   0.05896   0.00000  Uiso   1.00
C102   C     0.63219   0.12242   0.28701   0.00000  Uiso   1.00
C103   C     0.34031   0.14486   0.31378   0.00000  Uiso   1.00
C104   C     0.33542   0.16187   0.35981   0.00000  Uiso   1.00
C105   C     0.62258   0.15622   0.37927   0.00000  Uiso   1.00
C106   C     0.58120   0.13354   0.35277   0.00000  Uiso   1.00
C107   C     0.45482   0.38512   0.16002   0.00000  Uiso   1.00
C108   C     0.47872   0.38845   0.11776   0.00000  Uiso   1.00
C109   C     0.45787   0.36619   0.07529   0.00000  Uiso   1.00
C110   C     0.41296   0.34072   0.07468   0.00000  Uiso   1.00
C111   C     0.38863   0.33766   0.11644   0.00000  Uiso   1.00
C112   C     0.47771   0.21503   0.44330   0.00000  Uiso   1.00
C113   C     0.40929   0.35990   0.15895   0.00000  Uiso   1.00
C114   C     0.53817   0.27157   0.10960   0.00000  Uiso   1.00
C115   C     0.47799   0.21571   0.39257   0.00000  Uiso   1.00
C116   C     0.46162   0.22874   0.09978   0.00000  Uiso   1.00
C117   C     0.52215   0.28425   0.39813   0.00000  Uiso   1.00
C118   C     0.46062   0.22869   0.04890   0.00000  Uiso   1.00
Cu119  Cu    0.50000   0.25000   0.29822   0.00000  Uiso   1.00
Cu120  Cu    0.50000   0.25001   0.20179   0.00000  Uiso   1.00
H121   H     0.65936   0.24989   0.19355   0.00000  Uiso   1.00
H122   H     0.46082   0.18672   0.45922   0.00000  Uiso   1.00
H123   H     0.56836   0.28865   0.13312   0.00000  Uiso   1.00
H124   H     0.46066   0.18850   0.37078   0.00000  Uiso   1.00
H125   H     0.43133   0.21182   0.11556   0.00000  Uiso   1.00
H126   H     0.53989   0.31128   0.38080   0.00000  Uiso   1.00
H127   H     0.42881   0.21228   0.02676   0.00000  Uiso   1.00
H128   H     0.53900   0.31350   0.46904   0.00000  Uiso   1.00
H129   H     0.63617   0.10969   0.25121   0.00000  Uiso   1.00
H130   H     0.37607   0.14937   0.29872   0.00000  Uiso   1.00
H131   H     0.36730   0.17954   0.38037   0.00000  Uiso   1.00
H132   H     0.34065   0.25080   0.30637   0.00000  Uiso   1.00
H133   H     0.61882   0.16947   0.41487   0.00000  Uiso   1.00
H134   H     0.54557   0.12936   0.36816   0.00000  Uiso   1.00
H135   H     0.51388   0.40764   0.11797   0.00000  Uiso   1.00
H136   H     0.47674   0.36838   0.04296   0.00000  Uiso   1.00
H137   H     0.39710   0.32328   0.04187   0.00000  Uiso   1.00
H138   H     0.35389   0.31787   0.11595   0.00000  Uiso   1.00
H139   H     0.39031   0.35703   0.19120   0.00000  Uiso   1.00
H140   H     0.57247   0.02964   0.29651   0.00000  Uiso   1.00
H141   H     0.46816   0.47141   0.17280   0.00000  Uiso   1.00
H142   H     0.42900   0.11257   0.20220   0.00000  Uiso   1.00
H143   H     0.52625   0.38945   0.32539   0.00000  Uiso   1.00
H144   H     0.42638   0.03196   0.20256   0.00000  Uiso   1.00
H145   H     0.52641   0.46969   0.32609   0.00000  Uiso   1.00
H146   H     0.57067   0.28846   0.04499   0.00000  Uiso   1.00
N147   N     0.50000   0.25001   0.12935   0.00000  Uiso   1.00
N148   N     0.50000   0.24999   0.37066   0.00000  Uiso   1.00
O149   O     0.50000   0.18573   0.29072   0.00000  Uiso   1.00
O150   O     0.50000   0.31427   0.20929   0.00000  Uiso   1.00
O151   O     0.50000   0.18573   0.20928   0.00000  Uiso   1.00
O152   O     0.50000   0.31427   0.29072   0.00000  Uiso   1.00
O153   O     0.42495   0.24999   0.28132   0.00000  Uiso   1.00
O154   O     0.57505   0.25001   0.21868   0.00000  Uiso   1.00
O155   O     0.42495   0.25000   0.19989   0.00000  Uiso   1.00
O156   O     0.57505   0.25000   0.30012   0.00000  Uiso   1.00
C157   C     0.83383   0.16517   0.25013   0.00000  Uiso   1.00
C158   C     0.85548   0.28514   0.44888   0.00000  Uiso   1.00
C159   C     0.83314   0.25025   0.02733   0.00000  Uiso   1.00
C160   C     0.83317   0.25016   0.47268   0.00000  Uiso   1.00
C161   C     0.73456   0.25004   0.23756   0.00000  Uiso   1.00
C162   C     0.93211   0.25014   0.26243   0.00000  Uiso   1.00
C163   C     0.67930   0.25015   0.23064   0.00000  Uiso   1.00
C164   C     0.98736   0.25047   0.26929   0.00000  Uiso   1.00
C165   C     0.87402   0.04768   0.27659   0.00000  Uiso   1.00
C166   C     0.81377   0.45338   0.20615   0.00000  Uiso   1.00
C167   C     0.87487   0.09382   0.27777   0.00000  Uiso   1.00
C168   C     0.83169   0.33511   0.24966   0.00000  Uiso   1.00
C169   C     0.81126   0.40726   0.20563   0.00000  Uiso   1.00
C170   C     0.83440   0.11724   0.25046   0.00000  Uiso   1.00
C171   C     0.82909   0.38358   0.24884   0.00000  Uiso   1.00
C172   C     0.79369   0.09462   0.22294   0.00000  Uiso   1.00
C173   C     0.84619   0.40680   0.29187   0.00000  Uiso   1.00
C174   C     0.79247   0.04875   0.22293   0.00000  Uiso   1.00
C175   C     0.84703   0.45268   0.29216   0.00000  Uiso   1.00
C176   C     0.83269   0.02491   0.24956   0.00000  Uiso   1.00
C177   C     0.83141   0.47630   0.24924   0.00000  Uiso   1.00
C178   C     0.91901   0.11681   0.30633   0.00000  Uiso   1.00
C179   C     0.87233   0.27184   0.05896   0.00000  Uiso   1.00
C180   C     0.96552   0.12242   0.28701   0.00000  Uiso   1.00
C181   C     0.67365   0.14486   0.31378   0.00000  Uiso   1.00
C182   C     0.66875   0.16187   0.35981   0.00000  Uiso   1.00
C183   C     0.95591   0.15622   0.37927   0.00000  Uiso   1.00
C184   C     0.91454   0.13354   0.35277   0.00000  Uiso   1.00
C185   C     0.78815   0.38512   0.16002   0.00000  Uiso   1.00
C186   C     0.81205   0.38845   0.11776   0.00000  Uiso   1.00
C187   C     0.79120   0.36619   0.07529   0.00000  Uiso   1.00
C188   C     0.74629   0.34072   0.07468   0.00000  Uiso   1.00
C189   C     0.72196   0.33766   0.11644   0.00000  Uiso   1.00
C190   C     0.81105   0.21503   0.44330   0.00000  Uiso   1.00
C191   C     0.74263   0.35990   0.15895   0.00000  Uiso   1.00
C192   C     0.87150   0.27157   0.10960   0.00000  Uiso   1.00
C193   C     0.81132   0.21571   0.39257   0.00000  Uiso   1.00
C194   C     0.79495   0.22874   0.09978   0.00000  Uiso   1.00
C195   C     0.85548   0.28425   0.39813   0.00000  Uiso   1.00
C196   C     0.79395   0.22869   0.04890   0.00000  Uiso   1.00
Cu197  Cu    0.83333   0.25000   0.29822   0.00000  Uiso   1.00
Cu198  Cu    0.83333   0.25001   0.20179   0.00000  Uiso   1.00
H199   H     0.99269   0.24989   0.19355   0.00000  Uiso   1.00
H200   H     0.79416   0.18672   0.45922   0.00000  Uiso   1.00
H201   H     0.90170   0.28865   0.13312   0.00000  Uiso   1.00
H202   H     0.79399   0.18850   0.37078   0.00000  Uiso   1.00
H203   H     0.76466   0.21182   0.11556   0.00000  Uiso   1.00
H204   H     0.87322   0.31128   0.38080   0.00000  Uiso   1.00
H205   H     0.76214   0.21228   0.02676   0.00000  Uiso   1.00
H206   H     0.87233   0.31350   0.46904   0.00000  Uiso   1.00
H207   H     0.96950   0.10969   0.25121   0.00000  Uiso   1.00
H208   H     0.70941   0.14937   0.29872   0.00000  Uiso   1.00
H209   H     0.70063   0.17954   0.38037   0.00000  Uiso   1.00
H210   H     0.67399   0.25080   0.30637   0.00000  Uiso   1.00
H211   H     0.95215   0.16947   0.41487   0.00000  Uiso   1.00
H212   H     0.87890   0.12936   0.36816   0.00000  Uiso   1.00
H213   H     0.84721   0.40764   0.11797   0.00000  Uiso   1.00
H214   H     0.81008   0.36838   0.04296   0.00000  Uiso   1.00
H215   H     0.73043   0.32328   0.04187   0.00000  Uiso   1.00
H216   H     0.68723   0.31787   0.11595   0.00000  Uiso   1.00
H217   H     0.72364   0.35703   0.19120   0.00000  Uiso   1.00
H218   H     0.90581   0.02964   0.29651   0.00000  Uiso   1.00
H219   H     0.80149   0.47141   0.17280   0.00000  Uiso   1.00
H220   H     0.76233   0.11257   0.20220   0.00000  Uiso   1.00
H221   H     0.85958   0.38945   0.32539   0.00000  Uiso   1.00
H222   H     0.75971   0.03196   0.20256   0.00000  Uiso   1.00
H223   H     0.85974   0.46969   0.32609   0.00000  Uiso   1.00
H224   H     0.90401   0.28846   0.04499   0.00000  Uiso   1.00
N225   N     0.83333   0.25001   0.12935   0.00000  Uiso   1.00
N226   N     0.83333   0.24999   0.37066   0.00000  Uiso   1.00
O227   O     0.83334   0.18573   0.29072   0.00000  Uiso   1.00
O228   O     0.83333   0.31427   0.20929   0.00000  Uiso   1.00
O229   O     0.83334   0.18573   0.20928   0.00000  Uiso   1.00
O230   O     0.83333   0.31427   0.29072   0.00000  Uiso   1.00
O231   O     0.75828   0.24999   0.28132   0.00000  Uiso   1.00
O232   O     0.90839   0.25001   0.21868   0.00000  Uiso   1.00
O233   O     0.75828   0.25000   0.19989   0.00000  Uiso   1.00
O234   O     0.90839   0.25000   0.30012   0.00000  Uiso   1.00
C235   C     0.16717   0.66517   0.25013   0.00000  Uiso   1.00
C236   C     0.18881   0.78514   0.44888   0.00000  Uiso   1.00
C237   C     0.16647   0.75025   0.02733   0.00000  Uiso   1.00
C238   C     0.16651   0.75016   0.47268   0.00000  Uiso   1.00
C239   C     0.06789   0.75004   0.23756   0.00000  Uiso   1.00
C240   C     0.26544   0.75014   0.26243   0.00000  Uiso   1.00
C241   C     0.01264   0.75015   0.23064   0.00000  Uiso   1.00
C242   C     0.32069   0.75047   0.26929   0.00000  Uiso   1.00
C243   C     0.20736   0.54768   0.27659   0.00000  Uiso   1.00
C244   C     0.14710   0.95338   0.20615   0.00000  Uiso   1.00
C245   C     0.20820   0.59382   0.27777   0.00000  Uiso   1.00
C246   C     0.16502   0.83511   0.24966   0.00000  Uiso   1.00
C247   C     0.14460   0.90726   0.20563   0.00000  Uiso   1.00
C248   C     0.16773   0.61724   0.25046   0.00000  Uiso   1.00
C249   C     0.16242   0.88358   0.24884   0.00000  Uiso   1.00
C250   C     0.12703   0.59462   0.22294   0.00000  Uiso   1.00
C251   C     0.17952   0.90680   0.29187   0.00000  Uiso   1.00
C252   C     0.12580   0.54875   0.22293   0.00000  Uiso   1.00
C253   C     0.18036   0.95268   0.29216   0.00000  Uiso   1.00
C254   C     0.16602   0.52491   0.24956   0.00000  Uiso   1.00
C255   C     0.16474   0.97630   0.24924   0.00000  Uiso   1.00
C256   C     0.25234   0.61681   0.30633   0.00000  Uiso   1.00
C257   C     0.20566   0.77184   0.05896   0.00000  Uiso   1.00
C258   C     0.29886   0.62242   0.28701   0.00000  Uiso   1.00
C259   C     0.00698   0.64486   0.31378   0.00000  Uiso   1.00
C260   C     0.00209   0.66187   0.35981   0.00000  Uiso   1.00
C261   C     0.28925   0.65622   0.37927   0.00000  Uiso   1.00
C262   C     0.24787   0.63354   0.35277   0.00000  Uiso   1.00
C263   C     0.12148   0.88512   0.16002   0.00000  Uiso   1.00
C264   C     0.14539   0.88845   0.11776   0.00000  Uiso   1.00
C265   C     0.12453   0.86619   0.07529   0.00000  Uiso   1.00
C266   C     0.07962   0.84072   0.07468   0.00000  Uiso   1.00
C267   C     0.05529   0.83766   0.11644   0.00000  Uiso   1.00
C268   C     0.14438   0.71503   0.44330   0.00000  Uiso   1.00
C269   C     0.07596   0.85990   0.15895   0.00000  Uiso   1.00
C270   C     0.20483   0.77157   0.10960   0.00000  Uiso   1.00
C271   C     0.14465   0.71571   0.39257   0.00000  Uiso   1.00
C272   C     0.12828   0.72874   0.09978   0.00000  Uiso   1.00
C273   C     0.18882   0.78425   0.39813   0.00000  Uiso   1.00
C274   C     0.12728   0.72869   0.04890   0.00000  Uiso   1.00
Cu275  Cu    0.16667   0.75000   0.29822   0.00000  Uiso   1.00
Cu276  Cu    0.16667   0.75001   0.20179   0.00000  Uiso   1.00
H277   H     0.32603   0.74989   0.19355   0.00000  Uiso   1.00
H278   H     0.12749   0.68672   0.45922   0.00000  Uiso   1.00
H279   H     0.23503   0.78865   0.13312   0.00000  Uiso   1.00
H280   H     0.12732   0.68850   0.37078   0.00000  Uiso   1.00
H281   H     0.09799   0.71182   0.11556   0.00000  Uiso   1.00
H282   H     0.20655   0.81128   0.38080   0.00000  Uiso   1.00
H283   H     0.09547   0.71228   0.02676   0.00000  Uiso   1.00
H284   H     0.20567   0.81350   0.46904   0.00000  Uiso   1.00
H285   H     0.30283   0.60969   0.25121   0.00000  Uiso   1.00
H286   H     0.04274   0.64937   0.29872   0.00000  Uiso   1.00
H287   H     0.03396   0.67954   0.38037   0.00000  Uiso   1.00
H288   H     0.00732   0.75080   0.30637   0.00000  Uiso   1.00
H289   H     0.28549   0.66947   0.41487   0.00000  Uiso   1.00
H290   H     0.21224   0.62936   0.36816   0.00000  Uiso   1.00
H291   H     0.18054   0.90764   0.11797   0.00000  Uiso   1.00
H292   H     0.14341   0.86838   0.04296   0.00000  Uiso   1.00
H293   H     0.06376   0.82328   0.04187   0.00000  Uiso   1.00
H294   H     0.02056   0.81787   0.11595   0.00000  Uiso   1.00
H295   H     0.05697   0.85703   0.19120   0.00000  Uiso   1.00
H296   H     0.23914   0.52964   0.29651   0.00000  Uiso   1.00
H297   H     0.13482   0.97141   0.17280   0.00000  Uiso   1.00
H298   H     0.09567   0.61257   0.20220   0.00000  Uiso   1.00
H299   H     0.19291   0.88945   0.32539   0.00000  Uiso   1.00
H300   H     0.09305   0.53196   0.20256   0.00000  Uiso   1.00
H301   H     0.19307   0.96969   0.32609   0.00000  Uiso   1.00
H302   H     0.23734   0.78846   0.04499   0.00000  Uiso   1.00
N303   N     0.16667   0.75001   0.12935   0.00000  Uiso   1.00
N304   N     0.16667   0.74999   0.37066   0.00000  Uiso   1.00
O305   O     0.16667   0.68573   0.29072   0.00000  Uiso   1.00
O306   O     0.16666   0.81427   0.20929   0.00000  Uiso   1.00
O307   O     0.16667   0.68573   0.20928   0.00000  Uiso   1.00
O308   O     0.16666   0.81427   0.29072   0.00000  Uiso   1.00
O309   O     0.09161   0.74999   0.28132   0.00000  Uiso   1.00
O310   O     0.24172   0.75001   0.21868   0.00000  Uiso   1.00
O311   O     0.09161   0.75000   0.19989   0.00000  Uiso   1.00
O312   O     0.24172   0.75000   0.30012   0.00000  Uiso   1.00
C313   C     0.50050   0.66517   0.25013   0.00000  Uiso   1.00
C314   C     0.52215   0.78514   0.44888   0.00000  Uiso   1.00
C315   C     0.49980   0.75025   0.02733   0.00000  Uiso   1.00
C316   C     0.49984   0.75016   0.47268   0.00000  Uiso   1.00
C317   C     0.40123   0.75004   0.23756   0.00000  Uiso   1.00
C318   C     0.59877   0.75014   0.26243   0.00000  Uiso   1.00
C319   C     0.34597   0.75015   0.23064   0.00000  Uiso   1.00
C320   C     0.65403   0.75047   0.26929   0.00000  Uiso   1.00
C321   C     0.54069   0.54768   0.27659   0.00000  Uiso   1.00
C322   C     0.48044   0.95338   0.20615   0.00000  Uiso   1.00
C323   C     0.54153   0.59382   0.27777   0.00000  Uiso   1.00
C324   C     0.49836   0.83511   0.24966   0.00000  Uiso   1.00
C325   C     0.47793   0.90726   0.20563   0.00000  Uiso   1.00
C326   C     0.50107   0.61724   0.25046   0.00000  Uiso   1.00
C327   C     0.49575   0.88358   0.24884   0.00000  Uiso   1.00
C328   C     0.46036   0.59462   0.22294   0.00000  Uiso   1.00
C329   C     0.51286   0.90680   0.29187   0.00000  Uiso   1.00
C330   C     0.45913   0.54875   0.22293   0.00000  Uiso   1.00
C331   C     0.51369   0.95268   0.29216   0.00000  Uiso   1.00
C332   C     0.49935   0.52491   0.24956   0.00000  Uiso   1.00
C333   C     0.49807   0.97630   0.24924   0.00000  Uiso   1.00
C334   C     0.58568   0.61681   0.30633   0.00000  Uiso   1.00
C335   C     0.53899   0.77184   0.05896   0.00000  Uiso   1.00
C336   C     0.63219   0.62242   0.28701   0.00000  Uiso   1.00
C337   C     0.34031   0.64486   0.31378   0.00000  Uiso   1.00
C338   C     0.33542   0.66187   0.35981   0.00000  Uiso   1.00
C339   C     0.62258   0.65622   0.37927   0.00000  Uiso   1.00
C340   C     0.58120   0.63354   0.35277   0.00000  Uiso   1.00
C341   C     0.45482   0.88512   0.16002   0.00000  Uiso   1.00
C342   C     0.47872   0.88845   0.11776   0.00000  Uiso   1.00
C343   C     0.45787   0.86619   0.07529   0.00000  Uiso   1.00
C344   C     0.41296   0.84072   0.07468   0.00000  Uiso   1.00
C345   C     0.38863   0.83766   0.11644   0.00000  Uiso   1.00
C346   C     0.47771   0.71503   0.44330   0.00000  Uiso   1.00
C347   C     0.40929   0.85990   0.15895   0.00000  Uiso   1.00
C348   C     0.53817   0.77157   0.10960   0.00000  Uiso   1.00
C349   C     0.47799   0.71571   0.39257   0.00000  Uiso   1.00
C350   C     0.46162   0.72874   0.09978   0.00000  Uiso   1.00
C351   C     0.52215   0.78425   0.39813   0.00000  Uiso   1.00
C352   C     0.46062   0.72869   0.04890   0.00000  Uiso   1.00
Cu353  Cu    0.50000   0.75000   0.29822   0.00000  Uiso   1.00
Cu354  Cu    0.50000   0.75001   0.20179   0.00000  Uiso   1.00
H355   H     0.65936   0.74989   0.19355   0.00000  Uiso   1.00
H356   H     0.46082   0.68672   0.45922   0.00000  Uiso   1.00
H357   H     0.56836   0.78865   0.13312   0.00000  Uiso   1.00
H358   H     0.46066   0.68850   0.37078   0.00000  Uiso   1.00
H359   H     0.43133   0.71182   0.11556   0.00000  Uiso   1.00
H360   H     0.53989   0.81128   0.38080   0.00000  Uiso   1.00
H361   H     0.42881   0.71228   0.02676   0.00000  Uiso   1.00
H362   H     0.53900   0.81350   0.46904   0.00000  Uiso   1.00
H363   H     0.63617   0.60969   0.25121   0.00000  Uiso   1.00
H364   H     0.37607   0.64937   0.29872   0.00000  Uiso   1.00
H365   H     0.36730   0.67954   0.38037   0.00000  Uiso   1.00
H366   H     0.34065   0.75080   0.30637   0.00000  Uiso   1.00
H367   H     0.61882   0.66947   0.41487   0.00000  Uiso   1.00
H368   H     0.54557   0.62936   0.36816   0.00000  Uiso   1.00
H369   H     0.51388   0.90764   0.11797   0.00000  Uiso   1.00
H370   H     0.47674   0.86838   0.04296   0.00000  Uiso   1.00
H371   H     0.39710   0.82328   0.04187   0.00000  Uiso   1.00
H372   H     0.35389   0.81787   0.11595   0.00000  Uiso   1.00
H373   H     0.39031   0.85703   0.19120   0.00000  Uiso   1.00
H374   H     0.57247   0.52964   0.29651   0.00000  Uiso   1.00
H375   H     0.46816   0.97141   0.17280   0.00000  Uiso   1.00
H376   H     0.42900   0.61257   0.20220   0.00000  Uiso   1.00
H377   H     0.52625   0.88945   0.32539   0.00000  Uiso   1.00
H378   H     0.42638   0.53196   0.20256   0.00000  Uiso   1.00
H379   H     0.52641   0.96969   0.32609   0.00000  Uiso   1.00
H380   H     0.57067   0.78846   0.04499   0.00000  Uiso   1.00
N381   N     0.50000   0.75001   0.12935   0.00000  Uiso   1.00
N382   N     0.50000   0.74999   0.37066   0.00000  Uiso   1.00
O383   O     0.50000   0.68573   0.29072   0.00000  Uiso   1.00
O384   O     0.50000   0.81427   0.20929   0.00000  Uiso   1.00
O385   O     0.50000   0.68573   0.20928   0.00000  Uiso   1.00
O386   O     0.50000   0.81427   0.29072   0.00000  Uiso   1.00
O387   O     0.42495   0.74999   0.28132   0.00000  Uiso   1.00
O388   O     0.57505   0.75001   0.21868   0.00000  Uiso   1.00
O389   O     0.42495   0.75000   0.19989   0.00000  Uiso   1.00
O390   O     0.57505   0.75000   0.30012   0.00000  Uiso   1.00
C391   C     0.83383   0.66517   0.25013   0.00000  Uiso   1.00
C392   C     0.85548   0.78514   0.44888   0.00000  Uiso   1.00
C393   C     0.83314   0.75025   0.02733   0.00000  Uiso   1.00
C394   C     0.83317   0.75016   0.47268   0.00000  Uiso   1.00
C395   C     0.73456   0.75004   0.23756   0.00000  Uiso   1.00
C396   C     0.93211   0.75014   0.26243   0.00000  Uiso   1.00
C397   C     0.67930   0.75015   0.23064   0.00000  Uiso   1.00
C398   C     0.98736   0.75047   0.26929   0.00000  Uiso   1.00
C399   C     0.87402   0.54768   0.27659   0.00000  Uiso   1.00
C400   C     0.81377   0.95338   0.20615   0.00000  Uiso   1.00
C401   C     0.87487   0.59382   0.27777   0.00000  Uiso   1.00
C402   C     0.83169   0.83511   0.24966   0.00000  Uiso   1.00
C403   C     0.81126   0.90726   0.20563   0.00000  Uiso   1.00
C404   C     0.83440   0.61724   0.25046   0.00000  Uiso   1.00
C405   C     0.82909   0.88358   0.24884   0.00000  Uiso   1.00
C406   C     0.79369   0.59462   0.22294   0.00000  Uiso   1.00
C407   C     0.84619   0.90680   0.29187   0.00000  Uiso   1.00
C408   C     0.79247   0.54875   0.22293   0.00000  Uiso   1.00
C409   C     0.84703   0.95268   0.29216   0.00000  Uiso   1.00
C410   C     0.83269   0.52491   0.24956   0.00000  Uiso   1.00
C411   C     0.83141   0.97630   0.24924   0.00000  Uiso   1.00
C412   C     0.91901   0.61681   0.30633   0.00000  Uiso   1.00
C413   C     0.87233   0.77184   0.05896   0.00000  Uiso   1.00
C414   C     0.96552   0.62242   0.28701   0.00000  Uiso   1.00
C415   C     0.67365   0.64486   0.31378   0.00000  Uiso   1.00
C416   C     0.66875   0.66187   0.35981   0.00000  Uiso   1.00
C417   C     0.95591   0.65622   0.37927   0.00000  Uiso   1.00
C418   C     0.91454   0.63354   0.35277   0.00000  Uiso   1.00
C419   C     0.78815   0.88512   0.16002   0.00000  Uiso   1.00
C420   C     0.81205   0.88845   0.11776   0.00000  Uiso   1.00
C421   C     0.79120   0.86619   0.07529   0.00000  Uiso   1.00
C422   C     0.74629   0.84072   0.07468   0.00000  Uiso   1.00
C423   C     0.72196   0.83766   0.11644   0.00000  Uiso   1.00
C424   C     0.81105   0.71503   0.44330   0.00000  Uiso   1.00
C425   C     0.74263   0.85990   0.15895   0.00000  Uiso   1.00
C426   C     0.87150   0.77157   0.10960   0.00000  Uiso   1.00
C427   C     0.81132   0.71571   0.39257   0.00000  Uiso   1.00
C428   C     0.79495   0.72874   0.09978   0.00000  Uiso   1.00
C429   C     0.85548   0.78425   0.39813   0.00000  Uiso   1.00
C430   C     0.79395   0.72869   0.04890   0.00000  Uiso   1.00
Cu431  Cu    0.83333   0.75000   0.29822   0.00000  Uiso   1.00
Cu432  Cu    0.83333   0.75001   0.20179   0.00000  Uiso   1.00
H433   H     0.99269   0.74989   0.19355   0.00000  Uiso   1.00
H434   H     0.79416   0.68672   0.45922   0.00000  Uiso   1.00
H435   H     0.90170   0.78865   0.13312   0.00000  Uiso   1.00
H436   H     0.79399   0.68850   0.37078   0.00000  Uiso   1.00
H437   H     0.76466   0.71182   0.11556   0.00000  Uiso   1.00
H438   H     0.87322   0.81128   0.38080   0.00000  Uiso   1.00
H439   H     0.76214   0.71228   0.02676   0.00000  Uiso   1.00
H440   H     0.87233   0.81350   0.46904   0.00000  Uiso   1.00
H441   H     0.96950   0.60969   0.25121   0.00000  Uiso   1.00
H442   H     0.70941   0.64937   0.29872   0.00000  Uiso   1.00
H443   H     0.70063   0.67954   0.38037   0.00000  Uiso   1.00
H444   H     0.67399   0.75080   0.30637   0.00000  Uiso   1.00
H445   H     0.95215   0.66947   0.41487   0.00000  Uiso   1.00
H446   H     0.87890   0.62936   0.36816   0.00000  Uiso   1.00
H447   H     0.84721   0.90764   0.11797   0.00000  Uiso   1.00
H448   H     0.81008   0.86838   0.04296   0.00000  Uiso   1.00
H449   H     0.73043   0.82328   0.04187   0.00000  Uiso   1.00
H450   H     0.68723   0.81787   0.11595   0.00000  Uiso   1.00
H451   H     0.72364   0.85703   0.19120   0.00000  Uiso   1.00
H452   H     0.90581   0.52964   0.29651   0.00000  Uiso   1.00
H453   H     0.80149   0.97141   0.17280   0.00000  Uiso   1.00
H454   H     0.76233   0.61257   0.20220   0.00000  Uiso   1.00
H455   H     0.85958   0.88945   0.32539   0.00000  Uiso   1.00
H456   H     0.75971   0.53196   0.20256   0.00000  Uiso   1.00
H457   H     0.85974   0.96969   0.32609   0.00000  Uiso   1.00
H458   H     0.90401   0.78846   0.04499   0.00000  Uiso   1.00
N459   N     0.83333   0.75001   0.12935   0.00000  Uiso   1.00
N460   N     0.83333   0.74999   0.37066   0.00000  Uiso   1.00
O461   O     0.83334   0.68573   0.29072   0.00000  Uiso   1.00
O462   O     0.83333   0.81427   0.20929   0.00000  Uiso   1.00
O463   O     0.83334   0.68573   0.20928   0.00000  Uiso   1.00
O464   O     0.83333   0.81427   0.29072   0.00000  Uiso   1.00
O465   O     0.75828   0.74999   0.28132   0.00000  Uiso   1.00
O466   O     0.90839   0.75001   0.21868   0.00000  Uiso   1.00
O467   O     0.75828   0.75000   0.19989   0.00000  Uiso   1.00
O468   O     0.90839   0.75000   0.30012   0.00000  Uiso   1.00
C469   C     0.16717   0.16517   0.75013   0.00000  Uiso   1.00
C470   C     0.18881   0.28514   0.94888   0.00000  Uiso   1.00
C471   C     0.16647   0.25025   0.52733   0.00000  Uiso   1.00
C472   C     0.16651   0.25016   0.97268   0.00000  Uiso   1.00
C473   C     0.06789   0.25004   0.73756   0.00000  Uiso   1.00
C474   C     0.26544   0.25014   0.76243   0.00000  Uiso   1.00
C475   C     0.01264   0.25015   0.73064   0.00000  Uiso   1.00
C476   C     0.32069   0.25047   0.76929   0.00000  Uiso   1.00
C477   C     0.20736   0.04768   0.77659   0.00000  Uiso   1.00
C478   C     0.14710   0.45338   0.70615   0.00000  Uiso   1.00
C479   C     0.20820   0.09382   0.77777   0.00000  Uiso   1.00
C480   C     0.16502   0.33511   0.74966   0.00000  Uiso   1.00
C481   C     0.14460   0.40726   0.70563   0.00000  Uiso   1.00
C482   C     0.16773   0.11724   0.75046   0.00000  Uiso   1.00
C483   C     0.16242   0.38358   0.74884   0.00000  Uiso   1.00
C484   C     0.12703   0.09462   0.72294   0.00000  Uiso   1.00
C485   C     0.17952   0.40680   0.79187   0.00000  Uiso   1.00
C486   C     0.12580   0.04875   0.72293   0.00000  Uiso   1.00
C487   C     0.18036   0.45268   0.79216   0.00000  Uiso   1.00
C488   C     0.16602   0.02491   0.74956   0.00000  Uiso   1.00
C489   C     0.16474   0.47630   0.74924   0.00000  Uiso   1.00
C490   C     0.25234   0.11681   0.80633   0.00000  Uiso   1.00
C491   C     0.20566   0.27184   0.55896   0.00000  Uiso   1.00
C492   C     0.29886   0.12242   0.78701   0.00000  Uiso   1.00
C493   C     0.00698   0.14486   0.81378   0.00000  Uiso   1.00
C494   C     0.00209   0.16187   0.85981   0.00000  Uiso   1.00
C495   C     0.28925   0.15622   0.87927   0.00000  Uiso   1.00
C496   C     0.24787   0.13354   0.85277   0.00000  Uiso   1.00
C497   C     0.12148   0.38512   0.66002   0.00000  Uiso   1.00
C498   C     0.14539   0.38845   0.61776   0.00000  Uiso   1.00
C499   C     0.12453   0.36619   0.57529   0.00000  Uiso   1.00
C500   C     0.07962   0.34072   0.57468   0.00000  Uiso   1.00
C501   C     0.05529   0.33766   0.61644   0.00000  Uiso   1.00
C502   C     0.14438   0.21503   0.94330   0.00000  Uiso   1.00
C503   C     0.07596   0.35990   0.65895   0.00000  Uiso   1.00
C504   C     0.20483   0.27157   0.60960   0.00000  Uiso   1.00
C505   C     0.14465   0.21571   0.89257   0.00000  Uiso   1.00
C506   C     0.12828   0.22874   0.59978   0.00000  Uiso   1.00
C507   C     0.18882   0.28425   0.89813   0.00000  Uiso   1.00
C508   C     0.12728   0.22869   0.54890   0.00000  Uiso   1.00
Cu509  Cu    0.16667   0.25000   0.79822   0.00000  Uiso   1.00
Cu510  Cu    0.16667   0.25001   0.70179   0.00000  Uiso   1.00
H511   H     0.32603   0.24989   0.69355   0.00000  Uiso   1.00
H512   H     0.12749   0.18672   0.95922   0.00000  Uiso   1.00
H513   H     0.23503   0.28865   0.63312   0.00000  Uiso   1.00
H514   H     0.12732   0.18850   0.87078   0.00000  Uiso   1.00
H515   H     0.09799   0.21182   0.61556   0.00000  Uiso   1.00
H516   H     0.20655   0.31128   0.88080   0.00000  Uiso   1.00
H517   H     0.09547   0.21228   0.52676   0.00000  Uiso   1.00
H518   H     0.20567   0.31350   0.96904   0.00000  Uiso   1.00
H519   H     0.30283   0.10969   0.75121   0.00000  Uiso   1.00
H520   H     0.04274   0.14937   0.79872   0.00000  Uiso   1.00
H521   H     0.03396   0.17954   0.88037   0.00000  Uiso   1.00
H522   H     0.00732   0.25080   0.80637   0.00000  Uiso   1.00
H523   H     0.28549   0.16947   0.91487   0.00000  Uiso   1.00
H524   H     0.21224   0.12936   0.86816   0.00000  Uiso   1.00
H525   H     0.18054   0.40764   0.61797   0.00000  Uiso   1.00
H526   H     0.14341   0.36838   0.54296   0.00000  Uiso   1.00
H527   H     0.06376   0.32328   0.54187   0.00000  Uiso   1.00
H528   H     0.02056   0.31787   0.61595   0.00000  Uiso   1.00
H529   H     0.05697   0.35703   0.69120   0.00000  Uiso   1.00
H530   H     0.23914   0.02964   0.79651   0.00000  Uiso   1.00
H531   H     0.13482   0.47141   0.67280   0.00000  Uiso   1.00
H532   H     0.09567   0.11257   0.70220   0.00000  Uiso   1.00
H533   H     0.19291   0.38945   0.82539   0.00000  Uiso   1.00
H534   H     0.09305   0.03196   0.70256   0.00000  Uiso   1.00
H535   H     0.19307   0.46969   0.82609   0.00000  Uiso   1.00
H536   H     0.23734   0.28846   0.54499   0.00000  Uiso   1.00
N537   N     0.16667   0.25001   0.62935   0.00000  Uiso   1.00
N538   N     0.16667   0.24999   0.87066   0.00000  Uiso   1.00
O539   O     0.16667   0.18573   0.79072   0.00000  Uiso   1.00
O540   O     0.16666   0.31427   0.70929   0.00000  Uiso   1.00
O541   O     0.16667   0.18573   0.70928   0.00000  Uiso   1.00
O542   O     0.16666   0.31427   0.79072   0.00000  Uiso   1.00
O543   O     0.09161   0.24999   0.78132   0.00000  Uiso   1.00
O544   O     0.24172   0.25001   0.71868   0.00000  Uiso   1.00
O545   O     0.09161   0.25000   0.69989   0.00000  Uiso   1.00
O546   O     0.24172   0.25000   0.80012   0.00000  Uiso   1.00
C547   C     0.50050   0.16517   0.75013   0.00000  Uiso   1.00
C548   C     0.52215   0.28514   0.94888   0.00000  Uiso   1.00
C549   C     0.49980   0.25025   0.52733   0.00000  Uiso   1.00
C550   C     0.49984   0.25016   0.97268   0.00000  Uiso   1.00
C551   C     0.40123   0.25004   0.73756   0.00000  Uiso   1.00
C552   C     0.59877   0.25014   0.76243   0.00000  Uiso   1.00
C553   C     0.34597   0.25015   0.73064   0.00000  Uiso   1.00
C554   C     0.65403   0.25047   0.76929   0.00000  Uiso   1.00
C555   C     0.54069   0.04768   0.77659   0.00000  Uiso   1.00
C556   C     0.48044   0.45338   0.70615   0.00000  Uiso   1.00
C557   C     0.54153   0.09382   0.77777   0.00000  Uiso   1.00
C558   C     0.49836   0.33511   0.74966   0.00000  Uiso   1.00
C559   C     0.47793   0.40726   0.70563   0.00000  Uiso   1.00
C560   C     0.50107   0.11724   0.75046   0.00000  Uiso   1.00
C561   C     0.49575   0.38358   0.74884   0.00000  Uiso   1.00
C562   C     0.46036   0.09462   0.72294   0.00000  Uiso   1.00
C563   C     0.51286   0.40680   0.79187   0.00000  Uiso   1.00
C564   C     0.45913   0.04875   0.72293   0.00000  Uiso   1.00
C565   C     0.51369   0.45268   0.79216   0.00000  Uiso   1.00
C566   C     0.49935   0.02491   0.74956   0.00000  Uiso   1.00
C567   C     0.49807   0.47630   0.74924   0.00000  Uiso   1.00
C568   C     0.58568   0.11681   0.80633   0.00000  Uiso   1.00
C569   C     0.53899   0.27184   0.55896   0.00000  Uiso   1.00
C570   C     0.63219   0.12242   0.78701   0.00000  Uiso   1.00
C571   C     0.34031   0.14486   0.81378   0.00000  Uiso   1.00
C572   C     0.33542   0.16187   0.85981   0.00000  Uiso   1.00
C573   C     0.62258   0.15622   0.87927   0.00000  Uiso   1.00
C574   C     0.58120   0.13354   0.85277   0.00000  Uiso   1.00
C575   C     0.45482   0.38512   0.66002   0.00000  Uiso   1.00
C576   C     0.47872   0.38845   0.61776   0.00000  Uiso   1.00
C577   C     0.45787   0.36619   0.57529   0.00000  Uiso   1.00
C578   C     0.41296   0.34072   0.57468   0.00000  Uiso   1.00
C579   C     0.38863   0.33766   0.61644   0.00000  Uiso   1.00
C580   C     0.47771   0.21503   0.94330   0.00000  Uiso   1.00
C581   C     0.40929   0.35990   0.65895   0.00000  Uiso   1.00
C582   C     0.53817   0.27157   0.60960   0.00000  Uiso   1.00
C583   C     0.47799   0.21571   0.89257   0.00000  Uiso   1.00
C584   C     0.46162   0.22874   0.59978   0.00000  Uiso   1.00
C585   C     0.52215   0.28425   0.89813   0.00000  Uiso   1.00
C586   C     0.46062   0.22869   0.54890   0.00000  Uiso   1.00
Cu587  Cu    0.50000   0.25000   0.79822   0.00000  Uiso   1.00
Cu588  Cu    0.50000   0.25001   0.70179   0.00000  Uiso   1.00
H589   H     0.65936   0.24989   0.69355   0.00000  Uiso   1.00
H590   H     0.46082   0.18672   0.95922   0.00000  Uiso   1.00
H591   H     0.56836   0.28865   0.63312   0.00000  Uiso   1.00
H592   H     0.46066   0.18850   0.87078   0.00000  Uiso   1.00
H593   H     0.43133   0.21182   0.61556   0.00000  Uiso   1.00
H594   H     0.53989   0.31128   0.88080   0.00000  Uiso   1.00
H595   H     0.42881   0.21228   0.52676   0.00000  Uiso   1.00
H596   H     0.53900   0.31350   0.96904   0.00000  Uiso   1.00
H597   H     0.63617   0.10969   0.75121   0.00000  Uiso   1.00
H598   H     0.37607   0.14937   0.79872   0.00000  Uiso   1.00
H599   H     0.36730   0.17954   0.88037   0.00000  Uiso   1.00
H600   H     0.34065   0.25080   0.80637   0.00000  Uiso   1.00
H601   H     0.61882   0.16947   0.91487   0.00000  Uiso   1.00
H602   H     0.54557   0.12936   0.86816   0.00000  Uiso   1.00
H603   H     0.51388   0.40764   0.61797   0.00000  Uiso   1.00
H604   H     0.47674   0.36838   0.54296   0.00000  Uiso   1.00
H605   H     0.39710   0.32328   0.54187   0.00000  Uiso   1.00
H606   H     0.35389   0.31787   0.61595   0.00000  Uiso   1.00
H607   H     0.39031   0.35703   0.69120   0.00000  Uiso   1.00
H608   H     0.57247   0.02964   0.79651   0.00000  Uiso   1.00
H609   H     0.46816   0.47141   0.67280   0.00000  Uiso   1.00
H610   H     0.42900   0.11257   0.70220   0.00000  Uiso   1.00
H611   H     0.52625   0.38945   0.82539   0.00000  Uiso   1.00
H612   H     0.42638   0.03196   0.70256   0.00000  Uiso   1.00
H613   H     0.52641   0.46969   0.82609   0.00000  Uiso   1.00
H614   H     0.57067   0.28846   0.54499   0.00000  Uiso   1.00
N615   N     0.50000   0.25001   0.62935   0.00000  Uiso   1.00
N616   N     0.50000   0.24999   0.87066   0.00000  Uiso   1.00
O617   O     0.50000   0.18573   0.79072   0.00000  Uiso   1.00
O618   O     0.50000   0.31427   0.70929   0.00000  Uiso   1.00
O619   O     0.50000   0.18573   0.70928   0.00000  Uiso   1.00
O620   O     0.50000   0.31427   0.79072   0.00000  Uiso   1.00
O621   O     0.42495   0.24999   0.78132   0.00000  Uiso   1.00
O622   O     0.57505   0.25001   0.71868   0.00000  Uiso   1.00
O623   O     0.42495   0.25000   0.69989   0.00000  Uiso   1.00
O624   O     0.57505   0.25000   0.80012   0.00000  Uiso   1.00
C625   C     0.83383   0.16517   0.75013   0.00000  Uiso   1.00
C626   C     0.85548   0.28514   0.94888   0.00000  Uiso   1.00
C627   C     0.83314   0.25025   0.52733   0.00000  Uiso   1.00
C628   C     0.83317   0.25016   0.97268   0.00000  Uiso   1.00
C629   C     0.73456   0.25004   0.73756   0.00000  Uiso   1.00
C630   C     0.93211   0.25014   0.76243   0.00000  Uiso   1.00
C631   C     0.67930   0.25015   0.73064   0.00000  Uiso   1.00
C632   C     0.98736   0.25047   0.76929   0.00000  Uiso   1.00
C633   C     0.87402   0.04768   0.77659   0.00000  Uiso   1.00
C634   C     0.81377   0.45338   0.70615   0.00000  Uiso   1.00
C635   C     0.87487   0.09382   0.77777   0.00000  Uiso   1.00
C636   C     0.83169   0.33511   0.74966   0.00000  Uiso   1.00
C637   C     0.81126   0.40726   0.70563   0.00000  Uiso   1.00
C638   C     0.83440   0.11724   0.75046   0.00000  Uiso   1.00
C639   C     0.82909   0.38358   0.74884   0.00000  Uiso   1.00
C640   C     0.79369   0.09462   0.72294   0.00000  Uiso   1.00
C641   C     0.84619   0.40680   0.79187   0.00000  Uiso   1.00
C642   C     0.79247   0.04875   0.72293   0.00000  Uiso   1.00
C643   C     0.84703   0.45268   0.79216   0.00000  Uiso   1.00
C644   C     0.83269   0.02491   0.74956   0.00000  Uiso   1.00
C645   C     0.83141   0.47630   0.74924   0.00000  Uiso   1.00
C646   C     0.91901   0.11681   0.80633   0.00000  Uiso   1.00
C647   C     0.87233   0.27184   0.55896   0.00000  Uiso   1.00
C648   C     0.96552   0.12242   0.78701   0.00000  Uiso   1.00
C649   C     0.67365   0.14486   0.81378   0.00000  Uiso   1.00
C650   C     0.66875   0.16187   0.85981   0.00000  Uiso   1.00
C651   C     0.95591   0.15622   0.87927   0.00000  Uiso   1.00
C652   C     0.91454   0.13354   0.85277   0.00000  Uiso   1.00
C653   C     0.78815   0.38512   0.66002   0.00000  Uiso   1.00
C654   C     0.81205   0.38845   0.61776   0.00000  Uiso   1.00
C655   C     0.79120   0.36619   0.57529   0.00000  Uiso   1.00
C656   C     0.74629   0.34072   0.57468   0.00000  Uiso   1.00
C657   C     0.72196   0.33766   0.61644   0.00000  Uiso   1.00
C658   C     0.81105   0.21503   0.94330   0.00000  Uiso   1.00
C659   C     0.74263   0.35990   0.65895   0.00000  Uiso   1.00
C660   C     0.87150   0.27157   0.60960   0.00000  Uiso   1.00
C661   C     0.81132   0.21571   0.89257   0.00000  Uiso   1.00
C662   C     0.79495   0.22874   0.59978   0.00000  Uiso   1.00
C663   C     0.85548   0.28425   0.89813   0.00000  Uiso   1.00
C664   C     0.79395   0.22869   0.54890   0.00000  Uiso   1.00
Cu665  Cu    0.83333   0.25000   0.79822   0.00000  Uiso   1.00
Cu666  Cu    0.83333   0.25001   0.70179   0.00000  Uiso   1.00
H667   H     0.99269   0.24989   0.69355   0.00000  Uiso   1.00
H668   H     0.79416   0.18672   0.95922   0.00000  Uiso   1.00
H669   H     0.90170   0.28865   0.63312   0.00000  Uiso   1.00
H670   H     0.79399   0.18850   0.87078   0.00000  Uiso   1.00
H671   H     0.76466   0.21182   0.61556   0.00000  Uiso   1.00
H672   H     0.87322   0.31128   0.88080   0.00000  Uiso   1.00
H673   H     0.76214   0.21228   0.52676   0.00000  Uiso   1.00
H674   H     0.87233   0.31350   0.96904   0.00000  Uiso   1.00
H675   H     0.96950   0.10969   0.75121   0.00000  Uiso   1.00
H676   H     0.70941   0.14937   0.79872   0.00000  Uiso   1.00
H677   H     0.70063   0.17954   0.88037   0.00000  Uiso   1.00
H678   H     0.67399   0.25080   0.80637   0.00000  Uiso   1.00
H679   H     0.95215   0.16947   0.91487   0.00000  Uiso   1.00
H680   H     0.87890   0.12936   0.86816   0.00000  Uiso   1.00
H681   H     0.84721   0.40764   0.61797   0.00000  Uiso   1.00
H682   H     0.81008   0.36838   0.54296   0.00000  Uiso   1.00
H683   H     0.73043   0.32328   0.54187   0.00000  Uiso   1.00
H684   H     0.68723   0.31787   0.61595   0.00000  Uiso   1.00
H685   H     0.72364   0.35703   0.69120   0.00000  Uiso   1.00
H686   H     0.90581   0.02964   0.79651   0.00000  Uiso   1.00
H687   H     0.80149   0.47141   0.67280   0.00000  Uiso   1.00
H688   H     0.76233   0.11257   0.70220   0.00000  Uiso   1.00
H689   H     0.85958   0.38945   0.82539   0.00000  Uiso   1.00
H690   H     0.75971   0.03196   0.70256   0.00000  Uiso   1.00
H691   H     0.85974   0.46969   0.82609   0.00000  Uiso   1.00
H692   H     0.90401   0.28846   0.54499   0.00000  Uiso   1.00
N693   N     0.83333   0.25001   0.62935   0.00000  Uiso   1.00
N694   N     0.83333   0.24999   0.87066   0.00000  Uiso   1.00
O695   O     0.83334   0.18573   0.79072   0.00000  Uiso   1.00
O696   O     0.83333   0.31427   0.70929   0.00000  Uiso   1.00
O697   O     0.83334   0.18573   0.70928   0.00000  Uiso   1.00
O698   O     0.83333   0.31427   0.79072   0.00000  Uiso   1.00
O699   O     0.75828   0.24999   0.78132   0.00000  Uiso   1.00
O700   O     0.90839   0.25001   0.71868   0.00000  Uiso   1.00
O701   O     0.75828   0.25000   0.69989   0.00000  Uiso   1.00
O702   O     0.90839   0.25000   0.80012   0.00000  Uiso   1.00
C703   C     0.16717   0.66517   0.75013   0.00000  Uiso   1.00
C704   C     0.18881   0.78514   0.94888   0.00000  Uiso   1.00
C705   C     0.16647   0.75025   0.52733   0.00000  Uiso   1.00
C706   C     0.16651   0.75016   0.97268   0.00000  Uiso   1.00
C707   C     0.06789   0.75004   0.73756   0.00000  Uiso   1.00
C708   C     0.26544   0.75014   0.76243   0.00000  Uiso   1.00
C709   C     0.01264   0.75015   0.73064   0.00000  Uiso   1.00
C710   C     0.32069   0.75047   0.76929   0.00000  Uiso   1.00
C711   C     0.20736   0.54768   0.77659   0.00000  Uiso   1.00
C712   C     0.14710   0.95338   0.70615   0.00000  Uiso   1.00
C713   C     0.20820   0.59382   0.77777   0.00000  Uiso   1.00
C714   C     0.16502   0.83511   0.74966   0.00000  Uiso   1.00
C715   C     0.14460   0.90726   0.70563   0.00000  Uiso   1.00
C716   C     0.16773   0.61724   0.75046   0.00000  Uiso   1.00
C717   C     0.16242   0.88358   0.74884   0.00000  Uiso   1.00
C718   C     0.12703   0.59462   0.72294   0.00000  Uiso   1.00
C719   C     0.17952   0.90680   0.79187   0.00000  Uiso   1.00
C720   C     0.12580   0.54875   0.72293   0.00000  Uiso   1.00
C721   C     0.18036   0.95268   0.79216   0.00000  Uiso   1.00
C722   C     0.16602   0.52491   0.74956   0.00000  Uiso   1.00
C723   C     0.16474   0.97630   0.74924   0.00000  Uiso   1.00
C724   C     0.25234   0.61681   0.80633   0.00000  Uiso   1.00
C725   C     0.20566   0.77184   0.55896   0.00000  Uiso   1.00
C726   C     0.29886   0.62242   0.78701   0.00000  Uiso   1.00
C727   C     0.00698   0.64486   0.81378   0.00000  Uiso   1.00
C728   C     0.00209   0.66187   0.85981   0.00000  Uiso   1.00
C729   C     0.28925   0.65622   0.87927   0.00000  Uiso   1.00
C730   C     0.24787   0.63354   0.85277   0.00000  Uiso   1.00
C731   C     0.12148   0.88512   0.66002   0.00000  Uiso   1.00
C732   C     0.14539   0.88845   0.61776   0.00000  Uiso   1.00
C733   C     0.12453   0.86619   0.57529   0.00000  Uiso   1.00
C734   C     0.07962   0.84072   0.57468   0.00000  Uiso   1.00
C735   C     0.05529   0.83766   0.61644   0.00000  Uiso   1.00
C736   C     0.14438   0.71503   0.94330   0.00000  Uiso   1.00
C737   C     0.07596   0.85990   0.65895   0.00000  Uiso   1.00
C738   C     0.20483   0.77157   0.60960   0.00000  Uiso   1.00
C739   C     0.14465   0.71571   0.89257   0.00000  Uiso   1.00
C740   C     0.12828   0.72874   0.59978   0.00000  Uiso   1.00
C741   C     0.18882   0.78425   0.89813   0.00000  Uiso   1.00
C742   C     0.12728   0.72869   0.54890   0.00000  Uiso   1.00
Cu743  Cu    0.16667   0.75000   0.79822   0.00000  Uiso   1.00
Cu744  Cu    0.16667   0.75001   0.70179   0.00000  Uiso   1.00
H745   H     0.32603   0.74989   0.69355   0.00000  Uiso   1.00
H746   H     0.12749   0.68672   0.95922   0.00000  Uiso   1.00
H747   H     0.23503   0.78865   0.63312   0.00000  Uiso   1.00
H748   H     0.12732   0.68850   0.87078   0.00000  Uiso   1.00
H749   H     0.09799   0.71182   0.61556   0.00000  Uiso   1.00
H750   H     0.20655   0.81128   0.88080   0.00000  Uiso   1.00
H751   H     0.09547   0.71228   0.52676   0.00000  Uiso   1.00
H752   H     0.20567   0.81350   0.96904   0.00000  Uiso   1.00
H753   H     0.30283   0.60969   0.75121   0.00000  Uiso   1.00
H754   H     0.04274   0.64937   0.79872   0.00000  Uiso   1.00
H755   H     0.03396   0.67954   0.88037   0.00000  Uiso   1.00
H756   H     0.00732   0.75080   0.80637   0.00000  Uiso   1.00
H757   H     0.28549   0.66947   0.91487   0.00000  Uiso   1.00
H758   H     0.21224   0.62936   0.86816   0.00000  Uiso   1.00
H759   H     0.18054   0.90764   0.61797   0.00000  Uiso   1.00
H760   H     0.14341   0.86838   0.54296   0.00000  Uiso   1.00
H761   H     0.06376   0.82328   0.54187   0.00000  Uiso   1.00
H762   H     0.02056   0.81787   0.61595   0.00000  Uiso   1.00
H763   H     0.05697   0.85703   0.69120   0.00000  Uiso   1.00
H764   H     0.23914   0.52964   0.79651   0.00000  Uiso   1.00
H765   H     0.13482   0.97141   0.67280   0.00000  Uiso   1.00
H766   H     0.09567   0.61257   0.70220   0.00000  Uiso   1.00
H767   H     0.19291   0.88945   0.82539   0.00000  Uiso   1.00
H768   H     0.09305   0.53196   0.70256   0.00000  Uiso   1.00
H769   H     0.19307   0.96969   0.82609   0.00000  Uiso   1.00
H770   H     0.23734   0.78846   0.54499   0.00000  Uiso   1.00
N771   N     0.16667   0.75001   0.62935   0.00000  Uiso   1.00
N772   N     0.16667   0.74999   0.87066   0.00000  Uiso   1.00
O773   O     0.16667   0.68573   0.79072   0.00000  Uiso   1.00
O774   O     0.16666   0.81427   0.70929   0.00000  Uiso   1.00
O775   O     0.16667   0.68573   0.70928   0.00000  Uiso   1.00
O776   O     0.16666   0.81427   0.79072   0.00000  Uiso   1.00
O777   O     0.09161   0.74999   0.78132   0.00000  Uiso   1.00
O778   O     0.24172   0.75001   0.71868   0.00000  Uiso   1.00
O779   O     0.09161   0.75000   0.69989   0.00000  Uiso   1.00
O780   O     0.24172   0.75000   0.80012   0.00000  Uiso   1.00
C781   C     0.50050   0.66517   0.75013   0.00000  Uiso   1.00
C782   C     0.52215   0.78514   0.94888   0.00000  Uiso   1.00
C783   C     0.49980   0.75025   0.52733   0.00000  Uiso   1.00
C784   C     0.49984   0.75016   0.97268   0.00000  Uiso   1.00
C785   C     0.40123   0.75004   0.73756   0.00000  Uiso   1.00
C786   C     0.59877   0.75014   0.76243   0.00000  Uiso   1.00
C787   C     0.34597   0.75015   0.73064   0.00000  Uiso   1.00
C788   C     0.65403   0.75047   0.76929   0.00000  Uiso   1.00
C789   C     0.54069   0.54768   0.77659   0.00000  Uiso   1.00
C790   C     0.48044   0.95338   0.70615   0.00000  Uiso   1.00
C791   C     0.54153   0.59382   0.77777   0.00000  Uiso   1.00
C792   C     0.49836   0.83511   0.74966   0.00000  Uiso   1.00
C793   C     0.47793   0.90726   0.70563   0.00000  Uiso   1.00
C794   C     0.50107   0.61724   0.75046   0.00000  Uiso   1.00
C795   C     0.49575   0.88358   0.74884   0.00000  Uiso   1.00
C796   C     0.46036   0.59462   0.72294   0.00000  Uiso   1.00
C797   C     0.51286   0.90680   0.79187   0.00000  Uiso   1.00
C798   C     0.45913   0.54875   0.72293   0.00000  Uiso   1.00
C799   C     0.51369   0.95268   0.79216   0.00000  Uiso   1.00
C800   C     0.49935   0.52491   0.74956   0.00000  Uiso   1.00
C801   C     0.49807   0.97630   0.74924   0.00000  Uiso   1.00
C802   C     0.58568   0.61681   0.80633   0.00000  Uiso   1.00
C803   C     0.53899   0.77184   0.55896   0.00000  Uiso   1.00
C804   C     0.63219   0.62242   0.78701   0.00000  Uiso   1.00
C805   C     0.34031   0.64486   0.81378   0.00000  Uiso   1.00
C806   C     0.33542   0.66187   0.85981   0.00000  Uiso   1.00
C807   C     0.62258   0.65622   0.87927   0.00000  Uiso   1.00
C808   C     0.58120   0.63354   0.85277   0.00000  Uiso   1.00
C809   C     0.45482   0.88512   0.66002   0.00000  Uiso   1.00
C810   C     0.47872   0.88845   0.61776   0.00000  Uiso   1.00
C811   C     0.45787   0.86619   0.57529   0.00000  Uiso   1.00
C812   C     0.41296   0.84072   0.57468   0.00000  Uiso   1.00
C813   C     0.38863   0.83766   0.61644   0.00000  Uiso   1.00
C814   C     0.47771   0.71503   0.94330   0.00000  Uiso   1.00
C815   C     0.40929   0.85990   0.65895   0.00000  Uiso   1.00
C816   C     0.53817   0.77157   0.60960   0.00000  Uiso   1.00
C817   C     0.47799   0.71571   0.89257   0.00000  Uiso   1.00
C818   C     0.46162   0.72874   0.59978   0.00000  Uiso   1.00
C819   C     0.52215   0.78425   0.89813   0.00000  Uiso   1.00
C820   C     0.46062   0.72869   0.54890   0.00000  Uiso   1.00
Cu821  Cu    0.50000   0.75000   0.79822   0.00000  Uiso   1.00
Cu822  Cu    0.50000   0.75001   0.70179   0.00000  Uiso   1.00
H823   H     0.65936   0.74989   0.69355   0.00000  Uiso   1.00
H824   H     0.46082   0.68672   0.95922   0.00000  Uiso   1.00
H825   H     0.56836   0.78865   0.63312   0.00000  Uiso   1.00
H826   H     0.46066   0.68850   0.87078   0.00000  Uiso   1.00
H827   H     0.43133   0.71182   0.61556   0.00000  Uiso   1.00
H828   H     0.53989   0.81128   0.88080   0.00000  Uiso   1.00
H829   H     0.42881   0.71228   0.52676   0.00000  Uiso   1.00
H830   H     0.53900   0.81350   0.96904   0.00000  Uiso   1.00
H831   H     0.63617   0.60969   0.75121   0.00000  Uiso   1.00
H832   H     0.37607   0.64937   0.79872   0.00000  Uiso   1.00
H833   H     0.36730   0.67954   0.88037   0.00000  Uiso   1.00
H834   H     0.34065   0.75080   0.80637   0.00000  Uiso   1.00
H835   H     0.61882   0.66947   0.91487   0.00000  Uiso   1.00
H836   H     0.54557   0.62936   0.86816   0.00000  Uiso   1.00
H837   H     0.51388   0.90764   0.61797   0.00000  Uiso   1.00
H838   H     0.47674   0.86838   0.54296   0.00000  Uiso   1.00
H839   H     0.39710   0.82328   0.54187   0.00000  Uiso   1.00
H840   H     0.35389   0.81787   0.61595   0.00000  Uiso   1.00
H841   H     0.39031   0.85703   0.69120   0.00000  Uiso   1.00
H842   H     0.57247   0.52964   0.79651   0.00000  Uiso   1.00
H843   H     0.46816   0.97141   0.67280   0.00000  Uiso   1.00
H844   H     0.42900   0.61257   0.70220   0.00000  Uiso   1.00
H845   H     0.52625   0.88945   0.82539   0.00000  Uiso   1.00
H846   H     0.42638   0.53196   0.70256   0.00000  Uiso   1.00
H847   H     0.52641   0.96969   0.82609   0.00000  Uiso   1.00
H848   H     0.57067   0.78846   0.54499   0.00000  Uiso   1.00
N849   N     0.50000   0.75001   0.62935   0.00000  Uiso   1.00
N850   N     0.50000   0.74999   0.87066   0.00000  Uiso   1.00
O851   O     0.50000   0.68573   0.79072   0.00000  Uiso   1.00
O852   O     0.50000   0.81427   0.70929   0.00000  Uiso   1.00
O853   O     0.50000   0.68573   0.70928   0.00000  Uiso   1.00
O854   O     0.50000   0.81427   0.79072   0.00000  Uiso   1.00
O855   O     0.42495   0.74999   0.78132   0.00000  Uiso   1.00
O856   O     0.57505   0.75001   0.71868   0.00000  Uiso   1.00
O857   O     0.42495   0.75000   0.69989   0.00000  Uiso   1.00
O858   O     0.57505   0.75000   0.80012   0.00000  Uiso   1.00
C859   C     0.83383   0.66517   0.75013   0.00000  Uiso   1.00
C860   C     0.85548   0.78514   0.94888   0.00000  Uiso   1.00
C861   C     0.83314   0.75025   0.52733   0.00000  Uiso   1.00
C862   C     0.83317   0.75016   0.97268   0.00000  Uiso   1.00
C863   C     0.73456   0.75004   0.73756   0.00000  Uiso   1.00
C864   C     0.93211   0.75014   0.76243   0.00000  Uiso   1.00
C865   C     0.67930   0.75015   0.73064   0.00000  Uiso   1.00
C866   C     0.98736   0.75047   0.76929   0.00000  Uiso   1.00
C867   C     0.87402   0.54768   0.77659   0.00000  Uiso   1.00
C868   C     0.81377   0.95338   0.70615   0.00000  Uiso   1.00
C869   C     0.87487   0.59382   0.77777   0.00000  Uiso   1.00
C870   C     0.83169   0.83511   0.74966   0.00000  Uiso   1.00
C871   C     0.81126   0.90726   0.70563   0.00000  Uiso   1.00
C872   C     0.83440   0.61724   0.75046   0.00000  Uiso   1.00
C873   C     0.82909   0.88358   0.74884   0.00000  Uiso   1.00
C874   C     0.79369   0.59462   0.72294   0.00000  Uiso   1.00
C875   C     0.84619   0.90680   0.79187   0.00000  Uiso   1.00
C876   C     0.79247   0.54875   0.72293   0.00000  Uiso   1.00
C877   C     0.84703   0.95268   0.79216   0.00000  Uiso   1.00
C878   C     0.83269   0.52491   0.74956   0.00000  Uiso   1.00
C879   C     0.83141   0.97630   0.74924   0.00000  Uiso   1.00
C880   C     0.91901   0.61681   0.80633   0.00000  Uiso   1.00
C881   C     0.87233   0.77184   0.55896   0.00000  Uiso   1.00
C882   C     0.96552   0.62242   0.78701   0.00000  Uiso   1.00
C883   C     0.67365   0.64486   0.81378   0.00000  Uiso   1.00
C884   C     0.66875   0.66187   0.85981   0.00000  Uiso   1.00
C885   C     0.95591   0.65622   0.87927   0.00000  Uiso   1.00
C886   C     0.91454   0.63354   0.85277   0.00000  Uiso   1.00
C887   C     0.78815   0.88512   0.66002   0.00000  Uiso   1.00
C888   C     0.81205   0.88845   0.61776   0.00000  Uiso   1.00
C889   C     0.79120   0.86619   0.57529   0.00000  Uiso   1.00
C890   C     0.74629   0.84072   0.57468   0.00000  Uiso   1.00
C891   C     0.72196   0.83766   0.61644   0.00000  Uiso   1.00
C892   C     0.81105   0.71503   0.94330   0.00000  Uiso   1.00
C893   C     0.74263   0.85990   0.65895   0.00000  Uiso   1.00
C894   C     0.87150   0.77157   0.60960   0.00000  Uiso   1.00
C895   C     0.81132   0.71571   0.89257   0.00000  Uiso   1.00
C896   C     0.79495   0.72874   0.59978   0.00000  Uiso   1.00
C897   C     0.85548   0.78425   0.89813   0.00000  Uiso   1.00
C898   C     0.79395   0.72869   0.54890   0.00000  Uiso   1.00
Cu899  Cu    0.83333   0.75000   0.79822   0.00000  Uiso   1.00
Cu900  Cu    0.83333   0.75001   0.70179   0.00000  Uiso   1.00
H901   H     0.99269   0.74989   0.69355   0.00000  Uiso   1.00
H902   H     0.79416   0.68672   0.95922   0.00000  Uiso   1.00
H903   H     0.90170   0.78865   0.63312   0.00000  Uiso   1.00
H904   H     0.79399   0.68850   0.87078   0.00000  Uiso   1.00
H905   H     0.76466   0.71182   0.61556   0.00000  Uiso   1.00
H906   H     0.87322   0.81128   0.88080   0.00000  Uiso   1.00
H907   H     0.76214   0.71228   0.52676   0.00000  Uiso   1.00
H908   H     0.87233   0.81350   0.96904   0.00000  Uiso   1.00
H909   H     0.96950   0.60969   0.75121   0.00000  Uiso   1.00
H910   H     0.70941   0.64937   0.79872   0.00000  Uiso   1.00
H911   H     0.70063   0.67954   0.88037   0.00000  Uiso   1.00
H912   H     0.67399   0.75080   0.80637   0.00000  Uiso   1.00
H913   H     0.95215   0.66947   0.91487   0.00000  Uiso   1.00
H914   H     0.87890   0.62936   0.86816   0.00000  Uiso   1.00
H915   H     0.84721   0.90764   0.61797   0.00000  Uiso   1.00
H916   H     0.81008   0.86838   0.54296   0.00000  Uiso   1.00
H917   H     0.73043   0.82328   0.54187   0.00000  Uiso   1.00
H918   H     0.68723   0.81787   0.61595   0.00000  Uiso   1.00
H919   H     0.72364   0.85703   0.69120   0.00000  Uiso   1.00
H920   H     0.90581   0.52964   0.79651   0.00000  Uiso   1.00
H921   H     0.80149   0.97141   0.67280   0.00000  Uiso   1.00
H922   H     0.76233   0.61257   0.70220   0.00000  Uiso   1.00
H923   H     0.85958   0.88945   0.82539   0.00000  Uiso   1.00
H924   H     0.75971   0.53196   0.70256   0.00000  Uiso   1.00
H925   H     0.85974   0.96969   0.82609   0.00000  Uiso   1.00
H926   H     0.90401   0.78846   0.54499   0.00000  Uiso   1.00
N927   N     0.83333   0.75001   0.62935   0.00000  Uiso   1.00
N928   N     0.83333   0.74999   0.87066   0.00000  Uiso   1.00
O929   O     0.83334   0.68573   0.79072   0.00000  Uiso   1.00
O930   O     0.83333   0.81427   0.70929   0.00000  Uiso   1.00
O931   O     0.83334   0.68573   0.70928   0.00000  Uiso   1.00
O932   O     0.83333   0.81427   0.79072   0.00000  Uiso   1.00
O933   O     0.75828   0.74999   0.78132   0.00000  Uiso   1.00
O934   O     0.90839   0.75001   0.71868   0.00000  Uiso   1.00
O935   O     0.75828   0.75000   0.69989   0.00000  Uiso   1.00
O936   O     0.90839   0.75000   0.80012   0.00000  Uiso   1.00
loop_
_geom_bond_atom_site_label_1
_geom_bond_atom_site_label_2
_geom_bond_distance
_geom_bond_site_symmetry_2
_ccdc_geom_bond_type
C1     O71     1.288   .     A
C1     O73     1.290   .     A
C1     C14     1.450   .     S
C2     H50     1.082   .     S
C2     C39     1.407   .     A
C2     C4      1.410   .     A
C3     C23     1.411   .     A
C3     C40     1.411   .     A
C3     C472    1.515   1_554 S
C4     C34     1.411   .     A
C4     C471    1.515   .     S
C5     C7      1.432   .     S
C5     O75     1.285   .     A
C5     O77     1.285   .     A
C6     O78     1.286   .     A
C6     C8      1.432   .     S
C6     O76     1.284   .     A
C7     C164    1.334   1_455 S
C7     H199    1.087   1_455 S
C8     C85     1.334   .     S
C8     H132    1.087   .     S
C9     H62     1.084   .     S
C9     C20     1.405   .     A
C9     C11     1.396   .     A
C10    H63     1.084   .     S
C10    C21     1.402   .     A
C10    C13     1.396   .     A
C11    C14     1.409   .     A
C11    C22     1.477   .     S
C12    O74     1.296   .     A
C12    O72     1.291   .     A
C12    C15     1.468   .     S
C13    C29     1.483   .     S
C13    C15     1.419   .     A
C14    C16     1.397   .     A
C15    C17     1.403   .     A
C16    C18     1.388   .     A
C16    H64     1.084   .     S
C17    H65     1.083   .     S
C17    C19     1.388   .     A
C18    H66     1.083   .     S
C18    C20     1.403   .     A
C19    C21     1.401   .     A
C19    H67     1.083   .     S
C20    C255    1.470   1_545 S
C21    C254    1.470   .     S
C22    C24     1.404   .     A
C22    C28     1.404   .     A
C23    H68     1.082   .     S
C23    C36     1.407   .     A
C24    H51     1.083   .     S
C24    C103    1.399   .     S
C25    C26     1.399   .     A
C25    H52     1.083   .     S
C25    C180    1.399   1_455 S
C26    H53     1.081   .     S
C26    C183    1.398   1_455 S
C27    H55     1.082   .     S
C27    C28     1.398   .     A
C27    C104    1.398   .     S
C28    H56     1.083   .     S
C29    C30     1.405   .     A
C29    C35     1.406   .     A
C30    C31     1.399   .     A
C30    H57     1.083   .     S
C31    H58     1.082   .     S
C31    C32     1.398   .     A
C32    C33     1.398   .     A
C32    H59     1.082   .     S
C33    C35     1.398   .     A
C33    H60     1.083   .     S
C34    C37     1.407   .     A
C34    H44     1.082   .     S
C35    H61     1.083   .     S
C36    H45     1.081   .     S
C36    N69     1.364   .     A
C37    N70     1.364   .     A
C37    H46     1.081   .     S
C38    N69     1.364   .     A
C38    H47     1.081   .     S
C38    C40     1.407   .     A
C39    N70     1.364   .     A
C39    H48     1.081   .     S
C40    H49     1.082   .     S
Cu41   Cu42    2.673   .     S
Cu41   O74     1.955   .     S
Cu41   O71     1.955   .     S
Cu41   O78     1.957   .     S
Cu41   O75     1.955   .     S
Cu41   N70     2.008   .     S
Cu42   N69     2.008   .     S
Cu42   O72     1.955   .     S
Cu42   O73     1.955   .     S
Cu42   O76     1.955   .     S
Cu42   O77     1.957   .     S
H43    C85     1.087   .     S
H54    C164    1.087   1_455 S
C79    O149    1.288   .     A
C79    O151    1.290   .     A
C79    C92     1.450   .     S
C80    H128    1.082   .     S
C80    C117    1.407   .     A
C80    C82     1.410   .     A
C81    C101    1.411   .     A
C81    C118    1.411   .     A
C81    C550    1.515   1_554 S
C82    C112    1.411   .     A
C82    C549    1.515   .     S
C83    C85     1.432   .     S
C83    O153    1.285   .     A
C83    O155    1.285   .     A
C84    O156    1.286   .     A
C84    C86     1.432   .     S
C84    O154    1.284   .     A
C86    C163    1.334   .     S
C86    H210    1.087   .     S
C87    H140    1.084   .     S
C87    C98     1.405   .     A
C87    C89     1.396   .     A
C88    H141    1.084   .     S
C88    C99     1.402   .     A
C88    C91     1.396   .     A
C89    C92     1.409   .     A
C89    C100    1.477   .     S
C90    O152    1.296   .     A
C90    O150    1.291   .     A
C90    C93     1.468   .     S
C91    C107    1.483   .     S
C91    C93     1.419   .     A
C92    C94     1.397   .     A
C93    C95     1.403   .     A
C94    C96     1.388   .     A
C94    H142    1.084   .     S
C95    H143    1.083   .     S
C95    C97     1.388   .     A
C96    H144    1.083   .     S
C96    C98     1.403   .     A
C97    C99     1.401   .     A
C97    H145    1.083   .     S
C98    C333    1.470   1_545 S
C99    C332    1.470   .     S
C100   C102    1.404   .     A
C100   C106    1.404   .     A
C101   H146    1.082   .     S
C101   C114    1.407   .     A
C102   H129    1.083   .     S
C102   C181    1.399   .     S
C103   C104    1.399   .     A
C103   H130    1.083   .     S
C104   H131    1.081   .     S
C105   H133    1.082   .     S
C105   C106    1.398   .     A
C105   C182    1.398   .     S
C106   H134    1.083   .     S
C107   C108    1.405   .     A
C107   C113    1.406   .     A
C108   C109    1.399   .     A
C108   H135    1.083   .     S
C109   H136    1.082   .     S
C109   C110    1.398   .     A
C110   C111    1.398   .     A
C110   H137    1.082   .     S
C111   C113    1.398   .     A
C111   H138    1.083   .     S
C112   C115    1.407   .     A
C112   H122    1.082   .     S
C113   H139    1.083   .     S
C114   H123    1.081   .     S
C114   N147    1.364   .     A
C115   N148    1.364   .     A
C115   H124    1.081   .     S
C116   N147    1.364   .     A
C116   H125    1.081   .     S
C116   C118    1.407   .     A
C117   N148    1.364   .     A
C117   H126    1.081   .     S
C118   H127    1.082   .     S
Cu119  Cu120   2.673   .     S
Cu119  O152    1.955   .     S
Cu119  O149    1.955   .     S
Cu119  O156    1.957   .     S
Cu119  O153    1.955   .     S
Cu119  N148    2.008   .     S
Cu120  N147    2.008   .     S
Cu120  O150    1.955   .     S
Cu120  O151    1.955   .     S
Cu120  O154    1.955   .     S
Cu120  O155    1.957   .     S
H121   C163    1.087   .     S
C157   O227    1.288   .     A
C157   O229    1.290   .     A
C157   C170    1.450   .     S
C158   H206    1.082   .     S
C158   C195    1.407   .     A
C158   C160    1.410   .     A
C159   C179    1.411   .     A
C159   C196    1.411   .     A
C159   C628    1.515   1_554 S
C160   C190    1.411   .     A
C160   C627    1.515   .     S
C161   C163    1.432   .     S
C161   O231    1.285   .     A
C161   O233    1.285   .     A
C162   O234    1.286   .     A
C162   C164    1.432   .     S
C162   O232    1.284   .     A
C164   C7      1.334   1_655 S
C164   H54     1.087   1_655 S
C165   H218    1.084   .     S
C165   C176    1.405   .     A
C165   C167    1.396   .     A
C166   H219    1.084   .     S
C166   C177    1.402   .     A
C166   C169    1.396   .     A
C167   C170    1.409   .     A
C167   C178    1.477   .     S
C168   O230    1.296   .     A
C168   O228    1.291   .     A
C168   C171    1.468   .     S
C169   C185    1.483   .     S
C169   C171    1.419   .     A
C170   C172    1.397   .     A
C171   C173    1.403   .     A
C172   C174    1.388   .     A
C172   H220    1.084   .     S
C173   H221    1.083   .     S
C173   C175    1.388   .     A
C174   H222    1.083   .     S
C174   C176    1.403   .     A
C175   C177    1.401   .     A
C175   H223    1.083   .     S
C176   C411    1.470   1_545 S
C177   C410    1.470   .     S
C178   C180    1.404   .     A
C178   C184    1.404   .     A
C179   H224    1.082   .     S
C179   C192    1.407   .     A
C180   H207    1.083   .     S
C180   C25     1.399   1_655 S
C181   C182    1.399   .     A
C181   H208    1.083   .     S
C182   H209    1.081   .     S
C183   H211    1.082   .     S
C183   C184    1.398   .     A
C183   C26     1.398   1_655 S
C184   H212    1.083   .     S
C185   C186    1.405   .     A
C185   C191    1.406   .     A
C186   C187    1.399   .     A
C186   H213    1.083   .     S
C187   H214    1.082   .     S
C187   C188    1.398   .     A
C188   C189    1.398   .     A
C188   H215    1.082   .     S
C189   C191    1.398   .     A
C189   H216    1.083   .     S
C190   C193    1.407   .     A
C190   H200    1.082   .     S
C191   H217    1.083   .     S
C192   H201    1.081   .     S
C192   N225    1.364   .     A
C193   N226    1.364   .     A
C193   H202    1.081   .     S
C194   N225    1.364   .     A
C194   H203    1.081   .     S
C194   C196    1.407   .     A
C195   N226    1.364   .     A
C195   H204    1.081   .     S
C196   H205    1.082   .     S
Cu197  Cu198   2.673   .     S
Cu197  O230    1.955   .     S
Cu197  O227    1.955   .     S
Cu197  O234    1.957   .     S
Cu197  O231    1.955   .     S
Cu197  N226    2.008   .     S
Cu198  N225    2.008   .     S
Cu198  O228    1.955   .     S
Cu198  O229    1.955   .     S
Cu198  O232    1.955   .     S
Cu198  O233    1.957   .     S
H199   C7      1.087   1_655 S
C235   O305    1.288   .     A
C235   O307    1.290   .     A
C235   C248    1.450   .     S
C236   H284    1.082   .     S
C236   C273    1.407   .     A
C236   C238    1.410   .     A
C237   C257    1.411   .     A
C237   C274    1.411   .     A
C237   C706    1.515   1_554 S
C238   C268    1.411   .     A
C238   C705    1.515   .     S
C239   C241    1.432   .     S
C239   O309    1.285   .     A
C239   O311    1.285   .     A
C240   O312    1.286   .     A
C240   C242    1.432   .     S
C240   O310    1.284   .     A
C241   C398    1.334   1_455 S
C241   H433    1.087   1_455 S
C242   C319    1.334   .     S
C242   H366    1.087   .     S
C243   H296    1.084   .     S
C243   C254    1.405   .     A
C243   C245    1.396   .     A
C244   H297    1.084   .     S
C244   C255    1.402   .     A
C244   C247    1.396   .     A
C245   C248    1.409   .     A
C245   C256    1.477   .     S
C246   O308    1.296   .     A
C246   O306    1.291   .     A
C246   C249    1.468   .     S
C247   C263    1.483   .     S
C247   C249    1.419   .     A
C248   C250    1.397   .     A
C249   C251    1.403   .     A
C250   C252    1.388   .     A
C250   H298    1.084   .     S
C251   H299    1.083   .     S
C251   C253    1.388   .     A
C252   H300    1.083   .     S
C252   C254    1.403   .     A
C253   C255    1.401   .     A
C253   H301    1.083   .     S
C255   C20     1.470   1_565 S
C256   C258    1.404   .     A
C256   C262    1.404   .     A
C257   H302    1.082   .     S
C257   C270    1.407   .     A
C258   H285    1.083   .     S
C258   C337    1.399   .     S
C259   C260    1.399   .     A
C259   H286    1.083   .     S
C259   C414    1.399   1_455 S
C260   H287    1.081   .     S
C260   C417    1.398   1_455 S
C261   H289    1.082   .     S
C261   C262    1.398   .     A
C261   C338    1.398   .     S
C262   H290    1.083   .     S
C263   C264    1.405   .     A
C263   C269    1.406   .     A
C264   C265    1.399   .     A
C264   H291    1.083   .     S
C265   H292    1.082   .     S
C265   C266    1.398   .     A
C266   C267    1.398   .     A
C266   H293    1.082   .     S
C267   C269    1.398   .     A
C267   H294    1.083   .     S
C268   C271    1.407   .     A
C268   H278    1.082   .     S
C269   H295    1.083   .     S
C270   H279    1.081   .     S
C270   N303    1.364   .     A
C271   N304    1.364   .     A
C271   H280    1.081   .     S
C272   N303    1.364   .     A
C272   H281    1.081   .     S
C272   C274    1.407   .     A
C273   N304    1.364   .     A
C273   H282    1.081   .     S
C274   H283    1.082   .     S
Cu275  Cu276   2.673   .     S
Cu275  O308    1.955   .     S
Cu275  O305    1.955   .     S
Cu275  O312    1.957   .     S
Cu275  O309    1.955   .     S
Cu275  N304    2.008   .     S
Cu276  N303    2.008   .     S
Cu276  O306    1.955   .     S
Cu276  O307    1.955   .     S
Cu276  O310    1.955   .     S
Cu276  O311    1.957   .     S
H277   C319    1.087   .     S
H288   C398    1.087   1_455 S
C313   O383    1.288   .     A
C313   O385    1.290   .     A
C313   C326    1.450   .     S
C314   H362    1.082   .     S
C314   C351    1.407   .     A
C314   C316    1.410   .     A
C315   C335    1.411   .     A
C315   C352    1.411   .     A
C315   C784    1.515   1_554 S
C316   C346    1.411   .     A
C316   C783    1.515   .     S
C317   C319    1.432   .     S
C317   O387    1.285   .     A
C317   O389    1.285   .     A
C318   O390    1.286   .     A
C318   C320    1.432   .     S
C318   O388    1.284   .     A
C320   C397    1.334   .     S
C320   H444    1.087   .     S
C321   H374    1.084   .     S
C321   C332    1.405   .     A
C321   C323    1.396   .     A
C322   H375    1.084   .     S
C322   C333    1.402   .     A
C322   C325    1.396   .     A
C323   C326    1.409   .     A
C323   C334    1.477   .     S
C324   O386    1.296   .     A
C324   O384    1.291   .     A
C324   C327    1.468   .     S
C325   C341    1.483   .     S
C325   C327    1.419   .     A
C326   C328    1.397   .     A
C327   C329    1.403   .     A
C328   C330    1.388   .     A
C328   H376    1.084   .     S
C329   H377    1.083   .     S
C329   C331    1.388   .     A
C330   H378    1.083   .     S
C330   C332    1.403   .     A
C331   C333    1.401   .     A
C331   H379    1.083   .     S
C333   C98     1.470   1_565 S
C334   C336    1.404   .     A
C334   C340    1.404   .     A
C335   H380    1.082   .     S
C335   C348    1.407   .     A
C336   H363    1.083   .     S
C336   C415    1.399   .     S
C337   C338    1.399   .     A
C337   H364    1.083   .     S
C338   H365    1.081   .     S
C339   H367    1.082   .     S
C339   C340    1.398   .     A
C339   C416    1.398   .     S
C340   H368    1.083   .     S
C341   C342    1.405   .     A
C341   C347    1.406   .     A
C342   C343    1.399   .     A
C342   H369    1.083   .     S
C343   H370    1.082   .     S
C343   C344    1.398   .     A
C344   C345    1.398   .     A
C344   H371    1.082   .     S
C345   C347    1.398   .     A
C345   H372    1.083   .     S
C346   C349    1.407   .     A
C346   H356    1.082   .     S
C347   H373    1.083   .     S
C348   H357    1.081   .     S
C348   N381    1.364   .     A
C349   N382    1.364   .     A
C349   H358    1.081   .     S
C350   N381    1.364   .     A
C350   H359    1.081   .     S
C350   C352    1.407   .     A
C351   N382    1.364   .     A
C351   H360    1.081   .     S
C352   H361    1.082   .     S
Cu353  Cu354   2.673   .     S
Cu353  O386    1.955   .     S
Cu353  O383    1.955   .     S
Cu353  O390    1.957   .     S
Cu353  O387    1.955   .     S
Cu353  N382    2.008   .     S
Cu354  N381    2.008   .     S
Cu354  O384    1.955   .     S
Cu354  O385    1.955   .     S
Cu354  O388    1.955   .     S
Cu354  O389    1.957   .     S
H355   C397    1.087   .     S
C391   O461    1.288   .     A
C391   O463    1.290   .     A
C391   C404    1.450   .     S
C392   H440    1.082   .     S
C392   C429    1.407   .     A
C392   C394    1.410   .     A
C393   C413    1.411   .     A
C393   C430    1.411   .     A
C393   C862    1.515   1_554 S
C394   C424    1.411   .     A
C394   C861    1.515   .     S
C395   C397    1.432   .     S
C395   O465    1.285   .     A
C395   O467    1.285   .     A
C396   O468    1.286   .     A
C396   C398    1.432   .     S
C396   O466    1.284   .     A
C398   C241    1.334   1_655 S
C398   H288    1.087   1_655 S
C399   H452    1.084   .     S
C399   C410    1.405   .     A
C399   C401    1.396   .     A
C400   H453    1.084   .     S
C400   C411    1.402   .     A
C400   C403    1.396   .     A
C401   C404    1.409   .     A
C401   C412    1.477   .     S
C402   O464    1.296   .     A
C402   O462    1.291   .     A
C402   C405    1.468   .     S
C403   C419    1.483   .     S
C403   C405    1.419   .     A
C404   C406    1.397   .     A
C405   C407    1.403   .     A
C406   C408    1.388   .     A
C406   H454    1.084   .     S
C407   H455    1.083   .     S
C407   C409    1.388   .     A
C408   H456    1.083   .     S
C408   C410    1.403   .     A
C409   C411    1.401   .     A
C409   H457    1.083   .     S
C411   C176    1.470   1_565 S
C412   C414    1.404   .     A
C412   C418    1.404   .     A
C413   H458    1.082   .     S
C413   C426    1.407   .     A
C414   H441    1.083   .     S
C414   C259    1.399   1_655 S
C415   C416    1.399   .     A
C415   H442    1.083   .     S
C416   H443    1.081   .     S
C417   H445    1.082   .     S
C417   C418    1.398   .     A
C417   C260    1.398   1_655 S
C418   H446    1.083   .     S
C419   C420    1.405   .     A
C419   C425    1.406   .     A
C420   C421    1.399   .     A
C420   H447    1.083   .     S
C421   H448    1.082   .     S
C421   C422    1.398   .     A
C422   C423    1.398   .     A
C422   H449    1.082   .     S
C423   C425    1.398   .     A
C423   H450    1.083   .     S
C424   C427    1.407   .     A
C424   H434    1.082   .     S
C425   H451    1.083   .     S
C426   H435    1.081   .     S
C426   N459    1.364   .     A
C427   N460    1.364   .     A
C427   H436    1.081   .     S
C428   N459    1.364   .     A
C428   H437    1.081   .     S
C428   C430    1.407   .     A
C429   N460    1.364   .     A
C429   H438    1.081   .     S
C430   H439    1.082   .     S
Cu431  Cu432   2.673   .     S
Cu431  O464    1.955   .     S
Cu431  O461    1.955   .     S
Cu431  O468    1.957   .     S
Cu431  O465    1.955   .     S
Cu431  N460    2.008   .     S
Cu432  N459    2.008   .     S
Cu432  O462    1.955   .     S
Cu432  O463    1.955   .     S
Cu432  O466    1.955   .     S
Cu432  O467    1.957   .     S
H433   C241    1.087   1_655 S
C469   O539    1.288   .     A
C469   O541    1.290   .     A
C469   C482    1.450   .     S
C470   H518    1.082   .     S
C470   C507    1.407   .     A
C470   C472    1.410   .     A
C471   C491    1.411   .     A
C471   C508    1.411   .     A
C472   C502    1.411   .     A
C472   C3      1.515   1_556 S
C473   C475    1.432   .     S
C473   O543    1.285   .     A
C473   O545    1.285   .     A
C474   O546    1.286   .     A
C474   C476    1.432   .     S
C474   O544    1.284   .     A
C475   C632    1.334   1_455 S
C475   H667    1.087   1_455 S
C476   C553    1.334   .     S
C476   H600    1.087   .     S
C477   H530    1.084   .     S
C477   C488    1.405   .     A
C477   C479    1.396   .     A
C478   H531    1.084   .     S
C478   C489    1.402   .     A
C478   C481    1.396   .     A
C479   C482    1.409   .     A
C479   C490    1.477   .     S
C480   O542    1.296   .     A
C480   O540    1.291   .     A
C480   C483    1.468   .     S
C481   C497    1.483   .     S
C481   C483    1.419   .     A
C482   C484    1.397   .     A
C483   C485    1.403   .     A
C484   C486    1.388   .     A
C484   H532    1.084   .     S
C485   H533    1.083   .     S
C485   C487    1.388   .     A
C486   H534    1.083   .     S
C486   C488    1.403   .     A
C487   C489    1.401   .     A
C487   H535    1.083   .     S
C488   C723    1.470   1_545 S
C489   C722    1.470   .     S
C490   C492    1.404   .     A
C490   C496    1.404   .     A
C491   H536    1.082   .     S
C491   C504    1.407   .     A
C492   H519    1.083   .     S
C492   C571    1.399   .     S
C493   C494    1.399   .     A
C493   H520    1.083   .     S
C493   C648    1.399   1_455 S
C494   H521    1.081   .     S
C494   C651    1.398   1_455 S
C495   H523    1.082   .     S
C495   C496    1.398   .     A
C495   C572    1.398   .     S
C496   H524    1.083   .     S
C497   C498    1.405   .     A
C497   C503    1.406   .     A
C498   C499    1.399   .     A
C498   H525    1.083   .     S
C499   H526    1.082   .     S
C499   C500    1.398   .     A
C500   C501    1.398   .     A
C500   H527    1.082   .     S
C501   C503    1.398   .     A
C501   H528    1.083   .     S
C502   C505    1.407   .     A
C502   H512    1.082   .     S
C503   H529    1.083   .     S
C504   H513    1.081   .     S
C504   N537    1.364   .     A
C505   N538    1.364   .     A
C505   H514    1.081   .     S
C506   N537    1.364   .     A
C506   H515    1.081   .     S
C506   C508    1.407   .     A
C507   N538    1.364   .     A
C507   H516    1.081   .     S
C508   H517    1.082   .     S
Cu509  Cu510   2.673   .     S
Cu509  O542    1.955   .     S
Cu509  O539    1.955   .     S
Cu509  O546    1.957   .     S
Cu509  O543    1.955   .     S
Cu509  N538    2.008   .     S
Cu510  N537    2.008   .     S
Cu510  O540    1.955   .     S
Cu510  O541    1.955   .     S
Cu510  O544    1.955   .     S
Cu510  O545    1.957   .     S
H511   C553    1.087   .     S
H522   C632    1.087   1_455 S
C547   O617    1.288   .     A
C547   O619    1.290   .     A
C547   C560    1.450   .     S
C548   H596    1.082   .     S
C548   C585    1.407   .     A
C548   C550    1.410   .     A
C549   C569    1.411   .     A
C549   C586    1.411   .     A
C550   C580    1.411   .     A
C550   C81     1.515   1_556 S
C551   C553    1.432   .     S
C551   O621    1.285   .     A
C551   O623    1.285   .     A
C552   O624    1.286   .     A
C552   C554    1.432   .     S
C552   O622    1.284   .     A
C554   C631    1.334   .     S
C554   H678    1.087   .     S
C555   H608    1.084   .     S
C555   C566    1.405   .     A
C555   C557    1.396   .     A
C556   H609    1.084   .     S
C556   C567    1.402   .     A
C556   C559    1.396   .     A
C557   C560    1.409   .     A
C557   C568    1.477   .     S
C558   O620    1.296   .     A
C558   O618    1.291   .     A
C558   C561    1.468   .     S
C559   C575    1.483   .     S
C559   C561    1.419   .     A
C560   C562    1.397   .     A
C561   C563    1.403   .     A
C562   C564    1.388   .     A
C562   H610    1.084   .     S
C563   H611    1.083   .     S
C563   C565    1.388   .     A
C564   H612    1.083   .     S
C564   C566    1.403   .     A
C565   C567    1.401   .     A
C565   H613    1.083   .     S
C566   C801    1.470   1_545 S
C567   C800    1.470   .     S
C568   C570    1.404   .     A
C568   C574    1.404   .     A
C569   H614    1.082   .     S
C569   C582    1.407   .     A
C570   H597    1.083   .     S
C570   C649    1.399   .     S
C571   C572    1.399   .     A
C571   H598    1.083   .     S
C572   H599    1.081   .     S
C573   H601    1.082   .     S
C573   C574    1.398   .     A
C573   C650    1.398   .     S
C574   H602    1.083   .     S
C575   C576    1.405   .     A
C575   C581    1.406   .     A
C576   C577    1.399   .     A
C576   H603    1.083   .     S
C577   H604    1.082   .     S
C577   C578    1.398   .     A
C578   C579    1.398   .     A
C578   H605    1.082   .     S
C579   C581    1.398   .     A
C579   H606    1.083   .     S
C580   C583    1.407   .     A
C580   H590    1.082   .     S
C581   H607    1.083   .     S
C582   H591    1.081   .     S
C582   N615    1.364   .     A
C583   N616    1.364   .     A
C583   H592    1.081   .     S
C584   N615    1.364   .     A
C584   H593    1.081   .     S
C584   C586    1.407   .     A
C585   N616    1.364   .     A
C585   H594    1.081   .     S
C586   H595    1.082   .     S
Cu587  Cu588   2.673   .     S
Cu587  O620    1.955   .     S
Cu587  O617    1.955   .     S
Cu587  O624    1.957   .     S
Cu587  O621    1.955   .     S
Cu587  N616    2.008   .     S
Cu588  N615    2.008   .     S
Cu588  O618    1.955   .     S
Cu588  O619    1.955   .     S
Cu588  O622    1.955   .     S
Cu588  O623    1.957   .     S
H589   C631    1.087   .     S
C625   O695    1.288   .     A
C625   O697    1.290   .     A
C625   C638    1.450   .     S
C626   H674    1.082   .     S
C626   C663    1.407   .     A
C626   C628    1.410   .     A
C627   C647    1.411   .     A
C627   C664    1.411   .     A
C628   C658    1.411   .     A
C628   C159    1.515   1_556 S
C629   C631    1.432   .     S
C629   O699    1.285   .     A
C629   O701    1.285   .     A
C630   O702    1.286   .     A
C630   C632    1.432   .     S
C630   O700    1.284   .     A
C632   C475    1.334   1_655 S
C632   H522    1.087   1_655 S
C633   H686    1.084   .     S
C633   C644    1.405   .     A
C633   C635    1.396   .     A
C634   H687    1.084   .     S
C634   C645    1.402   .     A
C634   C637    1.396   .     A
C635   C638    1.409   .     A
C635   C646    1.477   .     S
C636   O698    1.296   .     A
C636   O696    1.291   .     A
C636   C639    1.468   .     S
C637   C653    1.483   .     S
C637   C639    1.419   .     A
C638   C640    1.397   .     A
C639   C641    1.403   .     A
C640   C642    1.388   .     A
C640   H688    1.084   .     S
C641   H689    1.083   .     S
C641   C643    1.388   .     A
C642   H690    1.083   .     S
C642   C644    1.403   .     A
C643   C645    1.401   .     A
C643   H691    1.083   .     S
C644   C879    1.470   1_545 S
C645   C878    1.470   .     S
C646   C648    1.404   .     A
C646   C652    1.404   .     A
C647   H692    1.082   .     S
C647   C660    1.407   .     A
C648   H675    1.083   .     S
C648   C493    1.399   1_655 S
C649   C650    1.399   .     A
C649   H676    1.083   .     S
C650   H677    1.081   .     S
C651   H679    1.082   .     S
C651   C652    1.398   .     A
C651   C494    1.398   1_655 S
C652   H680    1.083   .     S
C653   C654    1.405   .     A
C653   C659    1.406   .     A
C654   C655    1.399   .     A
C654   H681    1.083   .     S
C655   H682    1.082   .     S
C655   C656    1.398   .     A
C656   C657    1.398   .     A
C656   H683    1.082   .     S
C657   C659    1.398   .     A
C657   H684    1.083   .     S
C658   C661    1.407   .     A
C658   H668    1.082   .     S
C659   H685    1.083   .     S
C660   H669    1.081   .     S
C660   N693    1.364   .     A
C661   N694    1.364   .     A
C661   H670    1.081   .     S
C662   N693    1.364   .     A
C662   H671    1.081   .     S
C662   C664    1.407   .     A
C663   N694    1.364   .     A
C663   H672    1.081   .     S
C664   H673    1.082   .     S
Cu665  Cu666   2.673   .     S
Cu665  O698    1.955   .     S
Cu665  O695    1.955   .     S
Cu665  O702    1.957   .     S
Cu665  O699    1.955   .     S
Cu665  N694    2.008   .     S
Cu666  N693    2.008   .     S
Cu666  O696    1.955   .     S
Cu666  O697    1.955   .     S
Cu666  O700    1.955   .     S
Cu666  O701    1.957   .     S
H667   C475    1.087   1_655 S
C703   O773    1.288   .     A
C703   O775    1.290   .     A
C703   C716    1.450   .     S
C704   H752    1.082   .     S
C704   C741    1.407   .     A
C704   C706    1.410   .     A
C705   C725    1.411   .     A
C705   C742    1.411   .     A
C706   C736    1.411   .     A
C706   C237    1.515   1_556 S
C707   C709    1.432   .     S
C707   O777    1.285   .     A
C707   O779    1.285   .     A
C708   O780    1.286   .     A
C708   C710    1.432   .     S
C708   O778    1.284   .     A
C709   C866    1.334   1_455 S
C709   H901    1.087   1_455 S
C710   C787    1.334   .     S
C710   H834    1.087   .     S
C711   H764    1.084   .     S
C711   C722    1.405   .     A
C711   C713    1.396   .     A
C712   H765    1.084   .     S
C712   C723    1.402   .     A
C712   C715    1.396   .     A
C713   C716    1.409   .     A
C713   C724    1.477   .     S
C714   O776    1.296   .     A
C714   O774    1.291   .     A
C714   C717    1.468   .     S
C715   C731    1.483   .     S
C715   C717    1.419   .     A
C716   C718    1.397   .     A
C717   C719    1.403   .     A
C718   C720    1.388   .     A
C718   H766    1.084   .     S
C719   H767    1.083   .     S
C719   C721    1.388   .     A
C720   H768    1.083   .     S
C720   C722    1.403   .     A
C721   C723    1.401   .     A
C721   H769    1.083   .     S
C723   C488    1.470   1_565 S
C724   C726    1.404   .     A
C724   C730    1.404   .     A
C725   H770    1.082   .     S
C725   C738    1.407   .     A
C726   H753    1.083   .     S
C726   C805    1.399   .     S
C727   C728    1.399   .     A
C727   H754    1.083   .     S
C727   C882    1.399   1_455 S
C728   H755    1.081   .     S
C728   C885    1.398   1_455 S
C729   H757    1.082   .     S
C729   C730    1.398   .     A
C729   C806    1.398   .     S
C730   H758    1.083   .     S
C731   C732    1.405   .     A
C731   C737    1.406   .     A
C732   C733    1.399   .     A
C732   H759    1.083   .     S
C733   H760    1.082   .     S
C733   C734    1.398   .     A
C734   C735    1.398   .     A
C734   H761    1.082   .     S
C735   C737    1.398   .     A
C735   H762    1.083   .     S
C736   C739    1.407   .     A
C736   H746    1.082   .     S
C737   H763    1.083   .     S
C738   H747    1.081   .     S
C738   N771    1.364   .     A
C739   N772    1.364   .     A
C739   H748    1.081   .     S
C740   N771    1.364   .     A
C740   H749    1.081   .     S
C740   C742    1.407   .     A
C741   N772    1.364   .     A
C741   H750    1.081   .     S
C742   H751    1.082   .     S
Cu743  Cu744   2.673   .     S
Cu743  O776    1.955   .     S
Cu743  O773    1.955   .     S
Cu743  O780    1.957   .     S
Cu743  O777    1.955   .     S
Cu743  N772    2.008   .     S
Cu744  N771    2.008   .     S
Cu744  O774    1.955   .     S
Cu744  O775    1.955   .     S
Cu744  O778    1.955   .     S
Cu744  O779    1.957   .     S
H745   C787    1.087   .     S
H756   C866    1.087   1_455 S
C781   O851    1.288   .     A
C781   O853    1.290   .     A
C781   C794    1.450   .     S
C782   H830    1.082   .     S
C782   C819    1.407   .     A
C782   C784    1.410   .     A
C783   C803    1.411   .     A
C783   C820    1.411   .     A
C784   C814    1.411   .     A
C784   C315    1.515   1_556 S
C785   C787    1.432   .     S
C785   O855    1.285   .     A
C785   O857    1.285   .     A
C786   O858    1.286   .     A
C786   C788    1.432   .     S
C786   O856    1.284   .     A
C788   C865    1.334   .     S
C788   H912    1.087   .     S
C789   H842    1.084   .     S
C789   C800    1.405   .     A
C789   C791    1.396   .     A
C790   H843    1.084   .     S
C790   C801    1.402   .     A
C790   C793    1.396   .     A
C791   C794    1.409   .     A
C791   C802    1.477   .     S
C792   O854    1.296   .     A
C792   O852    1.291   .     A
C792   C795    1.468   .     S
C793   C809    1.483   .     S
C793   C795    1.419   .     A
C794   C796    1.397   .     A
C795   C797    1.403   .     A
C796   C798    1.388   .     A
C796   H844    1.084   .     S
C797   H845    1.083   .     S
C797   C799    1.388   .     A
C798   H846    1.083   .     S
C798   C800    1.403   .     A
C799   C801    1.401   .     A
C799   H847    1.083   .     S
C801   C566    1.470   1_565 S
C802   C804    1.404   .     A
C802   C808    1.404   .     A
C803   H848    1.082   .     S
C803   C816    1.407   .     A
C804   H831    1.083   .     S
C804   C883    1.399   .     S
C805   C806    1.399   .     A
C805   H832    1.083   .     S
C806   H833    1.081   .     S
C807   H835    1.082   .     S
C807   C808    1.398   .     A
C807   C884    1.398   .     S
C808   H836    1.083   .     S
C809   C810    1.405   .     A
C809   C815    1.406   .     A
C810   C811    1.399   .     A
C810   H837    1.083   .     S
C811   H838    1.082   .     S
C811   C812    1.398   .     A
C812   C813    1.398   .     A
C812   H839    1.082   .     S
C813   C815    1.398   .     A
C813   H840    1.083   .     S
C814   C817    1.407   .     A
C814   H824    1.082   .     S
C815   H841    1.083   .     S
C816   H825    1.081   .     S
C816   N849    1.364   .     A
C817   N850    1.364   .     A
C817   H826    1.081   .     S
C818   N849    1.364   .     A
C818   H827    1.081   .     S
C818   C820    1.407   .     A
C819   N850    1.364   .     A
C819   H828    1.081   .     S
C820   H829    1.082   .     S
Cu821  Cu822   2.673   .     S
Cu821  O854    1.955   .     S
Cu821  O851    1.955   .     S
Cu821  O858    1.957   .     S
Cu821  O855    1.955   .     S
Cu821  N850    2.008   .     S
Cu822  N849    2.008   .     S
Cu822  O852    1.955   .     S
Cu822  O853    1.955   .     S
Cu822  O856    1.955   .     S
Cu822  O857    1.957   .     S
H823   C865    1.087   .     S
C859   O929    1.288   .     A
C859   O931    1.290   .     A
C859   C872    1.450   .     S
C860   H908    1.082   .     S
C860   C897    1.407   .     A
C860   C862    1.410   .     A
C861   C881    1.411   .     A
C861   C898    1.411   .     A
C862   C892    1.411   .     A
C862   C393    1.515   1_556 S
C863   C865    1.432   .     S
C863   O933    1.285   .     A
C863   O935    1.285   .     A
C864   O936    1.286   .     A
C864   C866    1.432   .     S
C864   O934    1.284   .     A
C866   C709    1.334   1_655 S
C866   H756    1.087   1_655 S
C867   H920    1.084   .     S
C867   C878    1.405   .     A
C867   C869    1.396   .     A
C868   H921    1.084   .     S
C868   C879    1.402   .     A
C868   C871    1.396   .     A
C869   C872    1.409   .     A
C869   C880    1.477   .     S
C870   O932    1.296   .     A
C870   O930    1.291   .     A
C870   C873    1.468   .     S
C871   C887    1.483   .     S
C871   C873    1.419   .     A
C872   C874    1.397   .     A
C873   C875    1.403   .     A
C874   C876    1.388   .     A
C874   H922    1.084   .     S
C875   H923    1.083   .     S
C875   C877    1.388   .     A
C876   H924    1.083   .     S
C876   C878    1.403   .     A
C877   C879    1.401   .     A
C877   H925    1.083   .     S
C879   C644    1.470   1_565 S
C880   C882    1.404   .     A
C880   C886    1.404   .     A
C881   H926    1.082   .     S
C881   C894    1.407   .     A
C882   H909    1.083   .     S
C882   C727    1.399   1_655 S
C883   C884    1.399   .     A
C883   H910    1.083   .     S
C884   H911    1.081   .     S
C885   H913    1.082   .     S
C885   C886    1.398   .     A
C885   C728    1.398   1_655 S
C886   H914    1.083   .     S
C887   C888    1.405   .     A
C887   C893    1.406   .     A
C888   C889    1.399   .     A
C888   H915    1.083   .     S
C889   H916    1.082   .     S
C889   C890    1.398   .     A
C890   C891    1.398   .     A
C890   H917    1.082   .     S
C891   C893    1.398   .     A
C891   H918    1.083   .     S
C892   C895    1.407   .     A
C892   H902    1.082   .     S
C893   H919    1.083   .     S
C894   H903    1.081   .     S
C894   N927    1.364   .     A
C895   N928    1.364   .     A
C895   H904    1.081   .     S
C896   N927    1.364   .     A
C896   H905    1.081   .     S
C896   C898    1.407   .     A
C897   N928    1.364   .     A
C897   H906    1.081   .     S
C898   H907    1.082   .     S
Cu899  Cu900   2.673   .     S
Cu899  O932    1.955   .     S
Cu899  O929    1.955   .     S
Cu899  O936    1.957   .     S
Cu899  O933    1.955   .     S
Cu899  N928    2.008   .     S
Cu900  N927    2.008   .     S
Cu900  O930    1.955   .     S
Cu900  O931    1.955   .     S
Cu900  O934    1.955   .     S
Cu900  O935    1.957   .     S
H901   C709    1.087   1_655 S
