data_str_m2_o2_o10_pcu_sym.112
_audit_creation_date              2020-01-03
_audit_creation_method            'Materials Studio'
_symmetry_space_group_name_H-M    'P1'
_symmetry_Int_Tables_number       1
_symmetry_cell_setting            triclinic
loop_
_symmetry_equiv_pos_as_xyz
  x,y,z
_cell_length_a                    26.2185
_cell_length_b                    30.2210
_cell_length_c                    28.0088
_cell_angle_alpha                 90.8294
_cell_angle_beta                  98.1309
_cell_angle_gamma                 92.6631
loop_
_atom_site_label
_atom_site_type_symbol
_atom_site_fract_x
_atom_site_fract_y
_atom_site_fract_z
_atom_site_U_iso_or_equiv
_atom_site_adp_type
_atom_site_occupancy
C1     C     0.16748   0.16491   0.24986   0.00000  Uiso   1.00
C2     C     0.17912   0.28412   0.45118   0.00000  Uiso   1.00
C3     C     0.17406   0.24467   0.02814   0.00000  Uiso   1.00
C4     C     0.17126   0.24426   0.47345   0.00000  Uiso   1.00
C5     C     0.06798   0.24984   0.23758   0.00000  Uiso   1.00
C6     C     0.26535   0.25006   0.26242   0.00000  Uiso   1.00
C7     C     0.01260   0.24955   0.23083   0.00000  Uiso   1.00
C8     C     0.32073   0.25021   0.26915   0.00000  Uiso   1.00
C9     C     0.17327   0.04683   0.29160   0.00000  Uiso   1.00
C10    C     0.13064   0.45022   0.21787   0.00000  Uiso   1.00
C11    C     0.17354   0.09276   0.29279   0.00000  Uiso   1.00
C12    C     0.16639   0.33478   0.25015   0.00000  Uiso   1.00
C13    C     0.12928   0.40415   0.21881   0.00000  Uiso   1.00
C14    C     0.16904   0.11633   0.24947   0.00000  Uiso   1.00
C15    C     0.16640   0.38279   0.25008   0.00000  Uiso   1.00
C16    C     0.16635   0.09291   0.20541   0.00000  Uiso   1.00
C17    C     0.20533   0.40753   0.27941   0.00000  Uiso   1.00
C18    C     0.16669   0.04686   0.20438   0.00000  Uiso   1.00
C19    C     0.20723   0.45348   0.27809   0.00000  Uiso   1.00
C20    C     0.16986   0.02361   0.24760   0.00000  Uiso   1.00
C21    C     0.16959   0.47512   0.24748   0.00000  Uiso   1.00
C22    C     0.26438   0.28412   0.04543   0.00000  Uiso   1.00
C23    C     0.21495   0.26485   0.06155   0.00000  Uiso   1.00
C24    C     0.29206   0.25033   0.01812   0.00000  Uiso   1.00
C25    C     0.00786   0.27129   0.00296   0.00000  Uiso   1.00
C26    C     0.15346   0.15992   0.46231   0.00000  Uiso   1.00
C27    C     0.20568   0.14571   0.48791   0.00000  Uiso   1.00
C28    C     0.20182   0.09827   0.00543   0.00000  Uiso   1.00
C29    C     0.07404   0.21341   0.10767   0.00000  Uiso   1.00
C30    C     0.07341   0.16829   0.13229   0.00000  Uiso   1.00
C31    C     0.02025   0.14421   0.12231   0.00000  Uiso   1.00
C32    C     0.20822   0.32971   0.38750   0.00000  Uiso   1.00
C33    C     0.26223   0.32405   0.37313   0.00000  Uiso   1.00
C34    C     0.15785   0.20640   0.44261   0.00000  Uiso   1.00
C35    C     0.30054   0.36207   0.39233   0.00000  Uiso   1.00
C36    C     0.20919   0.26799   0.11162   0.00000  Uiso   1.00
C37    C     0.15045   0.21185   0.39153   0.00000  Uiso   1.00
C38    C     0.12681   0.23036   0.09631   0.00000  Uiso   1.00
C39    C     0.18296   0.28625   0.40157   0.00000  Uiso   1.00
C40    C     0.13097   0.22849   0.04674   0.00000  Uiso   1.00
Cu41   Cu    0.16667   0.24999   0.29821   0.00000  Uiso   1.00
Cu42   Cu    0.16667   0.25000   0.20178   0.00000  Uiso   1.00
F43    F     0.17908   0.11366   0.33649   0.00000  Uiso   1.00
F44    F     0.09134   0.38045   0.18999   0.00000  Uiso   1.00
F45    F     0.16501   0.02515   0.16136   0.00000  Uiso   1.00
F46    F     0.24644   0.47672   0.30580   0.00000  Uiso   1.00
F47    F     0.24589   0.29108   0.14225   0.00000  Uiso   1.00
F48    F     0.12526   0.17880   0.36327   0.00000  Uiso   1.00
H49    H     0.32584   0.24872   0.19410   0.00000  Uiso   1.00
H50    H     0.03562   0.28222   0.03508   0.00000  Uiso   1.00
H51    H     0.02581   0.24685   0.48143   0.00000  Uiso   1.00
H52    H     0.30113   0.22153   0.04132   0.00000  Uiso   1.00
H53    H     0.26769   0.23772   0.48486   0.00000  Uiso   1.00
H54    H     0.25617   0.31354   0.02309   0.00000  Uiso   1.00
H55    H     0.29211   0.29649   0.07699   0.00000  Uiso   1.00
H56    H     0.17345   0.09531   0.03131   0.00000  Uiso   1.00
H57    H     0.18979   0.07492   0.47447   0.00000  Uiso   1.00
H58    H     0.24004   0.08912   0.02398   0.00000  Uiso   1.00
H59    H     0.23477   0.14802   0.46265   0.00000  Uiso   1.00
H60    H     0.00751   0.25094   0.30589   0.00000  Uiso   1.00
H61    H     0.21932   0.16773   0.01961   0.00000  Uiso   1.00
H62    H     0.12408   0.15731   0.48694   0.00000  Uiso   1.00
H63    H     0.14019   0.13547   0.43265   0.00000  Uiso   1.00
H64    H     0.32386   0.16511   0.13439   0.00000  Uiso   1.00
H65    H     0.00987   0.13627   0.08318   0.00000  Uiso   1.00
H66    H     0.02075   0.11273   0.14230   0.00000  Uiso   1.00
H67    H     0.10207   0.14701   0.11902   0.00000  Uiso   1.00
H68    H     0.08217   0.17257   0.17172   0.00000  Uiso   1.00
H69    H     0.05348   0.23915   0.12438   0.00000  Uiso   1.00
H70    H     0.04784   0.20801   0.07333   0.00000  Uiso   1.00
H71    H     0.17559   0.02928   0.32524   0.00000  Uiso   1.00
H72    H     0.28624   0.39432   0.37914   0.00000  Uiso   1.00
H73    H     0.30635   0.36310   0.43237   0.00000  Uiso   1.00
H74    H     0.00494   0.35715   0.37984   0.00000  Uiso   1.00
H75    H     0.27823   0.29255   0.38714   0.00000  Uiso   1.00
H76    H     0.25971   0.32336   0.33342   0.00000  Uiso   1.00
H77    H     0.18247   0.34861   0.36185   0.00000  Uiso   1.00
H78    H     0.21337   0.35337   0.41881   0.00000  Uiso   1.00
H79    H     0.10100   0.46648   0.19454   0.00000  Uiso   1.00
H80    H     0.16433   0.11012   0.17167   0.00000  Uiso   1.00
H81    H     0.23515   0.39127   0.30214   0.00000  Uiso   1.00
H82    H     0.09870   0.21569   0.02128   0.00000  Uiso   1.00
H83    H     0.18470   0.31392   0.47350   0.00000  Uiso   1.00
H84    H     0.33199   0.30030   0.48008   0.00000  Uiso   1.00
N85    N     0.16667   0.25001   0.12934   0.00000  Uiso   1.00
N86    N     0.16667   0.24999   0.37065   0.00000  Uiso   1.00
O87    O     0.16667   0.18572   0.29071   0.00000  Uiso   1.00
O88    O     0.16666   0.31427   0.20928   0.00000  Uiso   1.00
O89    O     0.16667   0.18573   0.20928   0.00000  Uiso   1.00
O90    O     0.16666   0.31427   0.29072   0.00000  Uiso   1.00
O91    O     0.09161   0.24999   0.28132   0.00000  Uiso   1.00
O92    O     0.24172   0.25000   0.21868   0.00000  Uiso   1.00
O93    O     0.09161   0.25000   0.19988   0.00000  Uiso   1.00
O94    O     0.24172   0.25000   0.30011   0.00000  Uiso   1.00
C95    C     0.50082   0.16491   0.24986   0.00000  Uiso   1.00
C96    C     0.51245   0.28412   0.45118   0.00000  Uiso   1.00
C97    C     0.50739   0.24467   0.02814   0.00000  Uiso   1.00
C98    C     0.50459   0.24426   0.47345   0.00000  Uiso   1.00
C99    C     0.40131   0.24984   0.23758   0.00000  Uiso   1.00
C100   C     0.59868   0.25006   0.26242   0.00000  Uiso   1.00
C101   C     0.34593   0.24955   0.23083   0.00000  Uiso   1.00
C102   C     0.65407   0.25021   0.26915   0.00000  Uiso   1.00
C103   C     0.50660   0.04683   0.29160   0.00000  Uiso   1.00
C104   C     0.46398   0.45022   0.21787   0.00000  Uiso   1.00
C105   C     0.50687   0.09276   0.29279   0.00000  Uiso   1.00
C106   C     0.49972   0.33478   0.25015   0.00000  Uiso   1.00
C107   C     0.46261   0.40415   0.21881   0.00000  Uiso   1.00
C108   C     0.50238   0.11633   0.24947   0.00000  Uiso   1.00
C109   C     0.49973   0.38279   0.25008   0.00000  Uiso   1.00
C110   C     0.49968   0.09291   0.20541   0.00000  Uiso   1.00
C111   C     0.53866   0.40753   0.27941   0.00000  Uiso   1.00
C112   C     0.50002   0.04686   0.20438   0.00000  Uiso   1.00
C113   C     0.54057   0.45348   0.27809   0.00000  Uiso   1.00
C114   C     0.50319   0.02361   0.24760   0.00000  Uiso   1.00
C115   C     0.50292   0.47512   0.24748   0.00000  Uiso   1.00
C116   C     0.59771   0.28412   0.04543   0.00000  Uiso   1.00
C117   C     0.54828   0.26485   0.06155   0.00000  Uiso   1.00
C118   C     0.62539   0.25033   0.01812   0.00000  Uiso   1.00
C119   C     0.34119   0.27129   0.00296   0.00000  Uiso   1.00
C120   C     0.48679   0.15992   0.46231   0.00000  Uiso   1.00
C121   C     0.53901   0.14571   0.48791   0.00000  Uiso   1.00
C122   C     0.53515   0.09827   0.00543   0.00000  Uiso   1.00
C123   C     0.40738   0.21341   0.10767   0.00000  Uiso   1.00
C124   C     0.40674   0.16829   0.13229   0.00000  Uiso   1.00
C125   C     0.35358   0.14421   0.12231   0.00000  Uiso   1.00
C126   C     0.54155   0.32971   0.38750   0.00000  Uiso   1.00
C127   C     0.59556   0.32405   0.37313   0.00000  Uiso   1.00
C128   C     0.49119   0.20640   0.44261   0.00000  Uiso   1.00
C129   C     0.63387   0.36207   0.39233   0.00000  Uiso   1.00
C130   C     0.54252   0.26799   0.11162   0.00000  Uiso   1.00
C131   C     0.48378   0.21185   0.39153   0.00000  Uiso   1.00
C132   C     0.46014   0.23036   0.09631   0.00000  Uiso   1.00
C133   C     0.51629   0.28625   0.40157   0.00000  Uiso   1.00
C134   C     0.46431   0.22849   0.04674   0.00000  Uiso   1.00
Cu135  Cu    0.50000   0.24999   0.29821   0.00000  Uiso   1.00
Cu136  Cu    0.50000   0.25000   0.20178   0.00000  Uiso   1.00
F137   F     0.51241   0.11366   0.33649   0.00000  Uiso   1.00
F138   F     0.42467   0.38045   0.18999   0.00000  Uiso   1.00
F139   F     0.49834   0.02515   0.16136   0.00000  Uiso   1.00
F140   F     0.57977   0.47672   0.30580   0.00000  Uiso   1.00
F141   F     0.57923   0.29108   0.14225   0.00000  Uiso   1.00
F142   F     0.45860   0.17880   0.36327   0.00000  Uiso   1.00
H143   H     0.65918   0.24872   0.19410   0.00000  Uiso   1.00
H144   H     0.36895   0.28222   0.03508   0.00000  Uiso   1.00
H145   H     0.35914   0.24685   0.48143   0.00000  Uiso   1.00
H146   H     0.63446   0.22153   0.04132   0.00000  Uiso   1.00
H147   H     0.60103   0.23772   0.48486   0.00000  Uiso   1.00
H148   H     0.58950   0.31354   0.02309   0.00000  Uiso   1.00
H149   H     0.62544   0.29649   0.07699   0.00000  Uiso   1.00
H150   H     0.50678   0.09531   0.03131   0.00000  Uiso   1.00
H151   H     0.52313   0.07492   0.47447   0.00000  Uiso   1.00
H152   H     0.57337   0.08912   0.02398   0.00000  Uiso   1.00
H153   H     0.56811   0.14802   0.46265   0.00000  Uiso   1.00
H154   H     0.34084   0.25094   0.30589   0.00000  Uiso   1.00
H155   H     0.55265   0.16773   0.01961   0.00000  Uiso   1.00
H156   H     0.45741   0.15731   0.48694   0.00000  Uiso   1.00
H157   H     0.47352   0.13547   0.43265   0.00000  Uiso   1.00
H158   H     0.65719   0.16511   0.13439   0.00000  Uiso   1.00
H159   H     0.34320   0.13627   0.08318   0.00000  Uiso   1.00
H160   H     0.35408   0.11273   0.14230   0.00000  Uiso   1.00
H161   H     0.43540   0.14701   0.11902   0.00000  Uiso   1.00
H162   H     0.41551   0.17257   0.17172   0.00000  Uiso   1.00
H163   H     0.38681   0.23915   0.12438   0.00000  Uiso   1.00
H164   H     0.38117   0.20801   0.07333   0.00000  Uiso   1.00
H165   H     0.50893   0.02928   0.32524   0.00000  Uiso   1.00
H166   H     0.61957   0.39432   0.37914   0.00000  Uiso   1.00
H167   H     0.63968   0.36310   0.43237   0.00000  Uiso   1.00
H168   H     0.33827   0.35715   0.37984   0.00000  Uiso   1.00
H169   H     0.61156   0.29255   0.38714   0.00000  Uiso   1.00
H170   H     0.59305   0.32336   0.33342   0.00000  Uiso   1.00
H171   H     0.51580   0.34861   0.36185   0.00000  Uiso   1.00
H172   H     0.54671   0.35337   0.41881   0.00000  Uiso   1.00
H173   H     0.43434   0.46648   0.19454   0.00000  Uiso   1.00
H174   H     0.49766   0.11012   0.17167   0.00000  Uiso   1.00
H175   H     0.56848   0.39127   0.30214   0.00000  Uiso   1.00
H176   H     0.43204   0.21569   0.02128   0.00000  Uiso   1.00
H177   H     0.51803   0.31392   0.47350   0.00000  Uiso   1.00
H178   H     0.66533   0.30030   0.48008   0.00000  Uiso   1.00
N179   N     0.50000   0.25001   0.12934   0.00000  Uiso   1.00
N180   N     0.50000   0.24999   0.37065   0.00000  Uiso   1.00
O181   O     0.50000   0.18572   0.29071   0.00000  Uiso   1.00
O182   O     0.50000   0.31427   0.20928   0.00000  Uiso   1.00
O183   O     0.50000   0.18573   0.20928   0.00000  Uiso   1.00
O184   O     0.50000   0.31427   0.29072   0.00000  Uiso   1.00
O185   O     0.42495   0.24999   0.28132   0.00000  Uiso   1.00
O186   O     0.57505   0.25000   0.21868   0.00000  Uiso   1.00
O187   O     0.42495   0.25000   0.19988   0.00000  Uiso   1.00
O188   O     0.57505   0.25000   0.30011   0.00000  Uiso   1.00
C189   C     0.83415   0.16491   0.24986   0.00000  Uiso   1.00
C190   C     0.84578   0.28412   0.45118   0.00000  Uiso   1.00
C191   C     0.84072   0.24467   0.02814   0.00000  Uiso   1.00
C192   C     0.83793   0.24426   0.47345   0.00000  Uiso   1.00
C193   C     0.73465   0.24984   0.23758   0.00000  Uiso   1.00
C194   C     0.93202   0.25006   0.26242   0.00000  Uiso   1.00
C195   C     0.67927   0.24955   0.23083   0.00000  Uiso   1.00
C196   C     0.98740   0.25021   0.26915   0.00000  Uiso   1.00
C197   C     0.83994   0.04683   0.29160   0.00000  Uiso   1.00
C198   C     0.79731   0.45022   0.21787   0.00000  Uiso   1.00
C199   C     0.84021   0.09276   0.29279   0.00000  Uiso   1.00
C200   C     0.83306   0.33478   0.25015   0.00000  Uiso   1.00
C201   C     0.79594   0.40415   0.21881   0.00000  Uiso   1.00
C202   C     0.83571   0.11633   0.24947   0.00000  Uiso   1.00
C203   C     0.83307   0.38279   0.25008   0.00000  Uiso   1.00
C204   C     0.83302   0.09291   0.20541   0.00000  Uiso   1.00
C205   C     0.87200   0.40753   0.27941   0.00000  Uiso   1.00
C206   C     0.83336   0.04686   0.20438   0.00000  Uiso   1.00
C207   C     0.87390   0.45348   0.27809   0.00000  Uiso   1.00
C208   C     0.83652   0.02361   0.24760   0.00000  Uiso   1.00
C209   C     0.83625   0.47512   0.24748   0.00000  Uiso   1.00
C210   C     0.93104   0.28412   0.04543   0.00000  Uiso   1.00
C211   C     0.88161   0.26485   0.06155   0.00000  Uiso   1.00
C212   C     0.95873   0.25033   0.01812   0.00000  Uiso   1.00
C213   C     0.67452   0.27129   0.00296   0.00000  Uiso   1.00
C214   C     0.82013   0.15992   0.46231   0.00000  Uiso   1.00
C215   C     0.87234   0.14571   0.48791   0.00000  Uiso   1.00
C216   C     0.86848   0.09827   0.00543   0.00000  Uiso   1.00
C217   C     0.74071   0.21341   0.10767   0.00000  Uiso   1.00
C218   C     0.74007   0.16829   0.13229   0.00000  Uiso   1.00
C219   C     0.68692   0.14421   0.12231   0.00000  Uiso   1.00
C220   C     0.87489   0.32971   0.38750   0.00000  Uiso   1.00
C221   C     0.92889   0.32405   0.37313   0.00000  Uiso   1.00
C222   C     0.82452   0.20640   0.44261   0.00000  Uiso   1.00
C223   C     0.96720   0.36207   0.39233   0.00000  Uiso   1.00
C224   C     0.87586   0.26799   0.11162   0.00000  Uiso   1.00
C225   C     0.81712   0.21185   0.39153   0.00000  Uiso   1.00
C226   C     0.79348   0.23036   0.09631   0.00000  Uiso   1.00
C227   C     0.84962   0.28625   0.40157   0.00000  Uiso   1.00
C228   C     0.79764   0.22849   0.04674   0.00000  Uiso   1.00
Cu229  Cu    0.83333   0.24999   0.29821   0.00000  Uiso   1.00
Cu230  Cu    0.83333   0.25000   0.20178   0.00000  Uiso   1.00
F231   F     0.84574   0.11366   0.33649   0.00000  Uiso   1.00
F232   F     0.75801   0.38045   0.18999   0.00000  Uiso   1.00
F233   F     0.83167   0.02515   0.16136   0.00000  Uiso   1.00
F234   F     0.91311   0.47672   0.30580   0.00000  Uiso   1.00
F235   F     0.91256   0.29108   0.14225   0.00000  Uiso   1.00
F236   F     0.79193   0.17880   0.36327   0.00000  Uiso   1.00
H237   H     0.99251   0.24872   0.19410   0.00000  Uiso   1.00
H238   H     0.70229   0.28222   0.03508   0.00000  Uiso   1.00
H239   H     0.69248   0.24685   0.48143   0.00000  Uiso   1.00
H240   H     0.96780   0.22153   0.04132   0.00000  Uiso   1.00
H241   H     0.93436   0.23772   0.48486   0.00000  Uiso   1.00
H242   H     0.92283   0.31354   0.02309   0.00000  Uiso   1.00
H243   H     0.95877   0.29649   0.07699   0.00000  Uiso   1.00
H244   H     0.84011   0.09531   0.03131   0.00000  Uiso   1.00
H245   H     0.85646   0.07492   0.47447   0.00000  Uiso   1.00
H246   H     0.90671   0.08912   0.02398   0.00000  Uiso   1.00
H247   H     0.90144   0.14802   0.46265   0.00000  Uiso   1.00
H248   H     0.67418   0.25094   0.30589   0.00000  Uiso   1.00
H249   H     0.88599   0.16773   0.01961   0.00000  Uiso   1.00
H250   H     0.79075   0.15731   0.48694   0.00000  Uiso   1.00
H251   H     0.80685   0.13547   0.43265   0.00000  Uiso   1.00
H252   H     0.99052   0.16511   0.13439   0.00000  Uiso   1.00
H253   H     0.67654   0.13627   0.08318   0.00000  Uiso   1.00
H254   H     0.68742   0.11273   0.14230   0.00000  Uiso   1.00
H255   H     0.76874   0.14701   0.11902   0.00000  Uiso   1.00
H256   H     0.74884   0.17257   0.17172   0.00000  Uiso   1.00
H257   H     0.72015   0.23915   0.12438   0.00000  Uiso   1.00
H258   H     0.71451   0.20801   0.07333   0.00000  Uiso   1.00
H259   H     0.84226   0.02928   0.32524   0.00000  Uiso   1.00
H260   H     0.95290   0.39432   0.37914   0.00000  Uiso   1.00
H261   H     0.97302   0.36310   0.43237   0.00000  Uiso   1.00
H262   H     0.67160   0.35715   0.37984   0.00000  Uiso   1.00
H263   H     0.94490   0.29255   0.38714   0.00000  Uiso   1.00
H264   H     0.92638   0.32336   0.33342   0.00000  Uiso   1.00
H265   H     0.84913   0.34861   0.36185   0.00000  Uiso   1.00
H266   H     0.88004   0.35337   0.41881   0.00000  Uiso   1.00
H267   H     0.76767   0.46648   0.19454   0.00000  Uiso   1.00
H268   H     0.83100   0.11012   0.17167   0.00000  Uiso   1.00
H269   H     0.90182   0.39127   0.30214   0.00000  Uiso   1.00
H270   H     0.76537   0.21569   0.02128   0.00000  Uiso   1.00
H271   H     0.85137   0.31392   0.47350   0.00000  Uiso   1.00
H272   H     0.99866   0.30030   0.48008   0.00000  Uiso   1.00
N273   N     0.83333   0.25001   0.12934   0.00000  Uiso   1.00
N274   N     0.83333   0.24999   0.37065   0.00000  Uiso   1.00
O275   O     0.83334   0.18572   0.29071   0.00000  Uiso   1.00
O276   O     0.83333   0.31427   0.20928   0.00000  Uiso   1.00
O277   O     0.83334   0.18573   0.20928   0.00000  Uiso   1.00
O278   O     0.83333   0.31427   0.29072   0.00000  Uiso   1.00
O279   O     0.75828   0.24999   0.28132   0.00000  Uiso   1.00
O280   O     0.90839   0.25000   0.21868   0.00000  Uiso   1.00
O281   O     0.75828   0.25000   0.19988   0.00000  Uiso   1.00
O282   O     0.90839   0.25000   0.30011   0.00000  Uiso   1.00
C283   C     0.16748   0.66491   0.24986   0.00000  Uiso   1.00
C284   C     0.17912   0.78412   0.45118   0.00000  Uiso   1.00
C285   C     0.17406   0.74467   0.02814   0.00000  Uiso   1.00
C286   C     0.17126   0.74426   0.47345   0.00000  Uiso   1.00
C287   C     0.06798   0.74984   0.23758   0.00000  Uiso   1.00
C288   C     0.26535   0.75006   0.26242   0.00000  Uiso   1.00
C289   C     0.01260   0.74955   0.23083   0.00000  Uiso   1.00
C290   C     0.32073   0.75021   0.26915   0.00000  Uiso   1.00
C291   C     0.17327   0.54683   0.29160   0.00000  Uiso   1.00
C292   C     0.13064   0.95022   0.21787   0.00000  Uiso   1.00
C293   C     0.17354   0.59276   0.29279   0.00000  Uiso   1.00
C294   C     0.16639   0.83478   0.25015   0.00000  Uiso   1.00
C295   C     0.12928   0.90415   0.21881   0.00000  Uiso   1.00
C296   C     0.16904   0.61633   0.24947   0.00000  Uiso   1.00
C297   C     0.16640   0.88279   0.25008   0.00000  Uiso   1.00
C298   C     0.16635   0.59291   0.20541   0.00000  Uiso   1.00
C299   C     0.20533   0.90753   0.27941   0.00000  Uiso   1.00
C300   C     0.16669   0.54686   0.20438   0.00000  Uiso   1.00
C301   C     0.20723   0.95348   0.27809   0.00000  Uiso   1.00
C302   C     0.16986   0.52361   0.24760   0.00000  Uiso   1.00
C303   C     0.16959   0.97512   0.24748   0.00000  Uiso   1.00
C304   C     0.26438   0.78412   0.04543   0.00000  Uiso   1.00
C305   C     0.21495   0.76485   0.06155   0.00000  Uiso   1.00
C306   C     0.29206   0.75033   0.01812   0.00000  Uiso   1.00
C307   C     0.00786   0.77129   0.00296   0.00000  Uiso   1.00
C308   C     0.15346   0.65992   0.46231   0.00000  Uiso   1.00
C309   C     0.20568   0.64571   0.48791   0.00000  Uiso   1.00
C310   C     0.20182   0.59827   0.00543   0.00000  Uiso   1.00
C311   C     0.07404   0.71341   0.10767   0.00000  Uiso   1.00
C312   C     0.07341   0.66829   0.13229   0.00000  Uiso   1.00
C313   C     0.02025   0.64421   0.12231   0.00000  Uiso   1.00
C314   C     0.20822   0.82971   0.38750   0.00000  Uiso   1.00
C315   C     0.26223   0.82405   0.37313   0.00000  Uiso   1.00
C316   C     0.15785   0.70640   0.44261   0.00000  Uiso   1.00
C317   C     0.30054   0.86207   0.39233   0.00000  Uiso   1.00
C318   C     0.20919   0.76799   0.11162   0.00000  Uiso   1.00
C319   C     0.15045   0.71185   0.39153   0.00000  Uiso   1.00
C320   C     0.12681   0.73036   0.09631   0.00000  Uiso   1.00
C321   C     0.18296   0.78625   0.40157   0.00000  Uiso   1.00
C322   C     0.13097   0.72849   0.04674   0.00000  Uiso   1.00
Cu323  Cu    0.16667   0.74999   0.29821   0.00000  Uiso   1.00
Cu324  Cu    0.16667   0.75000   0.20178   0.00000  Uiso   1.00
F325   F     0.17908   0.61366   0.33649   0.00000  Uiso   1.00
F326   F     0.09134   0.88045   0.18999   0.00000  Uiso   1.00
F327   F     0.16501   0.52515   0.16136   0.00000  Uiso   1.00
F328   F     0.24644   0.97672   0.30580   0.00000  Uiso   1.00
F329   F     0.24589   0.79108   0.14225   0.00000  Uiso   1.00
F330   F     0.12526   0.67880   0.36327   0.00000  Uiso   1.00
H331   H     0.32584   0.74872   0.19410   0.00000  Uiso   1.00
H332   H     0.03562   0.78222   0.03508   0.00000  Uiso   1.00
H333   H     0.02581   0.74685   0.48143   0.00000  Uiso   1.00
H334   H     0.30113   0.72153   0.04132   0.00000  Uiso   1.00
H335   H     0.26769   0.73772   0.48486   0.00000  Uiso   1.00
H336   H     0.25617   0.81354   0.02309   0.00000  Uiso   1.00
H337   H     0.29211   0.79649   0.07699   0.00000  Uiso   1.00
H338   H     0.17345   0.59531   0.03131   0.00000  Uiso   1.00
H339   H     0.18979   0.57492   0.47447   0.00000  Uiso   1.00
H340   H     0.24004   0.58912   0.02398   0.00000  Uiso   1.00
H341   H     0.23477   0.64802   0.46265   0.00000  Uiso   1.00
H342   H     0.00751   0.75094   0.30589   0.00000  Uiso   1.00
H343   H     0.21932   0.66773   0.01961   0.00000  Uiso   1.00
H344   H     0.12408   0.65731   0.48694   0.00000  Uiso   1.00
H345   H     0.14019   0.63547   0.43265   0.00000  Uiso   1.00
H346   H     0.32386   0.66511   0.13439   0.00000  Uiso   1.00
H347   H     0.00987   0.63627   0.08318   0.00000  Uiso   1.00
H348   H     0.02075   0.61273   0.14230   0.00000  Uiso   1.00
H349   H     0.10207   0.64701   0.11902   0.00000  Uiso   1.00
H350   H     0.08217   0.67257   0.17172   0.00000  Uiso   1.00
H351   H     0.05348   0.73915   0.12438   0.00000  Uiso   1.00
H352   H     0.04784   0.70801   0.07333   0.00000  Uiso   1.00
H353   H     0.17559   0.52928   0.32524   0.00000  Uiso   1.00
H354   H     0.28624   0.89432   0.37914   0.00000  Uiso   1.00
H355   H     0.30635   0.86310   0.43237   0.00000  Uiso   1.00
H356   H     0.00494   0.85715   0.37984   0.00000  Uiso   1.00
H357   H     0.27823   0.79255   0.38714   0.00000  Uiso   1.00
H358   H     0.25971   0.82336   0.33342   0.00000  Uiso   1.00
H359   H     0.18247   0.84861   0.36185   0.00000  Uiso   1.00
H360   H     0.21337   0.85337   0.41881   0.00000  Uiso   1.00
H361   H     0.10100   0.96648   0.19454   0.00000  Uiso   1.00
H362   H     0.16433   0.61012   0.17167   0.00000  Uiso   1.00
H363   H     0.23515   0.89127   0.30214   0.00000  Uiso   1.00
H364   H     0.09870   0.71569   0.02128   0.00000  Uiso   1.00
H365   H     0.18470   0.81392   0.47350   0.00000  Uiso   1.00
H366   H     0.33199   0.80030   0.48008   0.00000  Uiso   1.00
N367   N     0.16667   0.75001   0.12934   0.00000  Uiso   1.00
N368   N     0.16667   0.74999   0.37065   0.00000  Uiso   1.00
O369   O     0.16667   0.68572   0.29071   0.00000  Uiso   1.00
O370   O     0.16666   0.81427   0.20928   0.00000  Uiso   1.00
O371   O     0.16667   0.68573   0.20928   0.00000  Uiso   1.00
O372   O     0.16666   0.81427   0.29072   0.00000  Uiso   1.00
O373   O     0.09161   0.74999   0.28132   0.00000  Uiso   1.00
O374   O     0.24172   0.75000   0.21868   0.00000  Uiso   1.00
O375   O     0.09161   0.75000   0.19988   0.00000  Uiso   1.00
O376   O     0.24172   0.75000   0.30011   0.00000  Uiso   1.00
C377   C     0.50082   0.66491   0.24986   0.00000  Uiso   1.00
C378   C     0.51245   0.78412   0.45118   0.00000  Uiso   1.00
C379   C     0.50739   0.74467   0.02814   0.00000  Uiso   1.00
C380   C     0.50459   0.74426   0.47345   0.00000  Uiso   1.00
C381   C     0.40131   0.74984   0.23758   0.00000  Uiso   1.00
C382   C     0.59868   0.75006   0.26242   0.00000  Uiso   1.00
C383   C     0.34593   0.74955   0.23083   0.00000  Uiso   1.00
C384   C     0.65407   0.75021   0.26915   0.00000  Uiso   1.00
C385   C     0.50660   0.54683   0.29160   0.00000  Uiso   1.00
C386   C     0.46398   0.95022   0.21787   0.00000  Uiso   1.00
C387   C     0.50687   0.59276   0.29279   0.00000  Uiso   1.00
C388   C     0.49972   0.83478   0.25015   0.00000  Uiso   1.00
C389   C     0.46261   0.90415   0.21881   0.00000  Uiso   1.00
C390   C     0.50238   0.61633   0.24947   0.00000  Uiso   1.00
C391   C     0.49973   0.88279   0.25008   0.00000  Uiso   1.00
C392   C     0.49968   0.59291   0.20541   0.00000  Uiso   1.00
C393   C     0.53866   0.90753   0.27941   0.00000  Uiso   1.00
C394   C     0.50002   0.54686   0.20438   0.00000  Uiso   1.00
C395   C     0.54057   0.95348   0.27809   0.00000  Uiso   1.00
C396   C     0.50319   0.52361   0.24760   0.00000  Uiso   1.00
C397   C     0.50292   0.97512   0.24748   0.00000  Uiso   1.00
C398   C     0.59771   0.78412   0.04543   0.00000  Uiso   1.00
C399   C     0.54828   0.76485   0.06155   0.00000  Uiso   1.00
C400   C     0.62539   0.75033   0.01812   0.00000  Uiso   1.00
C401   C     0.34119   0.77129   0.00296   0.00000  Uiso   1.00
C402   C     0.48679   0.65992   0.46231   0.00000  Uiso   1.00
C403   C     0.53901   0.64571   0.48791   0.00000  Uiso   1.00
C404   C     0.53515   0.59827   0.00543   0.00000  Uiso   1.00
C405   C     0.40738   0.71341   0.10767   0.00000  Uiso   1.00
C406   C     0.40674   0.66829   0.13229   0.00000  Uiso   1.00
C407   C     0.35358   0.64421   0.12231   0.00000  Uiso   1.00
C408   C     0.54155   0.82971   0.38750   0.00000  Uiso   1.00
C409   C     0.59556   0.82405   0.37313   0.00000  Uiso   1.00
C410   C     0.49119   0.70640   0.44261   0.00000  Uiso   1.00
C411   C     0.63387   0.86207   0.39233   0.00000  Uiso   1.00
C412   C     0.54252   0.76799   0.11162   0.00000  Uiso   1.00
C413   C     0.48378   0.71185   0.39153   0.00000  Uiso   1.00
C414   C     0.46014   0.73036   0.09631   0.00000  Uiso   1.00
C415   C     0.51629   0.78625   0.40157   0.00000  Uiso   1.00
C416   C     0.46431   0.72849   0.04674   0.00000  Uiso   1.00
Cu417  Cu    0.50000   0.74999   0.29821   0.00000  Uiso   1.00
Cu418  Cu    0.50000   0.75000   0.20178   0.00000  Uiso   1.00
F419   F     0.51241   0.61366   0.33649   0.00000  Uiso   1.00
F420   F     0.42467   0.88045   0.18999   0.00000  Uiso   1.00
F421   F     0.49834   0.52515   0.16136   0.00000  Uiso   1.00
F422   F     0.57977   0.97672   0.30580   0.00000  Uiso   1.00
F423   F     0.57923   0.79108   0.14225   0.00000  Uiso   1.00
F424   F     0.45860   0.67880   0.36327   0.00000  Uiso   1.00
H425   H     0.65918   0.74872   0.19410   0.00000  Uiso   1.00
H426   H     0.36895   0.78222   0.03508   0.00000  Uiso   1.00
H427   H     0.35914   0.74685   0.48143   0.00000  Uiso   1.00
H428   H     0.63446   0.72153   0.04132   0.00000  Uiso   1.00
H429   H     0.60103   0.73772   0.48486   0.00000  Uiso   1.00
H430   H     0.58950   0.81354   0.02309   0.00000  Uiso   1.00
H431   H     0.62544   0.79649   0.07699   0.00000  Uiso   1.00
H432   H     0.50678   0.59531   0.03131   0.00000  Uiso   1.00
H433   H     0.52313   0.57492   0.47447   0.00000  Uiso   1.00
H434   H     0.57337   0.58912   0.02398   0.00000  Uiso   1.00
H435   H     0.56811   0.64802   0.46265   0.00000  Uiso   1.00
H436   H     0.34084   0.75094   0.30589   0.00000  Uiso   1.00
H437   H     0.55265   0.66773   0.01961   0.00000  Uiso   1.00
H438   H     0.45741   0.65731   0.48694   0.00000  Uiso   1.00
H439   H     0.47352   0.63547   0.43265   0.00000  Uiso   1.00
H440   H     0.65719   0.66511   0.13439   0.00000  Uiso   1.00
H441   H     0.34320   0.63627   0.08318   0.00000  Uiso   1.00
H442   H     0.35408   0.61273   0.14230   0.00000  Uiso   1.00
H443   H     0.43540   0.64701   0.11902   0.00000  Uiso   1.00
H444   H     0.41551   0.67257   0.17172   0.00000  Uiso   1.00
H445   H     0.38681   0.73915   0.12438   0.00000  Uiso   1.00
H446   H     0.38117   0.70801   0.07333   0.00000  Uiso   1.00
H447   H     0.50893   0.52928   0.32524   0.00000  Uiso   1.00
H448   H     0.61957   0.89432   0.37914   0.00000  Uiso   1.00
H449   H     0.63968   0.86310   0.43237   0.00000  Uiso   1.00
H450   H     0.33827   0.85715   0.37984   0.00000  Uiso   1.00
H451   H     0.61156   0.79255   0.38714   0.00000  Uiso   1.00
H452   H     0.59305   0.82336   0.33342   0.00000  Uiso   1.00
H453   H     0.51580   0.84861   0.36185   0.00000  Uiso   1.00
H454   H     0.54671   0.85337   0.41881   0.00000  Uiso   1.00
H455   H     0.43434   0.96648   0.19454   0.00000  Uiso   1.00
H456   H     0.49766   0.61012   0.17167   0.00000  Uiso   1.00
H457   H     0.56848   0.89127   0.30214   0.00000  Uiso   1.00
H458   H     0.43204   0.71569   0.02128   0.00000  Uiso   1.00
H459   H     0.51803   0.81392   0.47350   0.00000  Uiso   1.00
H460   H     0.66533   0.80030   0.48008   0.00000  Uiso   1.00
N461   N     0.50000   0.75001   0.12934   0.00000  Uiso   1.00
N462   N     0.50000   0.74999   0.37065   0.00000  Uiso   1.00
O463   O     0.50000   0.68572   0.29071   0.00000  Uiso   1.00
O464   O     0.50000   0.81427   0.20928   0.00000  Uiso   1.00
O465   O     0.50000   0.68573   0.20928   0.00000  Uiso   1.00
O466   O     0.50000   0.81427   0.29072   0.00000  Uiso   1.00
O467   O     0.42495   0.74999   0.28132   0.00000  Uiso   1.00
O468   O     0.57505   0.75000   0.21868   0.00000  Uiso   1.00
O469   O     0.42495   0.75000   0.19988   0.00000  Uiso   1.00
O470   O     0.57505   0.75000   0.30011   0.00000  Uiso   1.00
C471   C     0.83415   0.66491   0.24986   0.00000  Uiso   1.00
C472   C     0.84578   0.78412   0.45118   0.00000  Uiso   1.00
C473   C     0.84072   0.74467   0.02814   0.00000  Uiso   1.00
C474   C     0.83793   0.74426   0.47345   0.00000  Uiso   1.00
C475   C     0.73465   0.74984   0.23758   0.00000  Uiso   1.00
C476   C     0.93202   0.75006   0.26242   0.00000  Uiso   1.00
C477   C     0.67927   0.74955   0.23083   0.00000  Uiso   1.00
C478   C     0.98740   0.75021   0.26915   0.00000  Uiso   1.00
C479   C     0.83994   0.54683   0.29160   0.00000  Uiso   1.00
C480   C     0.79731   0.95022   0.21787   0.00000  Uiso   1.00
C481   C     0.84021   0.59276   0.29279   0.00000  Uiso   1.00
C482   C     0.83306   0.83478   0.25015   0.00000  Uiso   1.00
C483   C     0.79594   0.90415   0.21881   0.00000  Uiso   1.00
C484   C     0.83571   0.61633   0.24947   0.00000  Uiso   1.00
C485   C     0.83307   0.88279   0.25008   0.00000  Uiso   1.00
C486   C     0.83302   0.59291   0.20541   0.00000  Uiso   1.00
C487   C     0.87200   0.90753   0.27941   0.00000  Uiso   1.00
C488   C     0.83336   0.54686   0.20438   0.00000  Uiso   1.00
C489   C     0.87390   0.95348   0.27809   0.00000  Uiso   1.00
C490   C     0.83652   0.52361   0.24760   0.00000  Uiso   1.00
C491   C     0.83625   0.97512   0.24748   0.00000  Uiso   1.00
C492   C     0.93104   0.78412   0.04543   0.00000  Uiso   1.00
C493   C     0.88161   0.76485   0.06155   0.00000  Uiso   1.00
C494   C     0.95873   0.75033   0.01812   0.00000  Uiso   1.00
C495   C     0.67452   0.77129   0.00296   0.00000  Uiso   1.00
C496   C     0.82013   0.65992   0.46231   0.00000  Uiso   1.00
C497   C     0.87234   0.64571   0.48791   0.00000  Uiso   1.00
C498   C     0.86848   0.59827   0.00543   0.00000  Uiso   1.00
C499   C     0.74071   0.71341   0.10767   0.00000  Uiso   1.00
C500   C     0.74007   0.66829   0.13229   0.00000  Uiso   1.00
C501   C     0.68692   0.64421   0.12231   0.00000  Uiso   1.00
C502   C     0.87489   0.82971   0.38750   0.00000  Uiso   1.00
C503   C     0.92889   0.82405   0.37313   0.00000  Uiso   1.00
C504   C     0.82452   0.70640   0.44261   0.00000  Uiso   1.00
C505   C     0.96720   0.86207   0.39233   0.00000  Uiso   1.00
C506   C     0.87586   0.76799   0.11162   0.00000  Uiso   1.00
C507   C     0.81712   0.71185   0.39153   0.00000  Uiso   1.00
C508   C     0.79348   0.73036   0.09631   0.00000  Uiso   1.00
C509   C     0.84962   0.78625   0.40157   0.00000  Uiso   1.00
C510   C     0.79764   0.72849   0.04674   0.00000  Uiso   1.00
Cu511  Cu    0.83333   0.74999   0.29821   0.00000  Uiso   1.00
Cu512  Cu    0.83333   0.75000   0.20178   0.00000  Uiso   1.00
F513   F     0.84574   0.61366   0.33649   0.00000  Uiso   1.00
F514   F     0.75801   0.88045   0.18999   0.00000  Uiso   1.00
F515   F     0.83167   0.52515   0.16136   0.00000  Uiso   1.00
F516   F     0.91311   0.97672   0.30580   0.00000  Uiso   1.00
F517   F     0.91256   0.79108   0.14225   0.00000  Uiso   1.00
F518   F     0.79193   0.67880   0.36327   0.00000  Uiso   1.00
H519   H     0.99251   0.74872   0.19410   0.00000  Uiso   1.00
H520   H     0.70229   0.78222   0.03508   0.00000  Uiso   1.00
H521   H     0.69248   0.74685   0.48143   0.00000  Uiso   1.00
H522   H     0.96780   0.72153   0.04132   0.00000  Uiso   1.00
H523   H     0.93436   0.73772   0.48486   0.00000  Uiso   1.00
H524   H     0.92283   0.81354   0.02309   0.00000  Uiso   1.00
H525   H     0.95877   0.79649   0.07699   0.00000  Uiso   1.00
H526   H     0.84011   0.59531   0.03131   0.00000  Uiso   1.00
H527   H     0.85646   0.57492   0.47447   0.00000  Uiso   1.00
H528   H     0.90671   0.58912   0.02398   0.00000  Uiso   1.00
H529   H     0.90144   0.64802   0.46265   0.00000  Uiso   1.00
H530   H     0.67418   0.75094   0.30589   0.00000  Uiso   1.00
H531   H     0.88599   0.66773   0.01961   0.00000  Uiso   1.00
H532   H     0.79075   0.65731   0.48694   0.00000  Uiso   1.00
H533   H     0.80685   0.63547   0.43265   0.00000  Uiso   1.00
H534   H     0.99052   0.66511   0.13439   0.00000  Uiso   1.00
H535   H     0.67654   0.63627   0.08318   0.00000  Uiso   1.00
H536   H     0.68742   0.61273   0.14230   0.00000  Uiso   1.00
H537   H     0.76874   0.64701   0.11902   0.00000  Uiso   1.00
H538   H     0.74884   0.67257   0.17172   0.00000  Uiso   1.00
H539   H     0.72015   0.73915   0.12438   0.00000  Uiso   1.00
H540   H     0.71451   0.70801   0.07333   0.00000  Uiso   1.00
H541   H     0.84226   0.52928   0.32524   0.00000  Uiso   1.00
H542   H     0.95290   0.89432   0.37914   0.00000  Uiso   1.00
H543   H     0.97302   0.86310   0.43237   0.00000  Uiso   1.00
H544   H     0.67160   0.85715   0.37984   0.00000  Uiso   1.00
H545   H     0.94490   0.79255   0.38714   0.00000  Uiso   1.00
H546   H     0.92638   0.82336   0.33342   0.00000  Uiso   1.00
H547   H     0.84913   0.84861   0.36185   0.00000  Uiso   1.00
H548   H     0.88004   0.85337   0.41881   0.00000  Uiso   1.00
H549   H     0.76767   0.96648   0.19454   0.00000  Uiso   1.00
H550   H     0.83100   0.61012   0.17167   0.00000  Uiso   1.00
H551   H     0.90182   0.89127   0.30214   0.00000  Uiso   1.00
H552   H     0.76537   0.71569   0.02128   0.00000  Uiso   1.00
H553   H     0.85137   0.81392   0.47350   0.00000  Uiso   1.00
H554   H     0.99866   0.80030   0.48008   0.00000  Uiso   1.00
N555   N     0.83333   0.75001   0.12934   0.00000  Uiso   1.00
N556   N     0.83333   0.74999   0.37065   0.00000  Uiso   1.00
O557   O     0.83334   0.68572   0.29071   0.00000  Uiso   1.00
O558   O     0.83333   0.81427   0.20928   0.00000  Uiso   1.00
O559   O     0.83334   0.68573   0.20928   0.00000  Uiso   1.00
O560   O     0.83333   0.81427   0.29072   0.00000  Uiso   1.00
O561   O     0.75828   0.74999   0.28132   0.00000  Uiso   1.00
O562   O     0.90839   0.75000   0.21868   0.00000  Uiso   1.00
O563   O     0.75828   0.75000   0.19988   0.00000  Uiso   1.00
O564   O     0.90839   0.75000   0.30011   0.00000  Uiso   1.00
C565   C     0.16748   0.16491   0.74986   0.00000  Uiso   1.00
C566   C     0.17912   0.28412   0.95118   0.00000  Uiso   1.00
C567   C     0.17406   0.24467   0.52814   0.00000  Uiso   1.00
C568   C     0.17126   0.24426   0.97345   0.00000  Uiso   1.00
C569   C     0.06798   0.24984   0.73758   0.00000  Uiso   1.00
C570   C     0.26535   0.25006   0.76242   0.00000  Uiso   1.00
C571   C     0.01260   0.24955   0.73083   0.00000  Uiso   1.00
C572   C     0.32073   0.25021   0.76915   0.00000  Uiso   1.00
C573   C     0.17327   0.04683   0.79160   0.00000  Uiso   1.00
C574   C     0.13064   0.45022   0.71787   0.00000  Uiso   1.00
C575   C     0.17354   0.09276   0.79279   0.00000  Uiso   1.00
C576   C     0.16639   0.33478   0.75015   0.00000  Uiso   1.00
C577   C     0.12928   0.40415   0.71881   0.00000  Uiso   1.00
C578   C     0.16904   0.11633   0.74947   0.00000  Uiso   1.00
C579   C     0.16640   0.38279   0.75008   0.00000  Uiso   1.00
C580   C     0.16635   0.09291   0.70541   0.00000  Uiso   1.00
C581   C     0.20533   0.40753   0.77941   0.00000  Uiso   1.00
C582   C     0.16669   0.04686   0.70438   0.00000  Uiso   1.00
C583   C     0.20723   0.45348   0.77809   0.00000  Uiso   1.00
C584   C     0.16986   0.02361   0.74760   0.00000  Uiso   1.00
C585   C     0.16959   0.47512   0.74748   0.00000  Uiso   1.00
C586   C     0.26438   0.28412   0.54543   0.00000  Uiso   1.00
C587   C     0.21495   0.26485   0.56155   0.00000  Uiso   1.00
C588   C     0.29206   0.25033   0.51812   0.00000  Uiso   1.00
C589   C     0.00786   0.27129   0.50296   0.00000  Uiso   1.00
C590   C     0.15346   0.15992   0.96231   0.00000  Uiso   1.00
C591   C     0.20568   0.14571   0.98791   0.00000  Uiso   1.00
C592   C     0.20182   0.09827   0.50543   0.00000  Uiso   1.00
C593   C     0.07404   0.21341   0.60767   0.00000  Uiso   1.00
C594   C     0.07341   0.16829   0.63229   0.00000  Uiso   1.00
C595   C     0.02025   0.14421   0.62231   0.00000  Uiso   1.00
C596   C     0.20822   0.32971   0.88750   0.00000  Uiso   1.00
C597   C     0.26223   0.32405   0.87313   0.00000  Uiso   1.00
C598   C     0.15785   0.20640   0.94261   0.00000  Uiso   1.00
C599   C     0.30054   0.36207   0.89233   0.00000  Uiso   1.00
C600   C     0.20919   0.26799   0.61162   0.00000  Uiso   1.00
C601   C     0.15045   0.21185   0.89153   0.00000  Uiso   1.00
C602   C     0.12681   0.23036   0.59631   0.00000  Uiso   1.00
C603   C     0.18296   0.28625   0.90157   0.00000  Uiso   1.00
C604   C     0.13097   0.22849   0.54674   0.00000  Uiso   1.00
Cu605  Cu    0.16667   0.24999   0.79821   0.00000  Uiso   1.00
Cu606  Cu    0.16667   0.25000   0.70178   0.00000  Uiso   1.00
F607   F     0.17908   0.11366   0.83649   0.00000  Uiso   1.00
F608   F     0.09134   0.38045   0.68999   0.00000  Uiso   1.00
F609   F     0.16501   0.02515   0.66136   0.00000  Uiso   1.00
F610   F     0.24644   0.47672   0.80580   0.00000  Uiso   1.00
F611   F     0.24589   0.29108   0.64225   0.00000  Uiso   1.00
F612   F     0.12526   0.17880   0.86327   0.00000  Uiso   1.00
H613   H     0.32584   0.24872   0.69410   0.00000  Uiso   1.00
H614   H     0.03562   0.28222   0.53508   0.00000  Uiso   1.00
H615   H     0.02581   0.24685   0.98143   0.00000  Uiso   1.00
H616   H     0.30113   0.22153   0.54132   0.00000  Uiso   1.00
H617   H     0.26769   0.23772   0.98486   0.00000  Uiso   1.00
H618   H     0.25617   0.31354   0.52309   0.00000  Uiso   1.00
H619   H     0.29211   0.29649   0.57699   0.00000  Uiso   1.00
H620   H     0.17345   0.09531   0.53131   0.00000  Uiso   1.00
H621   H     0.18979   0.07492   0.97447   0.00000  Uiso   1.00
H622   H     0.24004   0.08912   0.52398   0.00000  Uiso   1.00
H623   H     0.23477   0.14802   0.96265   0.00000  Uiso   1.00
H624   H     0.00751   0.25094   0.80589   0.00000  Uiso   1.00
H625   H     0.21932   0.16773   0.51961   0.00000  Uiso   1.00
H626   H     0.12408   0.15731   0.98694   0.00000  Uiso   1.00
H627   H     0.14019   0.13547   0.93265   0.00000  Uiso   1.00
H628   H     0.32386   0.16511   0.63439   0.00000  Uiso   1.00
H629   H     0.00987   0.13627   0.58318   0.00000  Uiso   1.00
H630   H     0.02075   0.11273   0.64230   0.00000  Uiso   1.00
H631   H     0.10207   0.14701   0.61902   0.00000  Uiso   1.00
H632   H     0.08217   0.17257   0.67172   0.00000  Uiso   1.00
H633   H     0.05348   0.23915   0.62438   0.00000  Uiso   1.00
H634   H     0.04784   0.20801   0.57333   0.00000  Uiso   1.00
H635   H     0.17559   0.02928   0.82524   0.00000  Uiso   1.00
H636   H     0.28624   0.39432   0.87914   0.00000  Uiso   1.00
H637   H     0.30635   0.36310   0.93237   0.00000  Uiso   1.00
H638   H     0.00494   0.35715   0.87984   0.00000  Uiso   1.00
H639   H     0.27823   0.29255   0.88714   0.00000  Uiso   1.00
H640   H     0.25971   0.32336   0.83342   0.00000  Uiso   1.00
H641   H     0.18247   0.34861   0.86185   0.00000  Uiso   1.00
H642   H     0.21337   0.35337   0.91881   0.00000  Uiso   1.00
H643   H     0.10100   0.46648   0.69454   0.00000  Uiso   1.00
H644   H     0.16433   0.11012   0.67167   0.00000  Uiso   1.00
H645   H     0.23515   0.39127   0.80214   0.00000  Uiso   1.00
H646   H     0.09870   0.21569   0.52128   0.00000  Uiso   1.00
H647   H     0.18470   0.31392   0.97350   0.00000  Uiso   1.00
H648   H     0.33199   0.30030   0.98008   0.00000  Uiso   1.00
N649   N     0.16667   0.25001   0.62934   0.00000  Uiso   1.00
N650   N     0.16667   0.24999   0.87065   0.00000  Uiso   1.00
O651   O     0.16667   0.18572   0.79071   0.00000  Uiso   1.00
O652   O     0.16666   0.31427   0.70928   0.00000  Uiso   1.00
O653   O     0.16667   0.18573   0.70928   0.00000  Uiso   1.00
O654   O     0.16666   0.31427   0.79072   0.00000  Uiso   1.00
O655   O     0.09161   0.24999   0.78132   0.00000  Uiso   1.00
O656   O     0.24172   0.25000   0.71868   0.00000  Uiso   1.00
O657   O     0.09161   0.25000   0.69988   0.00000  Uiso   1.00
O658   O     0.24172   0.25000   0.80011   0.00000  Uiso   1.00
C659   C     0.50082   0.16491   0.74986   0.00000  Uiso   1.00
C660   C     0.51245   0.28412   0.95118   0.00000  Uiso   1.00
C661   C     0.50739   0.24467   0.52814   0.00000  Uiso   1.00
C662   C     0.50459   0.24426   0.97345   0.00000  Uiso   1.00
C663   C     0.40131   0.24984   0.73758   0.00000  Uiso   1.00
C664   C     0.59868   0.25006   0.76242   0.00000  Uiso   1.00
C665   C     0.34593   0.24955   0.73083   0.00000  Uiso   1.00
C666   C     0.65407   0.25021   0.76915   0.00000  Uiso   1.00
C667   C     0.50660   0.04683   0.79160   0.00000  Uiso   1.00
C668   C     0.46398   0.45022   0.71787   0.00000  Uiso   1.00
C669   C     0.50687   0.09276   0.79279   0.00000  Uiso   1.00
C670   C     0.49972   0.33478   0.75015   0.00000  Uiso   1.00
C671   C     0.46261   0.40415   0.71881   0.00000  Uiso   1.00
C672   C     0.50238   0.11633   0.74947   0.00000  Uiso   1.00
C673   C     0.49973   0.38279   0.75008   0.00000  Uiso   1.00
C674   C     0.49968   0.09291   0.70541   0.00000  Uiso   1.00
C675   C     0.53866   0.40753   0.77941   0.00000  Uiso   1.00
C676   C     0.50002   0.04686   0.70438   0.00000  Uiso   1.00
C677   C     0.54057   0.45348   0.77809   0.00000  Uiso   1.00
C678   C     0.50319   0.02361   0.74760   0.00000  Uiso   1.00
C679   C     0.50292   0.47512   0.74748   0.00000  Uiso   1.00
C680   C     0.59771   0.28412   0.54543   0.00000  Uiso   1.00
C681   C     0.54828   0.26485   0.56155   0.00000  Uiso   1.00
C682   C     0.62539   0.25033   0.51812   0.00000  Uiso   1.00
C683   C     0.34119   0.27129   0.50296   0.00000  Uiso   1.00
C684   C     0.48679   0.15992   0.96231   0.00000  Uiso   1.00
C685   C     0.53901   0.14571   0.98791   0.00000  Uiso   1.00
C686   C     0.53515   0.09827   0.50543   0.00000  Uiso   1.00
C687   C     0.40738   0.21341   0.60767   0.00000  Uiso   1.00
C688   C     0.40674   0.16829   0.63229   0.00000  Uiso   1.00
C689   C     0.35358   0.14421   0.62231   0.00000  Uiso   1.00
C690   C     0.54155   0.32971   0.88750   0.00000  Uiso   1.00
C691   C     0.59556   0.32405   0.87313   0.00000  Uiso   1.00
C692   C     0.49119   0.20640   0.94261   0.00000  Uiso   1.00
C693   C     0.63387   0.36207   0.89233   0.00000  Uiso   1.00
C694   C     0.54252   0.26799   0.61162   0.00000  Uiso   1.00
C695   C     0.48378   0.21185   0.89153   0.00000  Uiso   1.00
C696   C     0.46014   0.23036   0.59631   0.00000  Uiso   1.00
C697   C     0.51629   0.28625   0.90157   0.00000  Uiso   1.00
C698   C     0.46431   0.22849   0.54674   0.00000  Uiso   1.00
Cu699  Cu    0.50000   0.24999   0.79821   0.00000  Uiso   1.00
Cu700  Cu    0.50000   0.25000   0.70178   0.00000  Uiso   1.00
F701   F     0.51241   0.11366   0.83649   0.00000  Uiso   1.00
F702   F     0.42467   0.38045   0.68999   0.00000  Uiso   1.00
F703   F     0.49834   0.02515   0.66136   0.00000  Uiso   1.00
F704   F     0.57977   0.47672   0.80580   0.00000  Uiso   1.00
F705   F     0.57923   0.29108   0.64225   0.00000  Uiso   1.00
F706   F     0.45860   0.17880   0.86327   0.00000  Uiso   1.00
H707   H     0.65918   0.24872   0.69410   0.00000  Uiso   1.00
H708   H     0.36895   0.28222   0.53508   0.00000  Uiso   1.00
H709   H     0.35914   0.24685   0.98143   0.00000  Uiso   1.00
H710   H     0.63446   0.22153   0.54132   0.00000  Uiso   1.00
H711   H     0.60103   0.23772   0.98486   0.00000  Uiso   1.00
H712   H     0.58950   0.31354   0.52309   0.00000  Uiso   1.00
H713   H     0.62544   0.29649   0.57699   0.00000  Uiso   1.00
H714   H     0.50678   0.09531   0.53131   0.00000  Uiso   1.00
H715   H     0.52313   0.07492   0.97447   0.00000  Uiso   1.00
H716   H     0.57337   0.08912   0.52398   0.00000  Uiso   1.00
H717   H     0.56811   0.14802   0.96265   0.00000  Uiso   1.00
H718   H     0.34084   0.25094   0.80589   0.00000  Uiso   1.00
H719   H     0.55265   0.16773   0.51961   0.00000  Uiso   1.00
H720   H     0.45741   0.15731   0.98694   0.00000  Uiso   1.00
H721   H     0.47352   0.13547   0.93265   0.00000  Uiso   1.00
H722   H     0.65719   0.16511   0.63439   0.00000  Uiso   1.00
H723   H     0.34320   0.13627   0.58318   0.00000  Uiso   1.00
H724   H     0.35408   0.11273   0.64230   0.00000  Uiso   1.00
H725   H     0.43540   0.14701   0.61902   0.00000  Uiso   1.00
H726   H     0.41551   0.17257   0.67172   0.00000  Uiso   1.00
H727   H     0.38681   0.23915   0.62438   0.00000  Uiso   1.00
H728   H     0.38117   0.20801   0.57333   0.00000  Uiso   1.00
H729   H     0.50893   0.02928   0.82524   0.00000  Uiso   1.00
H730   H     0.61957   0.39432   0.87914   0.00000  Uiso   1.00
H731   H     0.63968   0.36310   0.93237   0.00000  Uiso   1.00
H732   H     0.33827   0.35715   0.87984   0.00000  Uiso   1.00
H733   H     0.61156   0.29255   0.88714   0.00000  Uiso   1.00
H734   H     0.59305   0.32336   0.83342   0.00000  Uiso   1.00
H735   H     0.51580   0.34861   0.86185   0.00000  Uiso   1.00
H736   H     0.54671   0.35337   0.91881   0.00000  Uiso   1.00
H737   H     0.43434   0.46648   0.69454   0.00000  Uiso   1.00
H738   H     0.49766   0.11012   0.67167   0.00000  Uiso   1.00
H739   H     0.56848   0.39127   0.80214   0.00000  Uiso   1.00
H740   H     0.43204   0.21569   0.52128   0.00000  Uiso   1.00
H741   H     0.51803   0.31392   0.97350   0.00000  Uiso   1.00
H742   H     0.66533   0.30030   0.98008   0.00000  Uiso   1.00
N743   N     0.50000   0.25001   0.62934   0.00000  Uiso   1.00
N744   N     0.50000   0.24999   0.87065   0.00000  Uiso   1.00
O745   O     0.50000   0.18572   0.79071   0.00000  Uiso   1.00
O746   O     0.50000   0.31427   0.70928   0.00000  Uiso   1.00
O747   O     0.50000   0.18573   0.70928   0.00000  Uiso   1.00
O748   O     0.50000   0.31427   0.79072   0.00000  Uiso   1.00
O749   O     0.42495   0.24999   0.78132   0.00000  Uiso   1.00
O750   O     0.57505   0.25000   0.71868   0.00000  Uiso   1.00
O751   O     0.42495   0.25000   0.69988   0.00000  Uiso   1.00
O752   O     0.57505   0.25000   0.80011   0.00000  Uiso   1.00
C753   C     0.83415   0.16491   0.74986   0.00000  Uiso   1.00
C754   C     0.84578   0.28412   0.95118   0.00000  Uiso   1.00
C755   C     0.84072   0.24467   0.52814   0.00000  Uiso   1.00
C756   C     0.83793   0.24426   0.97345   0.00000  Uiso   1.00
C757   C     0.73465   0.24984   0.73758   0.00000  Uiso   1.00
C758   C     0.93202   0.25006   0.76242   0.00000  Uiso   1.00
C759   C     0.67927   0.24955   0.73083   0.00000  Uiso   1.00
C760   C     0.98740   0.25021   0.76915   0.00000  Uiso   1.00
C761   C     0.83994   0.04683   0.79160   0.00000  Uiso   1.00
C762   C     0.79731   0.45022   0.71787   0.00000  Uiso   1.00
C763   C     0.84021   0.09276   0.79279   0.00000  Uiso   1.00
C764   C     0.83306   0.33478   0.75015   0.00000  Uiso   1.00
C765   C     0.79594   0.40415   0.71881   0.00000  Uiso   1.00
C766   C     0.83571   0.11633   0.74947   0.00000  Uiso   1.00
C767   C     0.83307   0.38279   0.75008   0.00000  Uiso   1.00
C768   C     0.83302   0.09291   0.70541   0.00000  Uiso   1.00
C769   C     0.87200   0.40753   0.77941   0.00000  Uiso   1.00
C770   C     0.83336   0.04686   0.70438   0.00000  Uiso   1.00
C771   C     0.87390   0.45348   0.77809   0.00000  Uiso   1.00
C772   C     0.83652   0.02361   0.74760   0.00000  Uiso   1.00
C773   C     0.83625   0.47512   0.74748   0.00000  Uiso   1.00
C774   C     0.93104   0.28412   0.54543   0.00000  Uiso   1.00
C775   C     0.88161   0.26485   0.56155   0.00000  Uiso   1.00
C776   C     0.95873   0.25033   0.51812   0.00000  Uiso   1.00
C777   C     0.67452   0.27129   0.50296   0.00000  Uiso   1.00
C778   C     0.82013   0.15992   0.96231   0.00000  Uiso   1.00
C779   C     0.87234   0.14571   0.98791   0.00000  Uiso   1.00
C780   C     0.86848   0.09827   0.50543   0.00000  Uiso   1.00
C781   C     0.74071   0.21341   0.60767   0.00000  Uiso   1.00
C782   C     0.74007   0.16829   0.63229   0.00000  Uiso   1.00
C783   C     0.68692   0.14421   0.62231   0.00000  Uiso   1.00
C784   C     0.87489   0.32971   0.88750   0.00000  Uiso   1.00
C785   C     0.92889   0.32405   0.87313   0.00000  Uiso   1.00
C786   C     0.82452   0.20640   0.94261   0.00000  Uiso   1.00
C787   C     0.96720   0.36207   0.89233   0.00000  Uiso   1.00
C788   C     0.87586   0.26799   0.61162   0.00000  Uiso   1.00
C789   C     0.81712   0.21185   0.89153   0.00000  Uiso   1.00
C790   C     0.79348   0.23036   0.59631   0.00000  Uiso   1.00
C791   C     0.84962   0.28625   0.90157   0.00000  Uiso   1.00
C792   C     0.79764   0.22849   0.54674   0.00000  Uiso   1.00
Cu793  Cu    0.83333   0.24999   0.79821   0.00000  Uiso   1.00
Cu794  Cu    0.83333   0.25000   0.70178   0.00000  Uiso   1.00
F795   F     0.84574   0.11366   0.83649   0.00000  Uiso   1.00
F796   F     0.75801   0.38045   0.68999   0.00000  Uiso   1.00
F797   F     0.83167   0.02515   0.66136   0.00000  Uiso   1.00
F798   F     0.91311   0.47672   0.80580   0.00000  Uiso   1.00
F799   F     0.91256   0.29108   0.64225   0.00000  Uiso   1.00
F800   F     0.79193   0.17880   0.86327   0.00000  Uiso   1.00
H801   H     0.99251   0.24872   0.69410   0.00000  Uiso   1.00
H802   H     0.70229   0.28222   0.53508   0.00000  Uiso   1.00
H803   H     0.69248   0.24685   0.98143   0.00000  Uiso   1.00
H804   H     0.96780   0.22153   0.54132   0.00000  Uiso   1.00
H805   H     0.93436   0.23772   0.98486   0.00000  Uiso   1.00
H806   H     0.92283   0.31354   0.52309   0.00000  Uiso   1.00
H807   H     0.95877   0.29649   0.57699   0.00000  Uiso   1.00
H808   H     0.84011   0.09531   0.53131   0.00000  Uiso   1.00
H809   H     0.85646   0.07492   0.97447   0.00000  Uiso   1.00
H810   H     0.90671   0.08912   0.52398   0.00000  Uiso   1.00
H811   H     0.90144   0.14802   0.96265   0.00000  Uiso   1.00
H812   H     0.67418   0.25094   0.80589   0.00000  Uiso   1.00
H813   H     0.88599   0.16773   0.51961   0.00000  Uiso   1.00
H814   H     0.79075   0.15731   0.98694   0.00000  Uiso   1.00
H815   H     0.80685   0.13547   0.93265   0.00000  Uiso   1.00
H816   H     0.99052   0.16511   0.63439   0.00000  Uiso   1.00
H817   H     0.67654   0.13627   0.58318   0.00000  Uiso   1.00
H818   H     0.68742   0.11273   0.64230   0.00000  Uiso   1.00
H819   H     0.76874   0.14701   0.61902   0.00000  Uiso   1.00
H820   H     0.74884   0.17257   0.67172   0.00000  Uiso   1.00
H821   H     0.72015   0.23915   0.62438   0.00000  Uiso   1.00
H822   H     0.71451   0.20801   0.57333   0.00000  Uiso   1.00
H823   H     0.84226   0.02928   0.82524   0.00000  Uiso   1.00
H824   H     0.95290   0.39432   0.87914   0.00000  Uiso   1.00
H825   H     0.97302   0.36310   0.93237   0.00000  Uiso   1.00
H826   H     0.67160   0.35715   0.87984   0.00000  Uiso   1.00
H827   H     0.94490   0.29255   0.88714   0.00000  Uiso   1.00
H828   H     0.92638   0.32336   0.83342   0.00000  Uiso   1.00
H829   H     0.84913   0.34861   0.86185   0.00000  Uiso   1.00
H830   H     0.88004   0.35337   0.91881   0.00000  Uiso   1.00
H831   H     0.76767   0.46648   0.69454   0.00000  Uiso   1.00
H832   H     0.83100   0.11012   0.67167   0.00000  Uiso   1.00
H833   H     0.90182   0.39127   0.80214   0.00000  Uiso   1.00
H834   H     0.76537   0.21569   0.52128   0.00000  Uiso   1.00
H835   H     0.85137   0.31392   0.97350   0.00000  Uiso   1.00
H836   H     0.99866   0.30030   0.98008   0.00000  Uiso   1.00
N837   N     0.83333   0.25001   0.62934   0.00000  Uiso   1.00
N838   N     0.83333   0.24999   0.87065   0.00000  Uiso   1.00
O839   O     0.83334   0.18572   0.79071   0.00000  Uiso   1.00
O840   O     0.83333   0.31427   0.70928   0.00000  Uiso   1.00
O841   O     0.83334   0.18573   0.70928   0.00000  Uiso   1.00
O842   O     0.83333   0.31427   0.79072   0.00000  Uiso   1.00
O843   O     0.75828   0.24999   0.78132   0.00000  Uiso   1.00
O844   O     0.90839   0.25000   0.71868   0.00000  Uiso   1.00
O845   O     0.75828   0.25000   0.69988   0.00000  Uiso   1.00
O846   O     0.90839   0.25000   0.80011   0.00000  Uiso   1.00
C847   C     0.16748   0.66491   0.74986   0.00000  Uiso   1.00
C848   C     0.17912   0.78412   0.95118   0.00000  Uiso   1.00
C849   C     0.17406   0.74467   0.52814   0.00000  Uiso   1.00
C850   C     0.17126   0.74426   0.97345   0.00000  Uiso   1.00
C851   C     0.06798   0.74984   0.73758   0.00000  Uiso   1.00
C852   C     0.26535   0.75006   0.76242   0.00000  Uiso   1.00
C853   C     0.01260   0.74955   0.73083   0.00000  Uiso   1.00
C854   C     0.32073   0.75021   0.76915   0.00000  Uiso   1.00
C855   C     0.17327   0.54683   0.79160   0.00000  Uiso   1.00
C856   C     0.13064   0.95022   0.71787   0.00000  Uiso   1.00
C857   C     0.17354   0.59276   0.79279   0.00000  Uiso   1.00
C858   C     0.16639   0.83478   0.75015   0.00000  Uiso   1.00
C859   C     0.12928   0.90415   0.71881   0.00000  Uiso   1.00
C860   C     0.16904   0.61633   0.74947   0.00000  Uiso   1.00
C861   C     0.16640   0.88279   0.75008   0.00000  Uiso   1.00
C862   C     0.16635   0.59291   0.70541   0.00000  Uiso   1.00
C863   C     0.20533   0.90753   0.77941   0.00000  Uiso   1.00
C864   C     0.16669   0.54686   0.70438   0.00000  Uiso   1.00
C865   C     0.20723   0.95348   0.77809   0.00000  Uiso   1.00
C866   C     0.16986   0.52361   0.74760   0.00000  Uiso   1.00
C867   C     0.16959   0.97512   0.74748   0.00000  Uiso   1.00
C868   C     0.26438   0.78412   0.54543   0.00000  Uiso   1.00
C869   C     0.21495   0.76485   0.56155   0.00000  Uiso   1.00
C870   C     0.29206   0.75033   0.51812   0.00000  Uiso   1.00
C871   C     0.00786   0.77129   0.50296   0.00000  Uiso   1.00
C872   C     0.15346   0.65992   0.96231   0.00000  Uiso   1.00
C873   C     0.20568   0.64571   0.98791   0.00000  Uiso   1.00
C874   C     0.20182   0.59827   0.50543   0.00000  Uiso   1.00
C875   C     0.07404   0.71341   0.60767   0.00000  Uiso   1.00
C876   C     0.07341   0.66829   0.63229   0.00000  Uiso   1.00
C877   C     0.02025   0.64421   0.62231   0.00000  Uiso   1.00
C878   C     0.20822   0.82971   0.88750   0.00000  Uiso   1.00
C879   C     0.26223   0.82405   0.87313   0.00000  Uiso   1.00
C880   C     0.15785   0.70640   0.94261   0.00000  Uiso   1.00
C881   C     0.30054   0.86207   0.89233   0.00000  Uiso   1.00
C882   C     0.20919   0.76799   0.61162   0.00000  Uiso   1.00
C883   C     0.15045   0.71185   0.89153   0.00000  Uiso   1.00
C884   C     0.12681   0.73036   0.59631   0.00000  Uiso   1.00
C885   C     0.18296   0.78625   0.90157   0.00000  Uiso   1.00
C886   C     0.13097   0.72849   0.54674   0.00000  Uiso   1.00
Cu887  Cu    0.16667   0.74999   0.79821   0.00000  Uiso   1.00
Cu888  Cu    0.16667   0.75000   0.70178   0.00000  Uiso   1.00
F889   F     0.17908   0.61366   0.83649   0.00000  Uiso   1.00
F890   F     0.09134   0.88045   0.68999   0.00000  Uiso   1.00
F891   F     0.16501   0.52515   0.66136   0.00000  Uiso   1.00
F892   F     0.24644   0.97672   0.80580   0.00000  Uiso   1.00
F893   F     0.24589   0.79108   0.64225   0.00000  Uiso   1.00
F894   F     0.12526   0.67880   0.86327   0.00000  Uiso   1.00
H895   H     0.32584   0.74872   0.69410   0.00000  Uiso   1.00
H896   H     0.03562   0.78222   0.53508   0.00000  Uiso   1.00
H897   H     0.02581   0.74685   0.98143   0.00000  Uiso   1.00
H898   H     0.30113   0.72153   0.54132   0.00000  Uiso   1.00
H899   H     0.26769   0.73772   0.98486   0.00000  Uiso   1.00
H900   H     0.25617   0.81354   0.52309   0.00000  Uiso   1.00
H901   H     0.29211   0.79649   0.57699   0.00000  Uiso   1.00
H902   H     0.17345   0.59531   0.53131   0.00000  Uiso   1.00
H903   H     0.18979   0.57492   0.97447   0.00000  Uiso   1.00
H904   H     0.24004   0.58912   0.52398   0.00000  Uiso   1.00
H905   H     0.23477   0.64802   0.96265   0.00000  Uiso   1.00
H906   H     0.00751   0.75094   0.80589   0.00000  Uiso   1.00
H907   H     0.21932   0.66773   0.51961   0.00000  Uiso   1.00
H908   H     0.12408   0.65731   0.98694   0.00000  Uiso   1.00
H909   H     0.14019   0.63547   0.93265   0.00000  Uiso   1.00
H910   H     0.32386   0.66511   0.63439   0.00000  Uiso   1.00
H911   H     0.00987   0.63627   0.58318   0.00000  Uiso   1.00
H912   H     0.02075   0.61273   0.64230   0.00000  Uiso   1.00
H913   H     0.10207   0.64701   0.61902   0.00000  Uiso   1.00
H914   H     0.08217   0.67257   0.67172   0.00000  Uiso   1.00
H915   H     0.05348   0.73915   0.62438   0.00000  Uiso   1.00
H916   H     0.04784   0.70801   0.57333   0.00000  Uiso   1.00
H917   H     0.17559   0.52928   0.82524   0.00000  Uiso   1.00
H918   H     0.28624   0.89432   0.87914   0.00000  Uiso   1.00
H919   H     0.30635   0.86310   0.93237   0.00000  Uiso   1.00
H920   H     0.00494   0.85715   0.87984   0.00000  Uiso   1.00
H921   H     0.27823   0.79255   0.88714   0.00000  Uiso   1.00
H922   H     0.25971   0.82336   0.83342   0.00000  Uiso   1.00
H923   H     0.18247   0.84861   0.86185   0.00000  Uiso   1.00
H924   H     0.21337   0.85337   0.91881   0.00000  Uiso   1.00
H925   H     0.10100   0.96648   0.69454   0.00000  Uiso   1.00
H926   H     0.16433   0.61012   0.67167   0.00000  Uiso   1.00
H927   H     0.23515   0.89127   0.80214   0.00000  Uiso   1.00
H928   H     0.09870   0.71569   0.52128   0.00000  Uiso   1.00
H929   H     0.18470   0.81392   0.97350   0.00000  Uiso   1.00
H930   H     0.33199   0.80030   0.98008   0.00000  Uiso   1.00
N931   N     0.16667   0.75001   0.62934   0.00000  Uiso   1.00
N932   N     0.16667   0.74999   0.87065   0.00000  Uiso   1.00
O933   O     0.16667   0.68572   0.79071   0.00000  Uiso   1.00
O934   O     0.16666   0.81427   0.70928   0.00000  Uiso   1.00
O935   O     0.16667   0.68573   0.70928   0.00000  Uiso   1.00
O936   O     0.16666   0.81427   0.79072   0.00000  Uiso   1.00
O937   O     0.09161   0.74999   0.78132   0.00000  Uiso   1.00
O938   O     0.24172   0.75000   0.71868   0.00000  Uiso   1.00
O939   O     0.09161   0.75000   0.69988   0.00000  Uiso   1.00
O940   O     0.24172   0.75000   0.80011   0.00000  Uiso   1.00
C941   C     0.50082   0.66491   0.74986   0.00000  Uiso   1.00
C942   C     0.51245   0.78412   0.95118   0.00000  Uiso   1.00
C943   C     0.50739   0.74467   0.52814   0.00000  Uiso   1.00
C944   C     0.50459   0.74426   0.97345   0.00000  Uiso   1.00
C945   C     0.40131   0.74984   0.73758   0.00000  Uiso   1.00
C946   C     0.59868   0.75006   0.76242   0.00000  Uiso   1.00
C947   C     0.34593   0.74955   0.73083   0.00000  Uiso   1.00
C948   C     0.65407   0.75021   0.76915   0.00000  Uiso   1.00
C949   C     0.50660   0.54683   0.79160   0.00000  Uiso   1.00
C950   C     0.46398   0.95022   0.71787   0.00000  Uiso   1.00
C951   C     0.50687   0.59276   0.79279   0.00000  Uiso   1.00
C952   C     0.49972   0.83478   0.75015   0.00000  Uiso   1.00
C953   C     0.46261   0.90415   0.71881   0.00000  Uiso   1.00
C954   C     0.50238   0.61633   0.74947   0.00000  Uiso   1.00
C955   C     0.49973   0.88279   0.75008   0.00000  Uiso   1.00
C956   C     0.49968   0.59291   0.70541   0.00000  Uiso   1.00
C957   C     0.53866   0.90753   0.77941   0.00000  Uiso   1.00
C958   C     0.50002   0.54686   0.70438   0.00000  Uiso   1.00
C959   C     0.54057   0.95348   0.77809   0.00000  Uiso   1.00
C960   C     0.50319   0.52361   0.74760   0.00000  Uiso   1.00
C961   C     0.50292   0.97512   0.74748   0.00000  Uiso   1.00
C962   C     0.59771   0.78412   0.54543   0.00000  Uiso   1.00
C963   C     0.54828   0.76485   0.56155   0.00000  Uiso   1.00
C964   C     0.62539   0.75033   0.51812   0.00000  Uiso   1.00
C965   C     0.34119   0.77129   0.50296   0.00000  Uiso   1.00
C966   C     0.48679   0.65992   0.96231   0.00000  Uiso   1.00
C967   C     0.53901   0.64571   0.98791   0.00000  Uiso   1.00
C968   C     0.53515   0.59827   0.50543   0.00000  Uiso   1.00
C969   C     0.40738   0.71341   0.60767   0.00000  Uiso   1.00
C970   C     0.40674   0.66829   0.63229   0.00000  Uiso   1.00
C971   C     0.35358   0.64421   0.62231   0.00000  Uiso   1.00
C972   C     0.54155   0.82971   0.88750   0.00000  Uiso   1.00
C973   C     0.59556   0.82405   0.87313   0.00000  Uiso   1.00
C974   C     0.49119   0.70640   0.94261   0.00000  Uiso   1.00
C975   C     0.63387   0.86207   0.89233   0.00000  Uiso   1.00
C976   C     0.54252   0.76799   0.61162   0.00000  Uiso   1.00
C977   C     0.48378   0.71185   0.89153   0.00000  Uiso   1.00
C978   C     0.46014   0.73036   0.59631   0.00000  Uiso   1.00
C979   C     0.51629   0.78625   0.90157   0.00000  Uiso   1.00
C980   C     0.46431   0.72849   0.54674   0.00000  Uiso   1.00
Cu981  Cu    0.50000   0.74999   0.79821   0.00000  Uiso   1.00
Cu982  Cu    0.50000   0.75000   0.70178   0.00000  Uiso   1.00
F983   F     0.51241   0.61366   0.83649   0.00000  Uiso   1.00
F984   F     0.42467   0.88045   0.68999   0.00000  Uiso   1.00
F985   F     0.49834   0.52515   0.66136   0.00000  Uiso   1.00
F986   F     0.57977   0.97672   0.80580   0.00000  Uiso   1.00
F987   F     0.57923   0.79108   0.64225   0.00000  Uiso   1.00
F988   F     0.45860   0.67880   0.86327   0.00000  Uiso   1.00
H989   H     0.65918   0.74872   0.69410   0.00000  Uiso   1.00
H990   H     0.36895   0.78222   0.53508   0.00000  Uiso   1.00
H991   H     0.35914   0.74685   0.98143   0.00000  Uiso   1.00
H992   H     0.63446   0.72153   0.54132   0.00000  Uiso   1.00
H993   H     0.60103   0.73772   0.98486   0.00000  Uiso   1.00
H994   H     0.58950   0.81354   0.52309   0.00000  Uiso   1.00
H995   H     0.62544   0.79649   0.57699   0.00000  Uiso   1.00
H996   H     0.50678   0.59531   0.53131   0.00000  Uiso   1.00
H997   H     0.52313   0.57492   0.97447   0.00000  Uiso   1.00
H998   H     0.57337   0.58912   0.52398   0.00000  Uiso   1.00
H999   H     0.56811   0.64802   0.96265   0.00000  Uiso   1.00
H1000  H     0.34084   0.75094   0.80589   0.00000  Uiso   1.00
H1001  H     0.55265   0.66773   0.51961   0.00000  Uiso   1.00
H1002  H     0.45741   0.65731   0.98694   0.00000  Uiso   1.00
H1003  H     0.47352   0.63547   0.93265   0.00000  Uiso   1.00
H1004  H     0.65719   0.66511   0.63439   0.00000  Uiso   1.00
H1005  H     0.34320   0.63627   0.58318   0.00000  Uiso   1.00
H1006  H     0.35408   0.61273   0.64230   0.00000  Uiso   1.00
H1007  H     0.43540   0.64701   0.61902   0.00000  Uiso   1.00
H1008  H     0.41551   0.67257   0.67172   0.00000  Uiso   1.00
H1009  H     0.38681   0.73915   0.62438   0.00000  Uiso   1.00
H1010  H     0.38117   0.70801   0.57333   0.00000  Uiso   1.00
H1011  H     0.50893   0.52928   0.82524   0.00000  Uiso   1.00
H1012  H     0.61957   0.89432   0.87914   0.00000  Uiso   1.00
H1013  H     0.63968   0.86310   0.93237   0.00000  Uiso   1.00
H1014  H     0.33827   0.85715   0.87984   0.00000  Uiso   1.00
H1015  H     0.61156   0.79255   0.88714   0.00000  Uiso   1.00
H1016  H     0.59305   0.82336   0.83342   0.00000  Uiso   1.00
H1017  H     0.51580   0.84861   0.86185   0.00000  Uiso   1.00
H1018  H     0.54671   0.85337   0.91881   0.00000  Uiso   1.00
H1019  H     0.43434   0.96648   0.69454   0.00000  Uiso   1.00
H1020  H     0.49766   0.61012   0.67167   0.00000  Uiso   1.00
H1021  H     0.56848   0.89127   0.80214   0.00000  Uiso   1.00
H1022  H     0.43204   0.71569   0.52128   0.00000  Uiso   1.00
H1023  H     0.51803   0.81392   0.97350   0.00000  Uiso   1.00
H1024  H     0.66533   0.80030   0.98008   0.00000  Uiso   1.00
N1025  N     0.50000   0.75001   0.62934   0.00000  Uiso   1.00
N1026  N     0.50000   0.74999   0.87065   0.00000  Uiso   1.00
O1027  O     0.50000   0.68572   0.79071   0.00000  Uiso   1.00
O1028  O     0.50000   0.81427   0.70928   0.00000  Uiso   1.00
O1029  O     0.50000   0.68573   0.70928   0.00000  Uiso   1.00
O1030  O     0.50000   0.81427   0.79072   0.00000  Uiso   1.00
O1031  O     0.42495   0.74999   0.78132   0.00000  Uiso   1.00
O1032  O     0.57505   0.75000   0.71868   0.00000  Uiso   1.00
O1033  O     0.42495   0.75000   0.69988   0.00000  Uiso   1.00
O1034  O     0.57505   0.75000   0.80011   0.00000  Uiso   1.00
C1035  C     0.83415   0.66491   0.74986   0.00000  Uiso   1.00
C1036  C     0.84578   0.78412   0.95118   0.00000  Uiso   1.00
C1037  C     0.84072   0.74467   0.52814   0.00000  Uiso   1.00
C1038  C     0.83793   0.74426   0.97345   0.00000  Uiso   1.00
C1039  C     0.73465   0.74984   0.73758   0.00000  Uiso   1.00
C1040  C     0.93202   0.75006   0.76242   0.00000  Uiso   1.00
C1041  C     0.67927   0.74955   0.73083   0.00000  Uiso   1.00
C1042  C     0.98740   0.75021   0.76915   0.00000  Uiso   1.00
C1043  C     0.83994   0.54683   0.79160   0.00000  Uiso   1.00
C1044  C     0.79731   0.95022   0.71787   0.00000  Uiso   1.00
C1045  C     0.84021   0.59276   0.79279   0.00000  Uiso   1.00
C1046  C     0.83306   0.83478   0.75015   0.00000  Uiso   1.00
C1047  C     0.79594   0.90415   0.71881   0.00000  Uiso   1.00
C1048  C     0.83571   0.61633   0.74947   0.00000  Uiso   1.00
C1049  C     0.83307   0.88279   0.75008   0.00000  Uiso   1.00
C1050  C     0.83302   0.59291   0.70541   0.00000  Uiso   1.00
C1051  C     0.87200   0.90753   0.77941   0.00000  Uiso   1.00
C1052  C     0.83336   0.54686   0.70438   0.00000  Uiso   1.00
C1053  C     0.87390   0.95348   0.77809   0.00000  Uiso   1.00
C1054  C     0.83652   0.52361   0.74760   0.00000  Uiso   1.00
C1055  C     0.83625   0.97512   0.74748   0.00000  Uiso   1.00
C1056  C     0.93104   0.78412   0.54543   0.00000  Uiso   1.00
C1057  C     0.88161   0.76485   0.56155   0.00000  Uiso   1.00
C1058  C     0.95873   0.75033   0.51812   0.00000  Uiso   1.00
C1059  C     0.67452   0.77129   0.50296   0.00000  Uiso   1.00
C1060  C     0.82013   0.65992   0.96231   0.00000  Uiso   1.00
C1061  C     0.87234   0.64571   0.98791   0.00000  Uiso   1.00
C1062  C     0.86848   0.59827   0.50543   0.00000  Uiso   1.00
C1063  C     0.74071   0.71341   0.60767   0.00000  Uiso   1.00
C1064  C     0.74007   0.66829   0.63229   0.00000  Uiso   1.00
C1065  C     0.68692   0.64421   0.62231   0.00000  Uiso   1.00
C1066  C     0.87489   0.82971   0.88750   0.00000  Uiso   1.00
C1067  C     0.92889   0.82405   0.87313   0.00000  Uiso   1.00
C1068  C     0.82452   0.70640   0.94261   0.00000  Uiso   1.00
C1069  C     0.96720   0.86207   0.89233   0.00000  Uiso   1.00
C1070  C     0.87586   0.76799   0.61162   0.00000  Uiso   1.00
C1071  C     0.81712   0.71185   0.89153   0.00000  Uiso   1.00
C1072  C     0.79348   0.73036   0.59631   0.00000  Uiso   1.00
C1073  C     0.84962   0.78625   0.90157   0.00000  Uiso   1.00
C1074  C     0.79764   0.72849   0.54674   0.00000  Uiso   1.00
Cu1075 Cu    0.83333   0.74999   0.79821   0.00000  Uiso   1.00
Cu1076 Cu    0.83333   0.75000   0.70178   0.00000  Uiso   1.00
F1077  F     0.84574   0.61366   0.83649   0.00000  Uiso   1.00
F1078  F     0.75801   0.88045   0.68999   0.00000  Uiso   1.00
F1079  F     0.83167   0.52515   0.66136   0.00000  Uiso   1.00
F1080  F     0.91311   0.97672   0.80580   0.00000  Uiso   1.00
F1081  F     0.91256   0.79108   0.64225   0.00000  Uiso   1.00
F1082  F     0.79193   0.67880   0.86327   0.00000  Uiso   1.00
H1083  H     0.99251   0.74872   0.69410   0.00000  Uiso   1.00
H1084  H     0.70229   0.78222   0.53508   0.00000  Uiso   1.00
H1085  H     0.69248   0.74685   0.98143   0.00000  Uiso   1.00
H1086  H     0.96780   0.72153   0.54132   0.00000  Uiso   1.00
H1087  H     0.93436   0.73772   0.98486   0.00000  Uiso   1.00
H1088  H     0.92283   0.81354   0.52309   0.00000  Uiso   1.00
H1089  H     0.95877   0.79649   0.57699   0.00000  Uiso   1.00
H1090  H     0.84011   0.59531   0.53131   0.00000  Uiso   1.00
H1091  H     0.85646   0.57492   0.97447   0.00000  Uiso   1.00
H1092  H     0.90671   0.58912   0.52398   0.00000  Uiso   1.00
H1093  H     0.90144   0.64802   0.96265   0.00000  Uiso   1.00
H1094  H     0.67418   0.75094   0.80589   0.00000  Uiso   1.00
H1095  H     0.88599   0.66773   0.51961   0.00000  Uiso   1.00
H1096  H     0.79075   0.65731   0.98694   0.00000  Uiso   1.00
H1097  H     0.80685   0.63547   0.93265   0.00000  Uiso   1.00
H1098  H     0.99052   0.66511   0.63439   0.00000  Uiso   1.00
H1099  H     0.67654   0.63627   0.58318   0.00000  Uiso   1.00
H1100  H     0.68742   0.61273   0.64230   0.00000  Uiso   1.00
H1101  H     0.76874   0.64701   0.61902   0.00000  Uiso   1.00
H1102  H     0.74884   0.67257   0.67172   0.00000  Uiso   1.00
H1103  H     0.72015   0.73915   0.62438   0.00000  Uiso   1.00
H1104  H     0.71451   0.70801   0.57333   0.00000  Uiso   1.00
H1105  H     0.84226   0.52928   0.82524   0.00000  Uiso   1.00
H1106  H     0.95290   0.89432   0.87914   0.00000  Uiso   1.00
H1107  H     0.97302   0.86310   0.93237   0.00000  Uiso   1.00
H1108  H     0.67160   0.85715   0.87984   0.00000  Uiso   1.00
H1109  H     0.94490   0.79255   0.88714   0.00000  Uiso   1.00
H1110  H     0.92638   0.82336   0.83342   0.00000  Uiso   1.00
H1111  H     0.84913   0.84861   0.86185   0.00000  Uiso   1.00
H1112  H     0.88004   0.85337   0.91881   0.00000  Uiso   1.00
H1113  H     0.76767   0.96648   0.69454   0.00000  Uiso   1.00
H1114  H     0.83100   0.61012   0.67167   0.00000  Uiso   1.00
H1115  H     0.90182   0.89127   0.80214   0.00000  Uiso   1.00
H1116  H     0.76537   0.71569   0.52128   0.00000  Uiso   1.00
H1117  H     0.85137   0.81392   0.97350   0.00000  Uiso   1.00
H1118  H     0.99866   0.80030   0.98008   0.00000  Uiso   1.00
N1119  N     0.83333   0.75001   0.62934   0.00000  Uiso   1.00
N1120  N     0.83333   0.74999   0.87065   0.00000  Uiso   1.00
O1121  O     0.83334   0.68572   0.79071   0.00000  Uiso   1.00
O1122  O     0.83333   0.81427   0.70928   0.00000  Uiso   1.00
O1123  O     0.83334   0.68573   0.70928   0.00000  Uiso   1.00
O1124  O     0.83333   0.81427   0.79072   0.00000  Uiso   1.00
O1125  O     0.75828   0.74999   0.78132   0.00000  Uiso   1.00
O1126  O     0.90839   0.75000   0.71868   0.00000  Uiso   1.00
O1127  O     0.75828   0.75000   0.69988   0.00000  Uiso   1.00
O1128  O     0.90839   0.75000   0.80011   0.00000  Uiso   1.00
loop_
_geom_bond_atom_site_label_1
_geom_bond_atom_site_label_2
_geom_bond_distance
_geom_bond_site_symmetry_2
_ccdc_geom_bond_type
C1     O87     1.301   .     A
C1     O89     1.305   .     A
C1     C14     1.470   .     S
C2     C39     1.410   .     A
C2     H83     1.081   .     S
C2     C4      1.385   .     A
C3     C23     1.427   .     A
C3     C40     1.382   .     A
C3     C568    1.523   1_554 S
C4     C34     1.424   .     A
C4     C567    1.523   .     S
C5     C7      1.437   .     S
C5     O91     1.292   .     A
C5     O93     1.297   .     A
C6     O94     1.298   .     A
C6     C8      1.437   .     S
C6     O92     1.292   .     A
C7     C196    1.338   1_455 S
C7     H237    1.087   1_455 S
C8     C101    1.338   .     S
C8     H154    1.087   .     S
C9     C20     1.399   .     A
C9     C11     1.388   .     A
C9     H71     1.084   .     S
C10    C21     1.403   .     A
C10    C13     1.392   .     A
C10    H79     1.083   .     S
C11    C14     1.409   .     A
C11    F43     1.356   .     S
C12    O90     1.302   .     A
C12    O88     1.295   .     A
C12    C15     1.451   .     S
C13    C15     1.402   .     A
C13    F44     1.358   .     S
C14    C16     1.405   .     A
C15    C17     1.396   .     A
C16    H80     1.081   .     S
C16    C18     1.392   .     A
C17    C19     1.389   .     A
C17    H81     1.078   .     S
C18    F45     1.358   .     S
C18    C20     1.403   .     A
C19    F46     1.358   .     S
C19    C21     1.405   .     A
C20    C303    1.465   1_545 S
C21    C302    1.465   .     S
C22    H54     1.106   .     S
C22    C24     1.536   .     S
C22    H55     1.110   .     S
C22    C23     1.525   .     S
C23    C36     1.434   .     A
C24    H52     1.108   .     S
C24    C119    1.526   .     S
C24    H617    1.105   1_554 S
C25    H50     1.110   .     S
C25    C212    1.526   1_455 S
C25    H615    1.109   1_554 S
C25    H836    1.109   1_454 S
C26    C27     1.536   .     S
C26    C34     1.522   .     S
C26    H63     1.111   .     S
C26    H62     1.105   .     S
C27    H59     1.112   .     S
C27    C592    1.526   .     S
C27    H625    1.109   .     S
C28    H56     1.111   .     S
C28    H58     1.111   .     S
C28    C591    1.526   1_554 S
C28    H621    1.111   1_554 S
C29    C38     1.530   .     S
C29    H69     1.102   .     S
C29    C30     1.537   .     S
C29    H70     1.105   .     S
C30    C31     1.530   .     S
C30    H67     1.111   .     S
C30    H68     1.100   .     S
C31    H66     1.111   .     S
C31    H65     1.111   .     S
C31    H252    1.111   1_455 S
C32    C39     1.526   .     S
C32    H77     1.099   .     S
C32    C33     1.542   .     S
C32    H78     1.113   .     S
C33    H76     1.105   .     S
C33    C35     1.530   .     S
C33    H75     1.113   .     S
C34    C37     1.429   .     A
C35    H72     1.110   .     S
C35    H73     1.110   .     S
C35    H168    1.111   .     S
C36    F47     1.355   .     S
C36    N85     1.376   .     A
C37    N86     1.377   .     A
C37    F48     1.352   .     S
C38    N85     1.398   .     A
C38    C40     1.409   .     A
C39    N86     1.399   .     A
C40    H82     1.079   .     S
Cu41   Cu42    2.701   .     S
Cu41   N86     2.029   .     S
Cu41   O90     1.957   .     S
Cu41   O87     1.951   .     S
Cu41   O94     1.961   .     S
Cu41   O91     1.958   .     S
Cu42   O93     1.961   .     S
Cu42   O92     1.958   .     S
Cu42   N85     2.029   .     S
Cu42   O88     1.951   .     S
Cu42   O89     1.957   .     S
H49    C101    1.087   .     S
H51    C589    1.109   .     S
H53    C588    1.105   .     S
H57    C592    1.111   .     S
H60    C196    1.087   1_455 S
H61    C591    1.109   1_554 S
H64    C125    1.111   .     S
H74    C223    1.111   1_455 S
H84    C683    1.109   .     S
C95    O181    1.301   .     A
C95    O183    1.305   .     A
C95    C108    1.470   .     S
C96    C133    1.410   .     A
C96    H177    1.081   .     S
C96    C98     1.385   .     A
C97    C117    1.427   .     A
C97    C134    1.382   .     A
C97    C662    1.523   1_554 S
C98    C128    1.424   .     A
C98    C661    1.523   .     S
C99    C101    1.437   .     S
C99    O185    1.292   .     A
C99    O187    1.297   .     A
C100   O188    1.298   .     A
C100   C102    1.437   .     S
C100   O186    1.292   .     A
C102   C195    1.338   .     S
C102   H248    1.087   .     S
C103   C114    1.399   .     A
C103   C105    1.388   .     A
C103   H165    1.084   .     S
C104   C115    1.403   .     A
C104   C107    1.392   .     A
C104   H173    1.083   .     S
C105   C108    1.409   .     A
C105   F137    1.356   .     S
C106   O184    1.302   .     A
C106   O182    1.295   .     A
C106   C109    1.451   .     S
C107   C109    1.402   .     A
C107   F138    1.358   .     S
C108   C110    1.405   .     A
C109   C111    1.396   .     A
C110   H174    1.081   .     S
C110   C112    1.392   .     A
C111   C113    1.389   .     A
C111   H175    1.078   .     S
C112   F139    1.358   .     S
C112   C114    1.403   .     A
C113   F140    1.358   .     S
C113   C115    1.405   .     A
C114   C397    1.465   1_545 S
C115   C396    1.465   .     S
C116   H148    1.106   .     S
C116   C118    1.536   .     S
C116   H149    1.110   .     S
C116   C117    1.525   .     S
C117   C130    1.434   .     A
C118   H146    1.108   .     S
C118   C213    1.526   .     S
C118   H711    1.105   1_554 S
C119   H144    1.110   .     S
C119   H709    1.109   1_554 S
C119   H648    1.109   1_554 S
C120   C121    1.536   .     S
C120   C128    1.522   .     S
C120   H157    1.111   .     S
C120   H156    1.105   .     S
C121   H153    1.112   .     S
C121   C686    1.526   .     S
C121   H719    1.109   .     S
C122   H150    1.111   .     S
C122   H152    1.111   .     S
C122   C685    1.526   1_554 S
C122   H715    1.111   1_554 S
C123   C132    1.530   .     S
C123   H163    1.102   .     S
C123   C124    1.537   .     S
C123   H164    1.105   .     S
C124   C125    1.530   .     S
C124   H161    1.111   .     S
C124   H162    1.100   .     S
C125   H160    1.111   .     S
C125   H159    1.111   .     S
C126   C133    1.526   .     S
C126   H171    1.099   .     S
C126   C127    1.542   .     S
C126   H172    1.113   .     S
C127   H170    1.105   .     S
C127   C129    1.530   .     S
C127   H169    1.113   .     S
C128   C131    1.429   .     A
C129   H166    1.110   .     S
C129   H167    1.110   .     S
C129   H262    1.111   .     S
C130   F141    1.355   .     S
C130   N179    1.376   .     A
C131   N180    1.377   .     A
C131   F142    1.352   .     S
C132   N179    1.398   .     A
C132   C134    1.409   .     A
C133   N180    1.399   .     A
C134   H176    1.079   .     S
Cu135  Cu136   2.701   .     S
Cu135  N180    2.029   .     S
Cu135  O184    1.957   .     S
Cu135  O181    1.951   .     S
Cu135  O188    1.961   .     S
Cu135  O185    1.958   .     S
Cu136  O187    1.961   .     S
Cu136  O186    1.958   .     S
Cu136  N179    2.029   .     S
Cu136  O182    1.951   .     S
Cu136  O183    1.957   .     S
H143   C195    1.087   .     S
H145   C683    1.109   .     S
H147   C682    1.105   .     S
H151   C686    1.111   .     S
H155   C685    1.109   1_554 S
H158   C219    1.111   .     S
H178   C777    1.109   .     S
C189   O275    1.301   .     A
C189   O277    1.305   .     A
C189   C202    1.470   .     S
C190   C227    1.410   .     A
C190   H271    1.081   .     S
C190   C192    1.385   .     A
C191   C211    1.427   .     A
C191   C228    1.382   .     A
C191   C756    1.523   1_554 S
C192   C222    1.424   .     A
C192   C755    1.523   .     S
C193   C195    1.437   .     S
C193   O279    1.292   .     A
C193   O281    1.297   .     A
C194   O282    1.298   .     A
C194   C196    1.437   .     S
C194   O280    1.292   .     A
C196   C7      1.338   1_655 S
C196   H60     1.087   1_655 S
C197   C208    1.399   .     A
C197   C199    1.388   .     A
C197   H259    1.084   .     S
C198   C209    1.403   .     A
C198   C201    1.392   .     A
C198   H267    1.083   .     S
C199   C202    1.409   .     A
C199   F231    1.356   .     S
C200   O278    1.302   .     A
C200   O276    1.295   .     A
C200   C203    1.451   .     S
C201   C203    1.402   .     A
C201   F232    1.358   .     S
C202   C204    1.405   .     A
C203   C205    1.396   .     A
C204   H268    1.081   .     S
C204   C206    1.392   .     A
C205   C207    1.389   .     A
C205   H269    1.078   .     S
C206   F233    1.358   .     S
C206   C208    1.403   .     A
C207   F234    1.358   .     S
C207   C209    1.405   .     A
C208   C491    1.465   1_545 S
C209   C490    1.465   .     S
C210   H242    1.106   .     S
C210   C212    1.536   .     S
C210   H243    1.110   .     S
C210   C211    1.525   .     S
C211   C224    1.434   .     A
C212   H240    1.108   .     S
C212   C25     1.526   1_655 S
C212   H805    1.105   1_554 S
C213   H238    1.110   .     S
C213   H803    1.109   1_554 S
C213   H742    1.109   1_554 S
C214   C215    1.536   .     S
C214   C222    1.522   .     S
C214   H251    1.111   .     S
C214   H250    1.105   .     S
C215   H247    1.112   .     S
C215   C780    1.526   .     S
C215   H813    1.109   .     S
C216   H244    1.111   .     S
C216   H246    1.111   .     S
C216   C779    1.526   1_554 S
C216   H809    1.111   1_554 S
C217   C226    1.530   .     S
C217   H257    1.102   .     S
C217   C218    1.537   .     S
C217   H258    1.105   .     S
C218   C219    1.530   .     S
C218   H255    1.111   .     S
C218   H256    1.100   .     S
C219   H254    1.111   .     S
C219   H253    1.111   .     S
C220   C227    1.526   .     S
C220   H265    1.099   .     S
C220   C221    1.542   .     S
C220   H266    1.113   .     S
C221   H264    1.105   .     S
C221   C223    1.530   .     S
C221   H263    1.113   .     S
C222   C225    1.429   .     A
C223   H260    1.110   .     S
C223   H261    1.110   .     S
C223   H74     1.111   1_655 S
C224   F235    1.355   .     S
C224   N273    1.376   .     A
C225   N274    1.377   .     A
C225   F236    1.352   .     S
C226   N273    1.398   .     A
C226   C228    1.409   .     A
C227   N274    1.399   .     A
C228   H270    1.079   .     S
Cu229  Cu230   2.701   .     S
Cu229  N274    2.029   .     S
Cu229  O278    1.957   .     S
Cu229  O275    1.951   .     S
Cu229  O282    1.961   .     S
Cu229  O279    1.958   .     S
Cu230  O281    1.961   .     S
Cu230  O280    1.958   .     S
Cu230  N273    2.029   .     S
Cu230  O276    1.951   .     S
Cu230  O277    1.957   .     S
H237   C7      1.087   1_655 S
H239   C777    1.109   .     S
H241   C776    1.105   .     S
H245   C780    1.111   .     S
H249   C779    1.109   1_554 S
H252   C31     1.111   1_655 S
H272   C589    1.109   1_655 S
C283   O369    1.301   .     A
C283   O371    1.305   .     A
C283   C296    1.470   .     S
C284   C321    1.410   .     A
C284   H365    1.081   .     S
C284   C286    1.385   .     A
C285   C305    1.427   .     A
C285   C322    1.382   .     A
C285   C850    1.523   1_554 S
C286   C316    1.424   .     A
C286   C849    1.523   .     S
C287   C289    1.437   .     S
C287   O373    1.292   .     A
C287   O375    1.297   .     A
C288   O376    1.298   .     A
C288   C290    1.437   .     S
C288   O374    1.292   .     A
C289   C478    1.338   1_455 S
C289   H519    1.087   1_455 S
C290   C383    1.338   .     S
C290   H436    1.087   .     S
C291   C302    1.399   .     A
C291   C293    1.388   .     A
C291   H353    1.084   .     S
C292   C303    1.403   .     A
C292   C295    1.392   .     A
C292   H361    1.083   .     S
C293   C296    1.409   .     A
C293   F325    1.356   .     S
C294   O372    1.302   .     A
C294   O370    1.295   .     A
C294   C297    1.451   .     S
C295   C297    1.402   .     A
C295   F326    1.358   .     S
C296   C298    1.405   .     A
C297   C299    1.396   .     A
C298   H362    1.081   .     S
C298   C300    1.392   .     A
C299   C301    1.389   .     A
C299   H363    1.078   .     S
C300   F327    1.358   .     S
C300   C302    1.403   .     A
C301   F328    1.358   .     S
C301   C303    1.405   .     A
C303   C20     1.465   1_565 S
C304   H336    1.106   .     S
C304   C306    1.536   .     S
C304   H337    1.110   .     S
C304   C305    1.525   .     S
C305   C318    1.434   .     A
C306   H334    1.108   .     S
C306   C401    1.526   .     S
C306   H899    1.105   1_554 S
C307   H332    1.110   .     S
C307   C494    1.526   1_455 S
C307   H897    1.109   1_554 S
C307   H1118   1.109   1_454 S
C308   C309    1.536   .     S
C308   C316    1.522   .     S
C308   H345    1.111   .     S
C308   H344    1.105   .     S
C309   H341    1.112   .     S
C309   C874    1.526   .     S
C309   H907    1.109   .     S
C310   H338    1.111   .     S
C310   H340    1.111   .     S
C310   C873    1.526   1_554 S
C310   H903    1.111   1_554 S
C311   C320    1.530   .     S
C311   H351    1.102   .     S
C311   C312    1.537   .     S
C311   H352    1.105   .     S
C312   C313    1.530   .     S
C312   H349    1.111   .     S
C312   H350    1.100   .     S
C313   H348    1.111   .     S
C313   H347    1.111   .     S
C313   H534    1.111   1_455 S
C314   C321    1.526   .     S
C314   H359    1.099   .     S
C314   C315    1.542   .     S
C314   H360    1.113   .     S
C315   H358    1.105   .     S
C315   C317    1.530   .     S
C315   H357    1.113   .     S
C316   C319    1.429   .     A
C317   H354    1.110   .     S
C317   H355    1.110   .     S
C317   H450    1.111   .     S
C318   F329    1.355   .     S
C318   N367    1.376   .     A
C319   N368    1.377   .     A
C319   F330    1.352   .     S
C320   N367    1.398   .     A
C320   C322    1.409   .     A
C321   N368    1.399   .     A
C322   H364    1.079   .     S
Cu323  Cu324   2.701   .     S
Cu323  N368    2.029   .     S
Cu323  O372    1.957   .     S
Cu323  O369    1.951   .     S
Cu323  O376    1.961   .     S
Cu323  O373    1.958   .     S
Cu324  O375    1.961   .     S
Cu324  O374    1.958   .     S
Cu324  N367    2.029   .     S
Cu324  O370    1.951   .     S
Cu324  O371    1.957   .     S
H331   C383    1.087   .     S
H333   C871    1.109   .     S
H335   C870    1.105   .     S
H339   C874    1.111   .     S
H342   C478    1.087   1_455 S
H343   C873    1.109   1_554 S
H346   C407    1.111   .     S
H356   C505    1.111   1_455 S
H366   C965    1.109   .     S
C377   O463    1.301   .     A
C377   O465    1.305   .     A
C377   C390    1.470   .     S
C378   C415    1.410   .     A
C378   H459    1.081   .     S
C378   C380    1.385   .     A
C379   C399    1.427   .     A
C379   C416    1.382   .     A
C379   C944    1.523   1_554 S
C380   C410    1.424   .     A
C380   C943    1.523   .     S
C381   C383    1.437   .     S
C381   O467    1.292   .     A
C381   O469    1.297   .     A
C382   O470    1.298   .     A
C382   C384    1.437   .     S
C382   O468    1.292   .     A
C384   C477    1.338   .     S
C384   H530    1.087   .     S
C385   C396    1.399   .     A
C385   C387    1.388   .     A
C385   H447    1.084   .     S
C386   C397    1.403   .     A
C386   C389    1.392   .     A
C386   H455    1.083   .     S
C387   C390    1.409   .     A
C387   F419    1.356   .     S
C388   O466    1.302   .     A
C388   O464    1.295   .     A
C388   C391    1.451   .     S
C389   C391    1.402   .     A
C389   F420    1.358   .     S
C390   C392    1.405   .     A
C391   C393    1.396   .     A
C392   H456    1.081   .     S
C392   C394    1.392   .     A
C393   C395    1.389   .     A
C393   H457    1.078   .     S
C394   F421    1.358   .     S
C394   C396    1.403   .     A
C395   F422    1.358   .     S
C395   C397    1.405   .     A
C397   C114    1.465   1_565 S
C398   H430    1.106   .     S
C398   C400    1.536   .     S
C398   H431    1.110   .     S
C398   C399    1.525   .     S
C399   C412    1.434   .     A
C400   H428    1.108   .     S
C400   C495    1.526   .     S
C400   H993    1.105   1_554 S
C401   H426    1.110   .     S
C401   H991    1.109   1_554 S
C401   H930    1.109   1_554 S
C402   C403    1.536   .     S
C402   C410    1.522   .     S
C402   H439    1.111   .     S
C402   H438    1.105   .     S
C403   H435    1.112   .     S
C403   C968    1.526   .     S
C403   H1001   1.109   .     S
C404   H432    1.111   .     S
C404   H434    1.111   .     S
C404   C967    1.526   1_554 S
C404   H997    1.111   1_554 S
C405   C414    1.530   .     S
C405   H445    1.102   .     S
C405   C406    1.537   .     S
C405   H446    1.105   .     S
C406   C407    1.530   .     S
C406   H443    1.111   .     S
C406   H444    1.100   .     S
C407   H442    1.111   .     S
C407   H441    1.111   .     S
C408   C415    1.526   .     S
C408   H453    1.099   .     S
C408   C409    1.542   .     S
C408   H454    1.113   .     S
C409   H452    1.105   .     S
C409   C411    1.530   .     S
C409   H451    1.113   .     S
C410   C413    1.429   .     A
C411   H448    1.110   .     S
C411   H449    1.110   .     S
C411   H544    1.111   .     S
C412   F423    1.355   .     S
C412   N461    1.376   .     A
C413   N462    1.377   .     A
C413   F424    1.352   .     S
C414   N461    1.398   .     A
C414   C416    1.409   .     A
C415   N462    1.399   .     A
C416   H458    1.079   .     S
Cu417  Cu418   2.701   .     S
Cu417  N462    2.029   .     S
Cu417  O466    1.957   .     S
Cu417  O463    1.951   .     S
Cu417  O470    1.961   .     S
Cu417  O467    1.958   .     S
Cu418  O469    1.961   .     S
Cu418  O468    1.958   .     S
Cu418  N461    2.029   .     S
Cu418  O464    1.951   .     S
Cu418  O465    1.957   .     S
H425   C477    1.087   .     S
H427   C965    1.109   .     S
H429   C964    1.105   .     S
H433   C968    1.111   .     S
H437   C967    1.109   1_554 S
H440   C501    1.111   .     S
H460   C1059   1.109   .     S
C471   O557    1.301   .     A
C471   O559    1.305   .     A
C471   C484    1.470   .     S
C472   C509    1.410   .     A
C472   H553    1.081   .     S
C472   C474    1.385   .     A
C473   C493    1.427   .     A
C473   C510    1.382   .     A
C473   C1038   1.523   1_554 S
C474   C504    1.424   .     A
C474   C1037   1.523   .     S
C475   C477    1.437   .     S
C475   O561    1.292   .     A
C475   O563    1.297   .     A
C476   O564    1.298   .     A
C476   C478    1.437   .     S
C476   O562    1.292   .     A
C478   C289    1.338   1_655 S
C478   H342    1.087   1_655 S
C479   C490    1.399   .     A
C479   C481    1.388   .     A
C479   H541    1.084   .     S
C480   C491    1.403   .     A
C480   C483    1.392   .     A
C480   H549    1.083   .     S
C481   C484    1.409   .     A
C481   F513    1.356   .     S
C482   O560    1.302   .     A
C482   O558    1.295   .     A
C482   C485    1.451   .     S
C483   C485    1.402   .     A
C483   F514    1.358   .     S
C484   C486    1.405   .     A
C485   C487    1.396   .     A
C486   H550    1.081   .     S
C486   C488    1.392   .     A
C487   C489    1.389   .     A
C487   H551    1.078   .     S
C488   F515    1.358   .     S
C488   C490    1.403   .     A
C489   F516    1.358   .     S
C489   C491    1.405   .     A
C491   C208    1.465   1_565 S
C492   H524    1.106   .     S
C492   C494    1.536   .     S
C492   H525    1.110   .     S
C492   C493    1.525   .     S
C493   C506    1.434   .     A
C494   H522    1.108   .     S
C494   C307    1.526   1_655 S
C494   H1087   1.105   1_554 S
C495   H520    1.110   .     S
C495   H1085   1.109   1_554 S
C495   H1024   1.109   1_554 S
C496   C497    1.536   .     S
C496   C504    1.522   .     S
C496   H533    1.111   .     S
C496   H532    1.105   .     S
C497   H529    1.112   .     S
C497   C1062   1.526   .     S
C497   H1095   1.109   .     S
C498   H526    1.111   .     S
C498   H528    1.111   .     S
C498   C1061   1.526   1_554 S
C498   H1091   1.111   1_554 S
C499   C508    1.530   .     S
C499   H539    1.102   .     S
C499   C500    1.537   .     S
C499   H540    1.105   .     S
C500   C501    1.530   .     S
C500   H537    1.111   .     S
C500   H538    1.100   .     S
C501   H536    1.111   .     S
C501   H535    1.111   .     S
C502   C509    1.526   .     S
C502   H547    1.099   .     S
C502   C503    1.542   .     S
C502   H548    1.113   .     S
C503   H546    1.105   .     S
C503   C505    1.530   .     S
C503   H545    1.113   .     S
C504   C507    1.429   .     A
C505   H542    1.110   .     S
C505   H543    1.110   .     S
C505   H356    1.111   1_655 S
C506   F517    1.355   .     S
C506   N555    1.376   .     A
C507   N556    1.377   .     A
C507   F518    1.352   .     S
C508   N555    1.398   .     A
C508   C510    1.409   .     A
C509   N556    1.399   .     A
C510   H552    1.079   .     S
Cu511  Cu512   2.701   .     S
Cu511  N556    2.029   .     S
Cu511  O560    1.957   .     S
Cu511  O557    1.951   .     S
Cu511  O564    1.961   .     S
Cu511  O561    1.958   .     S
Cu512  O563    1.961   .     S
Cu512  O562    1.958   .     S
Cu512  N555    2.029   .     S
Cu512  O558    1.951   .     S
Cu512  O559    1.957   .     S
H519   C289    1.087   1_655 S
H521   C1059   1.109   .     S
H523   C1058   1.105   .     S
H527   C1062   1.111   .     S
H531   C1061   1.109   1_554 S
H534   C313    1.111   1_655 S
H554   C871    1.109   1_655 S
C565   O651    1.301   .     A
C565   O653    1.305   .     A
C565   C578    1.470   .     S
C566   C603    1.410   .     A
C566   H647    1.081   .     S
C566   C568    1.385   .     A
C567   C587    1.427   .     A
C567   C604    1.382   .     A
C568   C598    1.424   .     A
C568   C3      1.523   1_556 S
C569   C571    1.437   .     S
C569   O655    1.292   .     A
C569   O657    1.297   .     A
C570   O658    1.298   .     A
C570   C572    1.437   .     S
C570   O656    1.292   .     A
C571   C760    1.338   1_455 S
C571   H801    1.087   1_455 S
C572   C665    1.338   .     S
C572   H718    1.087   .     S
C573   C584    1.399   .     A
C573   C575    1.388   .     A
C573   H635    1.084   .     S
C574   C585    1.403   .     A
C574   C577    1.392   .     A
C574   H643    1.083   .     S
C575   C578    1.409   .     A
C575   F607    1.356   .     S
C576   O654    1.302   .     A
C576   O652    1.295   .     A
C576   C579    1.451   .     S
C577   C579    1.402   .     A
C577   F608    1.358   .     S
C578   C580    1.405   .     A
C579   C581    1.396   .     A
C580   H644    1.081   .     S
C580   C582    1.392   .     A
C581   C583    1.389   .     A
C581   H645    1.078   .     S
C582   F609    1.358   .     S
C582   C584    1.403   .     A
C583   F610    1.358   .     S
C583   C585    1.405   .     A
C584   C867    1.465   1_545 S
C585   C866    1.465   .     S
C586   H618    1.106   .     S
C586   C588    1.536   .     S
C586   H619    1.110   .     S
C586   C587    1.525   .     S
C587   C600    1.434   .     A
C588   H616    1.108   .     S
C588   C683    1.526   .     S
C589   H614    1.110   .     S
C589   C776    1.526   1_455 S
C589   H272    1.109   1_455 S
C590   C591    1.536   .     S
C590   C598    1.522   .     S
C590   H627    1.111   .     S
C590   H626    1.105   .     S
C591   H623    1.112   .     S
C591   C28     1.526   1_556 S
C591   H61     1.109   1_556 S
C592   H620    1.111   .     S
C592   H622    1.111   .     S
C593   C602    1.530   .     S
C593   H633    1.102   .     S
C593   C594    1.537   .     S
C593   H634    1.105   .     S
C594   C595    1.530   .     S
C594   H631    1.111   .     S
C594   H632    1.100   .     S
C595   H630    1.111   .     S
C595   H629    1.111   .     S
C595   H816    1.111   1_455 S
C596   C603    1.526   .     S
C596   H641    1.099   .     S
C596   C597    1.542   .     S
C596   H642    1.113   .     S
C597   H640    1.105   .     S
C597   C599    1.530   .     S
C597   H639    1.113   .     S
C598   C601    1.429   .     A
C599   H636    1.110   .     S
C599   H637    1.110   .     S
C599   H732    1.111   .     S
C600   F611    1.355   .     S
C600   N649    1.376   .     A
C601   N650    1.377   .     A
C601   F612    1.352   .     S
C602   N649    1.398   .     A
C602   C604    1.409   .     A
C603   N650    1.399   .     A
C604   H646    1.079   .     S
Cu605  Cu606   2.701   .     S
Cu605  N650    2.029   .     S
Cu605  O654    1.957   .     S
Cu605  O651    1.951   .     S
Cu605  O658    1.961   .     S
Cu605  O655    1.958   .     S
Cu606  O657    1.961   .     S
Cu606  O656    1.958   .     S
Cu606  N649    2.029   .     S
Cu606  O652    1.951   .     S
Cu606  O653    1.957   .     S
H613   C665    1.087   .     S
H615   C25     1.109   1_556 S
H617   C24     1.105   1_556 S
H621   C28     1.111   1_556 S
H624   C760    1.087   1_455 S
H628   C689    1.111   .     S
H638   C787    1.111   1_455 S
H648   C119    1.109   1_556 S
C659   O745    1.301   .     A
C659   O747    1.305   .     A
C659   C672    1.470   .     S
C660   C697    1.410   .     A
C660   H741    1.081   .     S
C660   C662    1.385   .     A
C661   C681    1.427   .     A
C661   C698    1.382   .     A
C662   C692    1.424   .     A
C662   C97     1.523   1_556 S
C663   C665    1.437   .     S
C663   O749    1.292   .     A
C663   O751    1.297   .     A
C664   O752    1.298   .     A
C664   C666    1.437   .     S
C664   O750    1.292   .     A
C666   C759    1.338   .     S
C666   H812    1.087   .     S
C667   C678    1.399   .     A
C667   C669    1.388   .     A
C667   H729    1.084   .     S
C668   C679    1.403   .     A
C668   C671    1.392   .     A
C668   H737    1.083   .     S
C669   C672    1.409   .     A
C669   F701    1.356   .     S
C670   O748    1.302   .     A
C670   O746    1.295   .     A
C670   C673    1.451   .     S
C671   C673    1.402   .     A
C671   F702    1.358   .     S
C672   C674    1.405   .     A
C673   C675    1.396   .     A
C674   H738    1.081   .     S
C674   C676    1.392   .     A
C675   C677    1.389   .     A
C675   H739    1.078   .     S
C676   F703    1.358   .     S
C676   C678    1.403   .     A
C677   F704    1.358   .     S
C677   C679    1.405   .     A
C678   C961    1.465   1_545 S
C679   C960    1.465   .     S
C680   H712    1.106   .     S
C680   C682    1.536   .     S
C680   H713    1.110   .     S
C680   C681    1.525   .     S
C681   C694    1.434   .     A
C682   H710    1.108   .     S
C682   C777    1.526   .     S
C683   H708    1.110   .     S
C684   C685    1.536   .     S
C684   C692    1.522   .     S
C684   H721    1.111   .     S
C684   H720    1.105   .     S
C685   H717    1.112   .     S
C685   C122    1.526   1_556 S
C685   H155    1.109   1_556 S
C686   H714    1.111   .     S
C686   H716    1.111   .     S
C687   C696    1.530   .     S
C687   H727    1.102   .     S
C687   C688    1.537   .     S
C687   H728    1.105   .     S
C688   C689    1.530   .     S
C688   H725    1.111   .     S
C688   H726    1.100   .     S
C689   H724    1.111   .     S
C689   H723    1.111   .     S
C690   C697    1.526   .     S
C690   H735    1.099   .     S
C690   C691    1.542   .     S
C690   H736    1.113   .     S
C691   H734    1.105   .     S
C691   C693    1.530   .     S
C691   H733    1.113   .     S
C692   C695    1.429   .     A
C693   H730    1.110   .     S
C693   H731    1.110   .     S
C693   H826    1.111   .     S
C694   F705    1.355   .     S
C694   N743    1.376   .     A
C695   N744    1.377   .     A
C695   F706    1.352   .     S
C696   N743    1.398   .     A
C696   C698    1.409   .     A
C697   N744    1.399   .     A
C698   H740    1.079   .     S
Cu699  Cu700   2.701   .     S
Cu699  N744    2.029   .     S
Cu699  O748    1.957   .     S
Cu699  O745    1.951   .     S
Cu699  O752    1.961   .     S
Cu699  O749    1.958   .     S
Cu700  O751    1.961   .     S
Cu700  O750    1.958   .     S
Cu700  N743    2.029   .     S
Cu700  O746    1.951   .     S
Cu700  O747    1.957   .     S
H707   C759    1.087   .     S
H709   C119    1.109   1_556 S
H711   C118    1.105   1_556 S
H715   C122    1.111   1_556 S
H722   C783    1.111   .     S
H742   C213    1.109   1_556 S
C753   O839    1.301   .     A
C753   O841    1.305   .     A
C753   C766    1.470   .     S
C754   C791    1.410   .     A
C754   H835    1.081   .     S
C754   C756    1.385   .     A
C755   C775    1.427   .     A
C755   C792    1.382   .     A
C756   C786    1.424   .     A
C756   C191    1.523   1_556 S
C757   C759    1.437   .     S
C757   O843    1.292   .     A
C757   O845    1.297   .     A
C758   O846    1.298   .     A
C758   C760    1.437   .     S
C758   O844    1.292   .     A
C760   C571    1.338   1_655 S
C760   H624    1.087   1_655 S
C761   C772    1.399   .     A
C761   C763    1.388   .     A
C761   H823    1.084   .     S
C762   C773    1.403   .     A
C762   C765    1.392   .     A
C762   H831    1.083   .     S
C763   C766    1.409   .     A
C763   F795    1.356   .     S
C764   O842    1.302   .     A
C764   O840    1.295   .     A
C764   C767    1.451   .     S
C765   C767    1.402   .     A
C765   F796    1.358   .     S
C766   C768    1.405   .     A
C767   C769    1.396   .     A
C768   H832    1.081   .     S
C768   C770    1.392   .     A
C769   C771    1.389   .     A
C769   H833    1.078   .     S
C770   F797    1.358   .     S
C770   C772    1.403   .     A
C771   F798    1.358   .     S
C771   C773    1.405   .     A
C772   C1055   1.465   1_545 S
C773   C1054   1.465   .     S
C774   H806    1.106   .     S
C774   C776    1.536   .     S
C774   H807    1.110   .     S
C774   C775    1.525   .     S
C775   C788    1.434   .     A
C776   H804    1.108   .     S
C776   C589    1.526   1_655 S
C777   H802    1.110   .     S
C778   C779    1.536   .     S
C778   C786    1.522   .     S
C778   H815    1.111   .     S
C778   H814    1.105   .     S
C779   H811    1.112   .     S
C779   C216    1.526   1_556 S
C779   H249    1.109   1_556 S
C780   H808    1.111   .     S
C780   H810    1.111   .     S
C781   C790    1.530   .     S
C781   H821    1.102   .     S
C781   C782    1.537   .     S
C781   H822    1.105   .     S
C782   C783    1.530   .     S
C782   H819    1.111   .     S
C782   H820    1.100   .     S
C783   H818    1.111   .     S
C783   H817    1.111   .     S
C784   C791    1.526   .     S
C784   H829    1.099   .     S
C784   C785    1.542   .     S
C784   H830    1.113   .     S
C785   H828    1.105   .     S
C785   C787    1.530   .     S
C785   H827    1.113   .     S
C786   C789    1.429   .     A
C787   H824    1.110   .     S
C787   H825    1.110   .     S
C787   H638    1.111   1_655 S
C788   F799    1.355   .     S
C788   N837    1.376   .     A
C789   N838    1.377   .     A
C789   F800    1.352   .     S
C790   N837    1.398   .     A
C790   C792    1.409   .     A
C791   N838    1.399   .     A
C792   H834    1.079   .     S
Cu793  Cu794   2.701   .     S
Cu793  N838    2.029   .     S
Cu793  O842    1.957   .     S
Cu793  O839    1.951   .     S
Cu793  O846    1.961   .     S
Cu793  O843    1.958   .     S
Cu794  O845    1.961   .     S
Cu794  O844    1.958   .     S
Cu794  N837    2.029   .     S
Cu794  O840    1.951   .     S
Cu794  O841    1.957   .     S
H801   C571    1.087   1_655 S
H803   C213    1.109   1_556 S
H805   C212    1.105   1_556 S
H809   C216    1.111   1_556 S
H816   C595    1.111   1_655 S
H836   C25     1.109   1_656 S
C847   O933    1.301   .     A
C847   O935    1.305   .     A
C847   C860    1.470   .     S
C848   C885    1.410   .     A
C848   H929    1.081   .     S
C848   C850    1.385   .     A
C849   C869    1.427   .     A
C849   C886    1.382   .     A
C850   C880    1.424   .     A
C850   C285    1.523   1_556 S
C851   C853    1.437   .     S
C851   O937    1.292   .     A
C851   O939    1.297   .     A
C852   O940    1.298   .     A
C852   C854    1.437   .     S
C852   O938    1.292   .     A
C853   C1042   1.338   1_455 S
C853   H1083   1.087   1_455 S
C854   C947    1.338   .     S
C854   H1000   1.087   .     S
C855   C866    1.399   .     A
C855   C857    1.388   .     A
C855   H917    1.084   .     S
C856   C867    1.403   .     A
C856   C859    1.392   .     A
C856   H925    1.083   .     S
C857   C860    1.409   .     A
C857   F889    1.356   .     S
C858   O936    1.302   .     A
C858   O934    1.295   .     A
C858   C861    1.451   .     S
C859   C861    1.402   .     A
C859   F890    1.358   .     S
C860   C862    1.405   .     A
C861   C863    1.396   .     A
C862   H926    1.081   .     S
C862   C864    1.392   .     A
C863   C865    1.389   .     A
C863   H927    1.078   .     S
C864   F891    1.358   .     S
C864   C866    1.403   .     A
C865   F892    1.358   .     S
C865   C867    1.405   .     A
C867   C584    1.465   1_565 S
C868   H900    1.106   .     S
C868   C870    1.536   .     S
C868   H901    1.110   .     S
C868   C869    1.525   .     S
C869   C882    1.434   .     A
C870   H898    1.108   .     S
C870   C965    1.526   .     S
C871   H896    1.110   .     S
C871   C1058   1.526   1_455 S
C871   H554    1.109   1_455 S
C872   C873    1.536   .     S
C872   C880    1.522   .     S
C872   H909    1.111   .     S
C872   H908    1.105   .     S
C873   H905    1.112   .     S
C873   C310    1.526   1_556 S
C873   H343    1.109   1_556 S
C874   H902    1.111   .     S
C874   H904    1.111   .     S
C875   C884    1.530   .     S
C875   H915    1.102   .     S
C875   C876    1.537   .     S
C875   H916    1.105   .     S
C876   C877    1.530   .     S
C876   H913    1.111   .     S
C876   H914    1.100   .     S
C877   H912    1.111   .     S
C877   H911    1.111   .     S
C877   H1098   1.111   1_455 S
C878   C885    1.526   .     S
C878   H923    1.099   .     S
C878   C879    1.542   .     S
C878   H924    1.113   .     S
C879   H922    1.105   .     S
C879   C881    1.530   .     S
C879   H921    1.113   .     S
C880   C883    1.429   .     A
C881   H918    1.110   .     S
C881   H919    1.110   .     S
C881   H1014   1.111   .     S
C882   F893    1.355   .     S
C882   N931    1.376   .     A
C883   N932    1.377   .     A
C883   F894    1.352   .     S
C884   N931    1.398   .     A
C884   C886    1.409   .     A
C885   N932    1.399   .     A
C886   H928    1.079   .     S
Cu887  Cu888   2.701   .     S
Cu887  N932    2.029   .     S
Cu887  O936    1.957   .     S
Cu887  O933    1.951   .     S
Cu887  O940    1.961   .     S
Cu887  O937    1.958   .     S
Cu888  O939    1.961   .     S
Cu888  O938    1.958   .     S
Cu888  N931    2.029   .     S
Cu888  O934    1.951   .     S
Cu888  O935    1.957   .     S
H895   C947    1.087   .     S
H897   C307    1.109   1_556 S
H899   C306    1.105   1_556 S
H903   C310    1.111   1_556 S
H906   C1042   1.087   1_455 S
H910   C971    1.111   .     S
H920   C1069   1.111   1_455 S
H930   C401    1.109   1_556 S
C941   O1027   1.301   .     A
C941   O1029   1.305   .     A
C941   C954    1.470   .     S
C942   C979    1.410   .     A
C942   H1023   1.081   .     S
C942   C944    1.385   .     A
C943   C963    1.427   .     A
C943   C980    1.382   .     A
C944   C974    1.424   .     A
C944   C379    1.523   1_556 S
C945   C947    1.437   .     S
C945   O1031   1.292   .     A
C945   O1033   1.297   .     A
C946   O1034   1.298   .     A
C946   C948    1.437   .     S
C946   O1032   1.292   .     A
C948   C1041   1.338   .     S
C948   H1094   1.087   .     S
C949   C960    1.399   .     A
C949   C951    1.388   .     A
C949   H1011   1.084   .     S
C950   C961    1.403   .     A
C950   C953    1.392   .     A
C950   H1019   1.083   .     S
C951   C954    1.409   .     A
C951   F983    1.356   .     S
C952   O1030   1.302   .     A
C952   O1028   1.295   .     A
C952   C955    1.451   .     S
C953   C955    1.402   .     A
C953   F984    1.358   .     S
C954   C956    1.405   .     A
C955   C957    1.396   .     A
C956   H1020   1.081   .     S
C956   C958    1.392   .     A
C957   C959    1.389   .     A
C957   H1021   1.078   .     S
C958   F985    1.358   .     S
C958   C960    1.403   .     A
C959   F986    1.358   .     S
C959   C961    1.405   .     A
C961   C678    1.465   1_565 S
C962   H994    1.106   .     S
C962   C964    1.536   .     S
C962   H995    1.110   .     S
C962   C963    1.525   .     S
C963   C976    1.434   .     A
C964   H992    1.108   .     S
C964   C1059   1.526   .     S
C965   H990    1.110   .     S
C966   C967    1.536   .     S
C966   C974    1.522   .     S
C966   H1003   1.111   .     S
C966   H1002   1.105   .     S
C967   H999    1.112   .     S
C967   C404    1.526   1_556 S
C967   H437    1.109   1_556 S
C968   H996    1.111   .     S
C968   H998    1.111   .     S
C969   C978    1.530   .     S
C969   H1009   1.102   .     S
C969   C970    1.537   .     S
C969   H1010   1.105   .     S
C970   C971    1.530   .     S
C970   H1007   1.111   .     S
C970   H1008   1.100   .     S
C971   H1006   1.111   .     S
C971   H1005   1.111   .     S
C972   C979    1.526   .     S
C972   H1017   1.099   .     S
C972   C973    1.542   .     S
C972   H1018   1.113   .     S
C973   H1016   1.105   .     S
C973   C975    1.530   .     S
C973   H1015   1.113   .     S
C974   C977    1.429   .     A
C975   H1012   1.110   .     S
C975   H1013   1.110   .     S
C975   H1108   1.111   .     S
C976   F987    1.355   .     S
C976   N1025   1.376   .     A
C977   N1026   1.377   .     A
C977   F988    1.352   .     S
C978   N1025   1.398   .     A
C978   C980    1.409   .     A
C979   N1026   1.399   .     A
C980   H1022   1.079   .     S
Cu981  Cu982   2.701   .     S
Cu981  N1026   2.029   .     S
Cu981  O1030   1.957   .     S
Cu981  O1027   1.951   .     S
Cu981  O1034   1.961   .     S
Cu981  O1031   1.958   .     S
Cu982  O1033   1.961   .     S
Cu982  O1032   1.958   .     S
Cu982  N1025   2.029   .     S
Cu982  O1028   1.951   .     S
Cu982  O1029   1.957   .     S
H989   C1041   1.087   .     S
H991   C401    1.109   1_556 S
H993   C400    1.105   1_556 S
H997   C404    1.111   1_556 S
H1004  C1065   1.111   .     S
H1024  C495    1.109   1_556 S
C1035  O1121   1.301   .     A
C1035  O1123   1.305   .     A
C1035  C1048   1.470   .     S
C1036  C1073   1.410   .     A
C1036  H1117   1.081   .     S
C1036  C1038   1.385   .     A
C1037  C1057   1.427   .     A
C1037  C1074   1.382   .     A
C1038  C1068   1.424   .     A
C1038  C473    1.523   1_556 S
C1039  C1041   1.437   .     S
C1039  O1125   1.292   .     A
C1039  O1127   1.297   .     A
C1040  O1128   1.298   .     A
C1040  C1042   1.437   .     S
C1040  O1126   1.292   .     A
C1042  C853    1.338   1_655 S
C1042  H906    1.087   1_655 S
C1043  C1054   1.399   .     A
C1043  C1045   1.388   .     A
C1043  H1105   1.084   .     S
C1044  C1055   1.403   .     A
C1044  C1047   1.392   .     A
C1044  H1113   1.083   .     S
C1045  C1048   1.409   .     A
C1045  F1077   1.356   .     S
C1046  O1124   1.302   .     A
C1046  O1122   1.295   .     A
C1046  C1049   1.451   .     S
C1047  C1049   1.402   .     A
C1047  F1078   1.358   .     S
C1048  C1050   1.405   .     A
C1049  C1051   1.396   .     A
C1050  H1114   1.081   .     S
C1050  C1052   1.392   .     A
C1051  C1053   1.389   .     A
C1051  H1115   1.078   .     S
C1052  F1079   1.358   .     S
C1052  C1054   1.403   .     A
C1053  F1080   1.358   .     S
C1053  C1055   1.405   .     A
C1055  C772    1.465   1_565 S
C1056  H1088   1.106   .     S
C1056  C1058   1.536   .     S
C1056  H1089   1.110   .     S
C1056  C1057   1.525   .     S
C1057  C1070   1.434   .     A
C1058  H1086   1.108   .     S
C1058  C871    1.526   1_655 S
C1059  H1084   1.110   .     S
C1060  C1061   1.536   .     S
C1060  C1068   1.522   .     S
C1060  H1097   1.111   .     S
C1060  H1096   1.105   .     S
C1061  H1093   1.112   .     S
C1061  C498    1.526   1_556 S
C1061  H531    1.109   1_556 S
C1062  H1090   1.111   .     S
C1062  H1092   1.111   .     S
C1063  C1072   1.530   .     S
C1063  H1103   1.102   .     S
C1063  C1064   1.537   .     S
C1063  H1104   1.105   .     S
C1064  C1065   1.530   .     S
C1064  H1101   1.111   .     S
C1064  H1102   1.100   .     S
C1065  H1100   1.111   .     S
C1065  H1099   1.111   .     S
C1066  C1073   1.526   .     S
C1066  H1111   1.099   .     S
C1066  C1067   1.542   .     S
C1066  H1112   1.113   .     S
C1067  H1110   1.105   .     S
C1067  C1069   1.530   .     S
C1067  H1109   1.113   .     S
C1068  C1071   1.429   .     A
C1069  H1106   1.110   .     S
C1069  H1107   1.110   .     S
C1069  H920    1.111   1_655 S
C1070  F1081   1.355   .     S
C1070  N1119   1.376   .     A
C1071  N1120   1.377   .     A
C1071  F1082   1.352   .     S
C1072  N1119   1.398   .     A
C1072  C1074   1.409   .     A
C1073  N1120   1.399   .     A
C1074  H1116   1.079   .     S
Cu1075 Cu1076  2.701   .     S
Cu1075 N1120   2.029   .     S
Cu1075 O1124   1.957   .     S
Cu1075 O1121   1.951   .     S
Cu1075 O1128   1.961   .     S
Cu1075 O1125   1.958   .     S
Cu1076 O1127   1.961   .     S
Cu1076 O1126   1.958   .     S
Cu1076 N1119   2.029   .     S
Cu1076 O1122   1.951   .     S
Cu1076 O1123   1.957   .     S
H1083  C853    1.087   1_655 S
H1085  C495    1.109   1_556 S
H1087  C494    1.105   1_556 S
H1091  C498    1.111   1_556 S
H1098  C877    1.111   1_655 S
H1118  C307    1.109   1_656 S
