data_str_m2_o1_o2_pcu_sym.140
_audit_creation_date              2020-01-03
_audit_creation_method            'Materials Studio'
_symmetry_space_group_name_H-M    'P1'
_symmetry_Int_Tables_number       1
_symmetry_cell_setting            triclinic
loop_
_symmetry_equiv_pos_as_xyz
  x,y,z
_cell_length_a                    32.7019
_cell_length_b                    28.8404
_cell_length_c                    30.5094
_cell_angle_alpha                 90.0004
_cell_angle_beta                  96.2807
_cell_angle_gamma                 89.9993
loop_
_atom_site_label
_atom_site_type_symbol
_atom_site_fract_x
_atom_site_fract_y
_atom_site_fract_z
_atom_site_U_iso_or_equiv
_atom_site_adp_type
_atom_site_occupancy
C1     C     0.08778   0.16648   0.25322   0.00000  Uiso   1.00
C2     C     0.24555   0.16648   0.24678   0.00000  Uiso   1.00
C3     C     0.16856   0.16672   0.16518   0.00000  Uiso   1.00
C4     C     0.16477   0.16672   0.33482   0.00000  Uiso   1.00
C5     C     0.14152   0.02474   0.21927   0.00000  Uiso   1.00
C6     C     0.19538   0.30902   0.27728   0.00000  Uiso   1.00
C7     C     0.19182   0.02474   0.28073   0.00000  Uiso   1.00
C8     C     0.13795   0.30902   0.22272   0.00000  Uiso   1.00
C9     C     0.02139   0.12302   0.25411   0.00000  Uiso   1.00
C10    C     0.31223   0.20754   0.24417   0.00000  Uiso   1.00
C11    C     0.31195   0.12301   0.24590   0.00000  Uiso   1.00
C12    C     0.02110   0.20754   0.25582   0.00000  Uiso   1.00
C13    C     0.15649   0.20368   0.04551   0.00000  Uiso   1.00
C14    C     0.15179   0.12497   0.45067   0.00000  Uiso   1.00
C15    C     0.17687   0.20367   0.45450   0.00000  Uiso   1.00
C16    C     0.18154   0.12496   0.04933   0.00000  Uiso   1.00
C17    C     0.16061   0.20661   0.09104   0.00000  Uiso   1.00
C18    C     0.14919   0.12644   0.40466   0.00000  Uiso   1.00
C19    C     0.17275   0.20661   0.40896   0.00000  Uiso   1.00
C20    C     0.18413   0.12644   0.09533   0.00000  Uiso   1.00
C21    C     0.17133   0.16672   0.11696   0.00000  Uiso   1.00
C22    C     0.16201   0.16672   0.38305   0.00000  Uiso   1.00
C23    C     0.16715   0.16331   0.02419   0.00000  Uiso   1.00
C24    C     0.16619   0.16331   0.47581   0.00000  Uiso   1.00
C25    C     0.29018   0.16560   0.24390   0.00000  Uiso   1.00
C26    C     0.04316   0.16560   0.25610   0.00000  Uiso   1.00
Cu27   Cu    0.16667   0.21355   0.25000   0.00000  Uiso   1.00
Cu28   Cu    0.16667   0.11978   0.25000   0.00000  Uiso   1.00
H29    H     0.14577   0.23399   0.02667   0.00000  Uiso   1.00
H30    H     0.14122   0.09440   0.46673   0.00000  Uiso   1.00
H31    H     0.18760   0.23398   0.47333   0.00000  Uiso   1.00
H32    H     0.19209   0.09438   0.03327   0.00000  Uiso   1.00
N33    N     0.16667   0.28402   0.25000   0.00000  Uiso   1.00
N34    N     0.16667   0.04931   0.25000   0.00000  Uiso   1.00
O35    O     0.10655   0.20625   0.24999   0.00000  Uiso   1.00
O36    O     0.22679   0.12709   0.25000   0.00000  Uiso   1.00
O37    O     0.22679   0.20625   0.25000   0.00000  Uiso   1.00
O38    O     0.10655   0.12709   0.24999   0.00000  Uiso   1.00
O39    O     0.16666   0.20626   0.18573   0.00000  Uiso   1.00
O40    O     0.16667   0.12707   0.31427   0.00000  Uiso   1.00
O41    O     0.16667   0.20626   0.31427   0.00000  Uiso   1.00
O42    O     0.16666   0.12707   0.18573   0.00000  Uiso   1.00
C43    C     0.11989   0.04752   0.17962   0.00000  Uiso   1.00
O44    O     0.09381   0.07713   0.18283   0.00000  Uiso   1.00
O45    O     0.12707   0.03160   0.13789   0.00000  Uiso   1.00
H46    H     0.11005   0.04863   0.11317   0.00000  Uiso   1.00
C47    C     0.23315   0.28776   0.30130   0.00000  Uiso   1.00
O48    O     0.23208   0.25128   0.32112   0.00000  Uiso   1.00
O49    O     0.27051   0.31174   0.30303   0.00000  Uiso   1.00
H50    H     0.29391   0.29490   0.32094   0.00000  Uiso   1.00
C51    C     0.21343   0.04752   0.32039   0.00000  Uiso   1.00
O52    O     0.23951   0.07714   0.31717   0.00000  Uiso   1.00
O53    O     0.20626   0.03160   0.36211   0.00000  Uiso   1.00
H54    H     0.22328   0.04863   0.38684   0.00000  Uiso   1.00
C55    C     0.10019   0.28776   0.19869   0.00000  Uiso   1.00
O56    O     0.10125   0.25128   0.17887   0.00000  Uiso   1.00
O57    O     0.06282   0.31174   0.19696   0.00000  Uiso   1.00
H58    H     0.03942   0.29491   0.17904   0.00000  Uiso   1.00
Cl59   Cl    0.15608   0.26300   0.11198   0.00000  Uiso   1.00
Cl60   Cl    0.12458   0.07914   0.37611   0.00000  Uiso   1.00
Cl61   Cl    0.17729   0.26299   0.38803   0.00000  Uiso   1.00
Cl62   Cl    0.20874   0.07913   0.12388   0.00000  Uiso   1.00
Cl63   Cl    0.04574   0.06877   0.26679   0.00000  Uiso   1.00
Cl64   Cl    0.28958   0.25959   0.22251   0.00000  Uiso   1.00
Cl65   Cl    0.28760   0.06877   0.23323   0.00000  Uiso   1.00
Cl66   Cl    0.04375   0.25959   0.27748   0.00000  Uiso   1.00
C67    C     0.42112   0.16648   0.25322   0.00000  Uiso   1.00
C68    C     0.57888   0.16648   0.24678   0.00000  Uiso   1.00
C69    C     0.50190   0.16672   0.16518   0.00000  Uiso   1.00
C70    C     0.49810   0.16672   0.33482   0.00000  Uiso   1.00
C71    C     0.47485   0.02474   0.21927   0.00000  Uiso   1.00
C72    C     0.52871   0.30902   0.27728   0.00000  Uiso   1.00
C73    C     0.52515   0.02474   0.28073   0.00000  Uiso   1.00
C74    C     0.47128   0.30902   0.22272   0.00000  Uiso   1.00
C75    C     0.35472   0.12302   0.25411   0.00000  Uiso   1.00
C76    C     0.64557   0.20754   0.24417   0.00000  Uiso   1.00
C77    C     0.64528   0.12301   0.24590   0.00000  Uiso   1.00
C78    C     0.35443   0.20754   0.25582   0.00000  Uiso   1.00
C79    C     0.48982   0.20368   0.04551   0.00000  Uiso   1.00
C80    C     0.48512   0.12497   0.45067   0.00000  Uiso   1.00
C81    C     0.51021   0.20367   0.45450   0.00000  Uiso   1.00
C82    C     0.51487   0.12496   0.04933   0.00000  Uiso   1.00
C83    C     0.49394   0.20661   0.09104   0.00000  Uiso   1.00
C84    C     0.48253   0.12644   0.40466   0.00000  Uiso   1.00
C85    C     0.50608   0.20661   0.40896   0.00000  Uiso   1.00
C86    C     0.51746   0.12644   0.09533   0.00000  Uiso   1.00
C87    C     0.50466   0.16672   0.11696   0.00000  Uiso   1.00
C88    C     0.49534   0.16672   0.38305   0.00000  Uiso   1.00
C89    C     0.50048   0.16331   0.02419   0.00000  Uiso   1.00
C90    C     0.49952   0.16331   0.47581   0.00000  Uiso   1.00
C91    C     0.62351   0.16560   0.24390   0.00000  Uiso   1.00
C92    C     0.37649   0.16560   0.25610   0.00000  Uiso   1.00
Cu93   Cu    0.50000   0.21355   0.25000   0.00000  Uiso   1.00
Cu94   Cu    0.50000   0.11978   0.25000   0.00000  Uiso   1.00
H95    H     0.47911   0.23399   0.02667   0.00000  Uiso   1.00
H96    H     0.47455   0.09440   0.46673   0.00000  Uiso   1.00
H97    H     0.52094   0.23398   0.47333   0.00000  Uiso   1.00
H98    H     0.52543   0.09438   0.03327   0.00000  Uiso   1.00
N99    N     0.50000   0.28402   0.25000   0.00000  Uiso   1.00
N100   N     0.50000   0.04931   0.25000   0.00000  Uiso   1.00
O101   O     0.43988   0.20625   0.24999   0.00000  Uiso   1.00
O102   O     0.56012   0.12709   0.25000   0.00000  Uiso   1.00
O103   O     0.56012   0.20625   0.25000   0.00000  Uiso   1.00
O104   O     0.43988   0.12709   0.24999   0.00000  Uiso   1.00
O105   O     0.50000   0.20626   0.18573   0.00000  Uiso   1.00
O106   O     0.50000   0.12707   0.31427   0.00000  Uiso   1.00
O107   O     0.50000   0.20626   0.31427   0.00000  Uiso   1.00
O108   O     0.50000   0.12707   0.18573   0.00000  Uiso   1.00
C109   C     0.45323   0.04752   0.17962   0.00000  Uiso   1.00
O110   O     0.42714   0.07713   0.18283   0.00000  Uiso   1.00
O111   O     0.46040   0.03160   0.13789   0.00000  Uiso   1.00
H112   H     0.44338   0.04863   0.11317   0.00000  Uiso   1.00
C113   C     0.56648   0.28776   0.30130   0.00000  Uiso   1.00
O114   O     0.56542   0.25128   0.32112   0.00000  Uiso   1.00
O115   O     0.60385   0.31174   0.30303   0.00000  Uiso   1.00
H116   H     0.62725   0.29490   0.32094   0.00000  Uiso   1.00
C117   C     0.54677   0.04752   0.32039   0.00000  Uiso   1.00
O118   O     0.57285   0.07714   0.31717   0.00000  Uiso   1.00
O119   O     0.53959   0.03160   0.36211   0.00000  Uiso   1.00
H120   H     0.55661   0.04863   0.38684   0.00000  Uiso   1.00
C121   C     0.43352   0.28776   0.19869   0.00000  Uiso   1.00
O122   O     0.43459   0.25128   0.17887   0.00000  Uiso   1.00
O123   O     0.39615   0.31174   0.19696   0.00000  Uiso   1.00
H124   H     0.37276   0.29491   0.17904   0.00000  Uiso   1.00
Cl125  Cl    0.48941   0.26300   0.11198   0.00000  Uiso   1.00
Cl126  Cl    0.45791   0.07914   0.37611   0.00000  Uiso   1.00
Cl127  Cl    0.51062   0.26299   0.38803   0.00000  Uiso   1.00
Cl128  Cl    0.54207   0.07913   0.12388   0.00000  Uiso   1.00
Cl129  Cl    0.37907   0.06877   0.26679   0.00000  Uiso   1.00
Cl130  Cl    0.62291   0.25959   0.22251   0.00000  Uiso   1.00
Cl131  Cl    0.62093   0.06877   0.23323   0.00000  Uiso   1.00
Cl132  Cl    0.37709   0.25959   0.27748   0.00000  Uiso   1.00
C133   C     0.75445   0.16648   0.25322   0.00000  Uiso   1.00
C134   C     0.91222   0.16648   0.24678   0.00000  Uiso   1.00
C135   C     0.83523   0.16672   0.16518   0.00000  Uiso   1.00
C136   C     0.83144   0.16672   0.33482   0.00000  Uiso   1.00
C137   C     0.80818   0.02474   0.21927   0.00000  Uiso   1.00
C138   C     0.86205   0.30902   0.27728   0.00000  Uiso   1.00
C139   C     0.85848   0.02474   0.28073   0.00000  Uiso   1.00
C140   C     0.80462   0.30902   0.22272   0.00000  Uiso   1.00
C141   C     0.68805   0.12302   0.25411   0.00000  Uiso   1.00
C142   C     0.97890   0.20754   0.24417   0.00000  Uiso   1.00
C143   C     0.97861   0.12301   0.24590   0.00000  Uiso   1.00
C144   C     0.68777   0.20754   0.25582   0.00000  Uiso   1.00
C145   C     0.82315   0.20368   0.04551   0.00000  Uiso   1.00
C146   C     0.81845   0.12497   0.45067   0.00000  Uiso   1.00
C147   C     0.84354   0.20367   0.45450   0.00000  Uiso   1.00
C148   C     0.84820   0.12496   0.04933   0.00000  Uiso   1.00
C149   C     0.82728   0.20661   0.09104   0.00000  Uiso   1.00
C150   C     0.81586   0.12644   0.40466   0.00000  Uiso   1.00
C151   C     0.83941   0.20661   0.40896   0.00000  Uiso   1.00
C152   C     0.85080   0.12644   0.09533   0.00000  Uiso   1.00
C153   C     0.83800   0.16672   0.11696   0.00000  Uiso   1.00
C154   C     0.82868   0.16672   0.38305   0.00000  Uiso   1.00
C155   C     0.83382   0.16331   0.02419   0.00000  Uiso   1.00
C156   C     0.83286   0.16331   0.47581   0.00000  Uiso   1.00
C157   C     0.95684   0.16560   0.24390   0.00000  Uiso   1.00
C158   C     0.70982   0.16560   0.25610   0.00000  Uiso   1.00
Cu159  Cu    0.83333   0.21355   0.25000   0.00000  Uiso   1.00
Cu160  Cu    0.83333   0.11978   0.25000   0.00000  Uiso   1.00
H161   H     0.81244   0.23399   0.02667   0.00000  Uiso   1.00
H162   H     0.80789   0.09440   0.46673   0.00000  Uiso   1.00
H163   H     0.85427   0.23398   0.47333   0.00000  Uiso   1.00
H164   H     0.85876   0.09438   0.03327   0.00000  Uiso   1.00
N165   N     0.83333   0.28402   0.25000   0.00000  Uiso   1.00
N166   N     0.83333   0.04931   0.25000   0.00000  Uiso   1.00
O167   O     0.77321   0.20625   0.24999   0.00000  Uiso   1.00
O168   O     0.89345   0.12709   0.25000   0.00000  Uiso   1.00
O169   O     0.89345   0.20625   0.25000   0.00000  Uiso   1.00
O170   O     0.77321   0.12709   0.24999   0.00000  Uiso   1.00
O171   O     0.83333   0.20626   0.18573   0.00000  Uiso   1.00
O172   O     0.83334   0.12707   0.31427   0.00000  Uiso   1.00
O173   O     0.83334   0.20626   0.31427   0.00000  Uiso   1.00
O174   O     0.83333   0.12707   0.18573   0.00000  Uiso   1.00
C175   C     0.78656   0.04752   0.17962   0.00000  Uiso   1.00
O176   O     0.76047   0.07713   0.18283   0.00000  Uiso   1.00
O177   O     0.79373   0.03160   0.13789   0.00000  Uiso   1.00
H178   H     0.77671   0.04863   0.11317   0.00000  Uiso   1.00
C179   C     0.89981   0.28776   0.30130   0.00000  Uiso   1.00
O180   O     0.89875   0.25128   0.32112   0.00000  Uiso   1.00
O181   O     0.93718   0.31174   0.30303   0.00000  Uiso   1.00
H182   H     0.96058   0.29490   0.32094   0.00000  Uiso   1.00
C183   C     0.88010   0.04752   0.32039   0.00000  Uiso   1.00
O184   O     0.90618   0.07714   0.31717   0.00000  Uiso   1.00
O185   O     0.87293   0.03160   0.36211   0.00000  Uiso   1.00
H186   H     0.88994   0.04863   0.38684   0.00000  Uiso   1.00
C187   C     0.76686   0.28776   0.19869   0.00000  Uiso   1.00
O188   O     0.76792   0.25128   0.17887   0.00000  Uiso   1.00
O189   O     0.72949   0.31174   0.19696   0.00000  Uiso   1.00
H190   H     0.70609   0.29491   0.17904   0.00000  Uiso   1.00
Cl191  Cl    0.82275   0.26300   0.11198   0.00000  Uiso   1.00
Cl192  Cl    0.79125   0.07914   0.37611   0.00000  Uiso   1.00
Cl193  Cl    0.84396   0.26299   0.38803   0.00000  Uiso   1.00
Cl194  Cl    0.87541   0.07913   0.12388   0.00000  Uiso   1.00
Cl195  Cl    0.71241   0.06877   0.26679   0.00000  Uiso   1.00
Cl196  Cl    0.95624   0.25959   0.22251   0.00000  Uiso   1.00
Cl197  Cl    0.95427   0.06877   0.23323   0.00000  Uiso   1.00
Cl198  Cl    0.71042   0.25959   0.27748   0.00000  Uiso   1.00
C199   C     0.08778   0.49981   0.25322   0.00000  Uiso   1.00
C200   C     0.24555   0.49981   0.24678   0.00000  Uiso   1.00
C201   C     0.16856   0.50006   0.16518   0.00000  Uiso   1.00
C202   C     0.16477   0.50006   0.33482   0.00000  Uiso   1.00
C203   C     0.14152   0.35807   0.21927   0.00000  Uiso   1.00
C204   C     0.19538   0.64236   0.27728   0.00000  Uiso   1.00
C205   C     0.19182   0.35807   0.28073   0.00000  Uiso   1.00
C206   C     0.13795   0.64236   0.22272   0.00000  Uiso   1.00
C207   C     0.02139   0.45635   0.25411   0.00000  Uiso   1.00
C208   C     0.31223   0.54087   0.24417   0.00000  Uiso   1.00
C209   C     0.31195   0.45635   0.24590   0.00000  Uiso   1.00
C210   C     0.02110   0.54087   0.25582   0.00000  Uiso   1.00
C211   C     0.15649   0.53701   0.04551   0.00000  Uiso   1.00
C212   C     0.15179   0.45830   0.45067   0.00000  Uiso   1.00
C213   C     0.17687   0.53700   0.45450   0.00000  Uiso   1.00
C214   C     0.18154   0.45829   0.04933   0.00000  Uiso   1.00
C215   C     0.16061   0.53995   0.09104   0.00000  Uiso   1.00
C216   C     0.14919   0.45978   0.40466   0.00000  Uiso   1.00
C217   C     0.17275   0.53994   0.40896   0.00000  Uiso   1.00
C218   C     0.18413   0.45977   0.09533   0.00000  Uiso   1.00
C219   C     0.17133   0.50005   0.11696   0.00000  Uiso   1.00
C220   C     0.16201   0.50005   0.38305   0.00000  Uiso   1.00
C221   C     0.16715   0.49664   0.02419   0.00000  Uiso   1.00
C222   C     0.16619   0.49664   0.47581   0.00000  Uiso   1.00
C223   C     0.29018   0.49893   0.24390   0.00000  Uiso   1.00
C224   C     0.04316   0.49893   0.25610   0.00000  Uiso   1.00
Cu225  Cu    0.16667   0.54689   0.25000   0.00000  Uiso   1.00
Cu226  Cu    0.16667   0.45311   0.25000   0.00000  Uiso   1.00
H227   H     0.14577   0.56733   0.02667   0.00000  Uiso   1.00
H228   H     0.14122   0.42773   0.46673   0.00000  Uiso   1.00
H229   H     0.18760   0.56731   0.47333   0.00000  Uiso   1.00
H230   H     0.19209   0.42772   0.03327   0.00000  Uiso   1.00
N231   N     0.16667   0.61736   0.25000   0.00000  Uiso   1.00
N232   N     0.16667   0.38264   0.25000   0.00000  Uiso   1.00
O233   O     0.10655   0.53958   0.24999   0.00000  Uiso   1.00
O234   O     0.22679   0.46042   0.25000   0.00000  Uiso   1.00
O235   O     0.22679   0.53958   0.25000   0.00000  Uiso   1.00
O236   O     0.10655   0.46042   0.24999   0.00000  Uiso   1.00
O237   O     0.16666   0.53959   0.18573   0.00000  Uiso   1.00
O238   O     0.16667   0.46041   0.31427   0.00000  Uiso   1.00
O239   O     0.16667   0.53959   0.31427   0.00000  Uiso   1.00
O240   O     0.16666   0.46041   0.18573   0.00000  Uiso   1.00
C241   C     0.11989   0.38086   0.17962   0.00000  Uiso   1.00
O242   O     0.09381   0.41046   0.18283   0.00000  Uiso   1.00
O243   O     0.12707   0.36494   0.13789   0.00000  Uiso   1.00
H244   H     0.11005   0.38197   0.11317   0.00000  Uiso   1.00
C245   C     0.23315   0.62109   0.30130   0.00000  Uiso   1.00
O246   O     0.23208   0.58461   0.32112   0.00000  Uiso   1.00
O247   O     0.27051   0.64507   0.30303   0.00000  Uiso   1.00
H248   H     0.29391   0.62824   0.32094   0.00000  Uiso   1.00
C249   C     0.21343   0.38086   0.32039   0.00000  Uiso   1.00
O250   O     0.23951   0.41047   0.31717   0.00000  Uiso   1.00
O251   O     0.20626   0.36493   0.36211   0.00000  Uiso   1.00
H252   H     0.22328   0.38196   0.38684   0.00000  Uiso   1.00
C253   C     0.10019   0.62109   0.19869   0.00000  Uiso   1.00
O254   O     0.10125   0.58461   0.17887   0.00000  Uiso   1.00
O255   O     0.06282   0.64507   0.19696   0.00000  Uiso   1.00
H256   H     0.03942   0.62824   0.17904   0.00000  Uiso   1.00
Cl257  Cl    0.15608   0.59633   0.11198   0.00000  Uiso   1.00
Cl258  Cl    0.12458   0.41248   0.37611   0.00000  Uiso   1.00
Cl259  Cl    0.17729   0.59632   0.38803   0.00000  Uiso   1.00
Cl260  Cl    0.20874   0.41247   0.12388   0.00000  Uiso   1.00
Cl261  Cl    0.04574   0.40211   0.26679   0.00000  Uiso   1.00
Cl262  Cl    0.28958   0.59292   0.22251   0.00000  Uiso   1.00
Cl263  Cl    0.28760   0.40211   0.23323   0.00000  Uiso   1.00
Cl264  Cl    0.04375   0.59292   0.27748   0.00000  Uiso   1.00
C265   C     0.42112   0.49981   0.25322   0.00000  Uiso   1.00
C266   C     0.57888   0.49981   0.24678   0.00000  Uiso   1.00
C267   C     0.50190   0.50006   0.16518   0.00000  Uiso   1.00
C268   C     0.49810   0.50006   0.33482   0.00000  Uiso   1.00
C269   C     0.47485   0.35807   0.21927   0.00000  Uiso   1.00
C270   C     0.52871   0.64236   0.27728   0.00000  Uiso   1.00
C271   C     0.52515   0.35807   0.28073   0.00000  Uiso   1.00
C272   C     0.47128   0.64236   0.22272   0.00000  Uiso   1.00
C273   C     0.35472   0.45635   0.25411   0.00000  Uiso   1.00
C274   C     0.64557   0.54087   0.24417   0.00000  Uiso   1.00
C275   C     0.64528   0.45635   0.24590   0.00000  Uiso   1.00
C276   C     0.35443   0.54087   0.25582   0.00000  Uiso   1.00
C277   C     0.48982   0.53701   0.04551   0.00000  Uiso   1.00
C278   C     0.48512   0.45830   0.45067   0.00000  Uiso   1.00
C279   C     0.51021   0.53700   0.45450   0.00000  Uiso   1.00
C280   C     0.51487   0.45829   0.04933   0.00000  Uiso   1.00
C281   C     0.49394   0.53995   0.09104   0.00000  Uiso   1.00
C282   C     0.48253   0.45978   0.40466   0.00000  Uiso   1.00
C283   C     0.50608   0.53994   0.40896   0.00000  Uiso   1.00
C284   C     0.51746   0.45977   0.09533   0.00000  Uiso   1.00
C285   C     0.50466   0.50005   0.11696   0.00000  Uiso   1.00
C286   C     0.49534   0.50005   0.38305   0.00000  Uiso   1.00
C287   C     0.50048   0.49664   0.02419   0.00000  Uiso   1.00
C288   C     0.49952   0.49664   0.47581   0.00000  Uiso   1.00
C289   C     0.62351   0.49893   0.24390   0.00000  Uiso   1.00
C290   C     0.37649   0.49893   0.25610   0.00000  Uiso   1.00
Cu291  Cu    0.50000   0.54689   0.25000   0.00000  Uiso   1.00
Cu292  Cu    0.50000   0.45311   0.25000   0.00000  Uiso   1.00
H293   H     0.47911   0.56733   0.02667   0.00000  Uiso   1.00
H294   H     0.47455   0.42773   0.46673   0.00000  Uiso   1.00
H295   H     0.52094   0.56731   0.47333   0.00000  Uiso   1.00
H296   H     0.52543   0.42772   0.03327   0.00000  Uiso   1.00
N297   N     0.50000   0.61736   0.25000   0.00000  Uiso   1.00
N298   N     0.50000   0.38264   0.25000   0.00000  Uiso   1.00
O299   O     0.43988   0.53958   0.24999   0.00000  Uiso   1.00
O300   O     0.56012   0.46042   0.25000   0.00000  Uiso   1.00
O301   O     0.56012   0.53958   0.25000   0.00000  Uiso   1.00
O302   O     0.43988   0.46042   0.24999   0.00000  Uiso   1.00
O303   O     0.50000   0.53959   0.18573   0.00000  Uiso   1.00
O304   O     0.50000   0.46041   0.31427   0.00000  Uiso   1.00
O305   O     0.50000   0.53959   0.31427   0.00000  Uiso   1.00
O306   O     0.50000   0.46041   0.18573   0.00000  Uiso   1.00
C307   C     0.45323   0.38086   0.17962   0.00000  Uiso   1.00
O308   O     0.42714   0.41046   0.18283   0.00000  Uiso   1.00
O309   O     0.46040   0.36494   0.13789   0.00000  Uiso   1.00
H310   H     0.44338   0.38197   0.11317   0.00000  Uiso   1.00
C311   C     0.56648   0.62109   0.30130   0.00000  Uiso   1.00
O312   O     0.56542   0.58461   0.32112   0.00000  Uiso   1.00
O313   O     0.60385   0.64507   0.30303   0.00000  Uiso   1.00
H314   H     0.62725   0.62824   0.32094   0.00000  Uiso   1.00
C315   C     0.54677   0.38086   0.32039   0.00000  Uiso   1.00
O316   O     0.57285   0.41047   0.31717   0.00000  Uiso   1.00
O317   O     0.53959   0.36493   0.36211   0.00000  Uiso   1.00
H318   H     0.55661   0.38196   0.38684   0.00000  Uiso   1.00
C319   C     0.43352   0.62109   0.19869   0.00000  Uiso   1.00
O320   O     0.43459   0.58461   0.17887   0.00000  Uiso   1.00
O321   O     0.39615   0.64507   0.19696   0.00000  Uiso   1.00
H322   H     0.37276   0.62824   0.17904   0.00000  Uiso   1.00
Cl323  Cl    0.48941   0.59633   0.11198   0.00000  Uiso   1.00
Cl324  Cl    0.45791   0.41248   0.37611   0.00000  Uiso   1.00
Cl325  Cl    0.51062   0.59632   0.38803   0.00000  Uiso   1.00
Cl326  Cl    0.54207   0.41247   0.12388   0.00000  Uiso   1.00
Cl327  Cl    0.37907   0.40211   0.26679   0.00000  Uiso   1.00
Cl328  Cl    0.62291   0.59292   0.22251   0.00000  Uiso   1.00
Cl329  Cl    0.62093   0.40211   0.23323   0.00000  Uiso   1.00
Cl330  Cl    0.37709   0.59292   0.27748   0.00000  Uiso   1.00
C331   C     0.75445   0.49981   0.25322   0.00000  Uiso   1.00
C332   C     0.91222   0.49981   0.24678   0.00000  Uiso   1.00
C333   C     0.83523   0.50006   0.16518   0.00000  Uiso   1.00
C334   C     0.83144   0.50006   0.33482   0.00000  Uiso   1.00
C335   C     0.80818   0.35807   0.21927   0.00000  Uiso   1.00
C336   C     0.86205   0.64236   0.27728   0.00000  Uiso   1.00
C337   C     0.85848   0.35807   0.28073   0.00000  Uiso   1.00
C338   C     0.80462   0.64236   0.22272   0.00000  Uiso   1.00
C339   C     0.68805   0.45635   0.25411   0.00000  Uiso   1.00
C340   C     0.97890   0.54087   0.24417   0.00000  Uiso   1.00
C341   C     0.97861   0.45635   0.24590   0.00000  Uiso   1.00
C342   C     0.68777   0.54087   0.25582   0.00000  Uiso   1.00
C343   C     0.82315   0.53701   0.04551   0.00000  Uiso   1.00
C344   C     0.81845   0.45830   0.45067   0.00000  Uiso   1.00
C345   C     0.84354   0.53700   0.45450   0.00000  Uiso   1.00
C346   C     0.84820   0.45829   0.04933   0.00000  Uiso   1.00
C347   C     0.82728   0.53995   0.09104   0.00000  Uiso   1.00
C348   C     0.81586   0.45978   0.40466   0.00000  Uiso   1.00
C349   C     0.83941   0.53994   0.40896   0.00000  Uiso   1.00
C350   C     0.85080   0.45977   0.09533   0.00000  Uiso   1.00
C351   C     0.83800   0.50005   0.11696   0.00000  Uiso   1.00
C352   C     0.82868   0.50005   0.38305   0.00000  Uiso   1.00
C353   C     0.83382   0.49664   0.02419   0.00000  Uiso   1.00
C354   C     0.83286   0.49664   0.47581   0.00000  Uiso   1.00
C355   C     0.95684   0.49893   0.24390   0.00000  Uiso   1.00
C356   C     0.70982   0.49893   0.25610   0.00000  Uiso   1.00
Cu357  Cu    0.83333   0.54689   0.25000   0.00000  Uiso   1.00
Cu358  Cu    0.83333   0.45311   0.25000   0.00000  Uiso   1.00
H359   H     0.81244   0.56733   0.02667   0.00000  Uiso   1.00
H360   H     0.80789   0.42773   0.46673   0.00000  Uiso   1.00
H361   H     0.85427   0.56731   0.47333   0.00000  Uiso   1.00
H362   H     0.85876   0.42772   0.03327   0.00000  Uiso   1.00
N363   N     0.83333   0.61736   0.25000   0.00000  Uiso   1.00
N364   N     0.83333   0.38264   0.25000   0.00000  Uiso   1.00
O365   O     0.77321   0.53958   0.24999   0.00000  Uiso   1.00
O366   O     0.89345   0.46042   0.25000   0.00000  Uiso   1.00
O367   O     0.89345   0.53958   0.25000   0.00000  Uiso   1.00
O368   O     0.77321   0.46042   0.24999   0.00000  Uiso   1.00
O369   O     0.83333   0.53959   0.18573   0.00000  Uiso   1.00
O370   O     0.83334   0.46041   0.31427   0.00000  Uiso   1.00
O371   O     0.83334   0.53959   0.31427   0.00000  Uiso   1.00
O372   O     0.83333   0.46041   0.18573   0.00000  Uiso   1.00
C373   C     0.78656   0.38086   0.17962   0.00000  Uiso   1.00
O374   O     0.76047   0.41046   0.18283   0.00000  Uiso   1.00
O375   O     0.79373   0.36494   0.13789   0.00000  Uiso   1.00
H376   H     0.77671   0.38197   0.11317   0.00000  Uiso   1.00
C377   C     0.89981   0.62109   0.30130   0.00000  Uiso   1.00
O378   O     0.89875   0.58461   0.32112   0.00000  Uiso   1.00
O379   O     0.93718   0.64507   0.30303   0.00000  Uiso   1.00
H380   H     0.96058   0.62824   0.32094   0.00000  Uiso   1.00
C381   C     0.88010   0.38086   0.32039   0.00000  Uiso   1.00
O382   O     0.90618   0.41047   0.31717   0.00000  Uiso   1.00
O383   O     0.87293   0.36493   0.36211   0.00000  Uiso   1.00
H384   H     0.88994   0.38196   0.38684   0.00000  Uiso   1.00
C385   C     0.76686   0.62109   0.19869   0.00000  Uiso   1.00
O386   O     0.76792   0.58461   0.17887   0.00000  Uiso   1.00
O387   O     0.72949   0.64507   0.19696   0.00000  Uiso   1.00
H388   H     0.70609   0.62824   0.17904   0.00000  Uiso   1.00
Cl389  Cl    0.82275   0.59633   0.11198   0.00000  Uiso   1.00
Cl390  Cl    0.79125   0.41248   0.37611   0.00000  Uiso   1.00
Cl391  Cl    0.84396   0.59632   0.38803   0.00000  Uiso   1.00
Cl392  Cl    0.87541   0.41247   0.12388   0.00000  Uiso   1.00
Cl393  Cl    0.71241   0.40211   0.26679   0.00000  Uiso   1.00
Cl394  Cl    0.95624   0.59292   0.22251   0.00000  Uiso   1.00
Cl395  Cl    0.95427   0.40211   0.23323   0.00000  Uiso   1.00
Cl396  Cl    0.71042   0.59292   0.27748   0.00000  Uiso   1.00
C397   C     0.08778   0.83314   0.25322   0.00000  Uiso   1.00
C398   C     0.24555   0.83314   0.24678   0.00000  Uiso   1.00
C399   C     0.16856   0.83339   0.16518   0.00000  Uiso   1.00
C400   C     0.16477   0.83339   0.33482   0.00000  Uiso   1.00
C401   C     0.14152   0.69141   0.21927   0.00000  Uiso   1.00
C402   C     0.19538   0.97569   0.27728   0.00000  Uiso   1.00
C403   C     0.19182   0.69141   0.28073   0.00000  Uiso   1.00
C404   C     0.13795   0.97569   0.22272   0.00000  Uiso   1.00
C405   C     0.02139   0.78968   0.25411   0.00000  Uiso   1.00
C406   C     0.31223   0.87420   0.24417   0.00000  Uiso   1.00
C407   C     0.31195   0.78968   0.24590   0.00000  Uiso   1.00
C408   C     0.02110   0.87420   0.25582   0.00000  Uiso   1.00
C409   C     0.15649   0.87034   0.04551   0.00000  Uiso   1.00
C410   C     0.15179   0.79163   0.45067   0.00000  Uiso   1.00
C411   C     0.17687   0.87034   0.45450   0.00000  Uiso   1.00
C412   C     0.18154   0.79163   0.04933   0.00000  Uiso   1.00
C413   C     0.16061   0.87328   0.09104   0.00000  Uiso   1.00
C414   C     0.14919   0.79311   0.40466   0.00000  Uiso   1.00
C415   C     0.17275   0.87327   0.40896   0.00000  Uiso   1.00
C416   C     0.18413   0.79310   0.09533   0.00000  Uiso   1.00
C417   C     0.17133   0.83338   0.11696   0.00000  Uiso   1.00
C418   C     0.16201   0.83338   0.38305   0.00000  Uiso   1.00
C419   C     0.16715   0.82998   0.02419   0.00000  Uiso   1.00
C420   C     0.16619   0.82998   0.47581   0.00000  Uiso   1.00
C421   C     0.29018   0.83226   0.24390   0.00000  Uiso   1.00
C422   C     0.04316   0.83226   0.25610   0.00000  Uiso   1.00
Cu423  Cu    0.16667   0.88022   0.25000   0.00000  Uiso   1.00
Cu424  Cu    0.16667   0.78645   0.25000   0.00000  Uiso   1.00
H425   H     0.14577   0.90066   0.02667   0.00000  Uiso   1.00
H426   H     0.14122   0.76106   0.46673   0.00000  Uiso   1.00
H427   H     0.18760   0.90064   0.47333   0.00000  Uiso   1.00
H428   H     0.19209   0.76105   0.03327   0.00000  Uiso   1.00
N429   N     0.16667   0.95069   0.25000   0.00000  Uiso   1.00
N430   N     0.16667   0.71598   0.25000   0.00000  Uiso   1.00
O431   O     0.10655   0.87291   0.24999   0.00000  Uiso   1.00
O432   O     0.22679   0.79375   0.25000   0.00000  Uiso   1.00
O433   O     0.22679   0.87291   0.25000   0.00000  Uiso   1.00
O434   O     0.10655   0.79375   0.24999   0.00000  Uiso   1.00
O435   O     0.16666   0.87293   0.18573   0.00000  Uiso   1.00
O436   O     0.16667   0.79374   0.31427   0.00000  Uiso   1.00
O437   O     0.16667   0.87293   0.31427   0.00000  Uiso   1.00
O438   O     0.16666   0.79374   0.18573   0.00000  Uiso   1.00
C439   C     0.11989   0.71419   0.17962   0.00000  Uiso   1.00
O440   O     0.09381   0.74380   0.18283   0.00000  Uiso   1.00
O441   O     0.12707   0.69827   0.13789   0.00000  Uiso   1.00
H442   H     0.11005   0.71530   0.11317   0.00000  Uiso   1.00
C443   C     0.23315   0.95443   0.30130   0.00000  Uiso   1.00
O444   O     0.23208   0.91795   0.32112   0.00000  Uiso   1.00
O445   O     0.27051   0.97841   0.30303   0.00000  Uiso   1.00
H446   H     0.29391   0.96157   0.32094   0.00000  Uiso   1.00
C447   C     0.21343   0.71419   0.32039   0.00000  Uiso   1.00
O448   O     0.23951   0.74381   0.31717   0.00000  Uiso   1.00
O449   O     0.20626   0.69826   0.36211   0.00000  Uiso   1.00
H450   H     0.22328   0.71529   0.38684   0.00000  Uiso   1.00
C451   C     0.10019   0.95443   0.19869   0.00000  Uiso   1.00
O452   O     0.10125   0.91795   0.17887   0.00000  Uiso   1.00
O453   O     0.06282   0.97841   0.19696   0.00000  Uiso   1.00
H454   H     0.03942   0.96157   0.17904   0.00000  Uiso   1.00
Cl455  Cl    0.15608   0.92966   0.11198   0.00000  Uiso   1.00
Cl456  Cl    0.12458   0.74581   0.37611   0.00000  Uiso   1.00
Cl457  Cl    0.17729   0.92966   0.38803   0.00000  Uiso   1.00
Cl458  Cl    0.20874   0.74580   0.12388   0.00000  Uiso   1.00
Cl459  Cl    0.04574   0.73544   0.26679   0.00000  Uiso   1.00
Cl460  Cl    0.28958   0.92625   0.22251   0.00000  Uiso   1.00
Cl461  Cl    0.28760   0.73544   0.23323   0.00000  Uiso   1.00
Cl462  Cl    0.04375   0.92626   0.27748   0.00000  Uiso   1.00
C463   C     0.42112   0.83314   0.25322   0.00000  Uiso   1.00
C464   C     0.57888   0.83314   0.24678   0.00000  Uiso   1.00
C465   C     0.50190   0.83339   0.16518   0.00000  Uiso   1.00
C466   C     0.49810   0.83339   0.33482   0.00000  Uiso   1.00
C467   C     0.47485   0.69141   0.21927   0.00000  Uiso   1.00
C468   C     0.52871   0.97569   0.27728   0.00000  Uiso   1.00
C469   C     0.52515   0.69141   0.28073   0.00000  Uiso   1.00
C470   C     0.47128   0.97569   0.22272   0.00000  Uiso   1.00
C471   C     0.35472   0.78968   0.25411   0.00000  Uiso   1.00
C472   C     0.64557   0.87420   0.24417   0.00000  Uiso   1.00
C473   C     0.64528   0.78968   0.24590   0.00000  Uiso   1.00
C474   C     0.35443   0.87420   0.25582   0.00000  Uiso   1.00
C475   C     0.48982   0.87034   0.04551   0.00000  Uiso   1.00
C476   C     0.48512   0.79163   0.45067   0.00000  Uiso   1.00
C477   C     0.51021   0.87034   0.45450   0.00000  Uiso   1.00
C478   C     0.51487   0.79163   0.04933   0.00000  Uiso   1.00
C479   C     0.49394   0.87328   0.09104   0.00000  Uiso   1.00
C480   C     0.48253   0.79311   0.40466   0.00000  Uiso   1.00
C481   C     0.50608   0.87327   0.40896   0.00000  Uiso   1.00
C482   C     0.51746   0.79310   0.09533   0.00000  Uiso   1.00
C483   C     0.50466   0.83338   0.11696   0.00000  Uiso   1.00
C484   C     0.49534   0.83338   0.38305   0.00000  Uiso   1.00
C485   C     0.50048   0.82998   0.02419   0.00000  Uiso   1.00
C486   C     0.49952   0.82998   0.47581   0.00000  Uiso   1.00
C487   C     0.62351   0.83226   0.24390   0.00000  Uiso   1.00
C488   C     0.37649   0.83226   0.25610   0.00000  Uiso   1.00
Cu489  Cu    0.50000   0.88022   0.25000   0.00000  Uiso   1.00
Cu490  Cu    0.50000   0.78645   0.25000   0.00000  Uiso   1.00
H491   H     0.47911   0.90066   0.02667   0.00000  Uiso   1.00
H492   H     0.47455   0.76106   0.46673   0.00000  Uiso   1.00
H493   H     0.52094   0.90064   0.47333   0.00000  Uiso   1.00
H494   H     0.52543   0.76105   0.03327   0.00000  Uiso   1.00
N495   N     0.50000   0.95069   0.25000   0.00000  Uiso   1.00
N496   N     0.50000   0.71598   0.25000   0.00000  Uiso   1.00
O497   O     0.43988   0.87291   0.24999   0.00000  Uiso   1.00
O498   O     0.56012   0.79375   0.25000   0.00000  Uiso   1.00
O499   O     0.56012   0.87291   0.25000   0.00000  Uiso   1.00
O500   O     0.43988   0.79375   0.24999   0.00000  Uiso   1.00
O501   O     0.50000   0.87293   0.18573   0.00000  Uiso   1.00
O502   O     0.50000   0.79374   0.31427   0.00000  Uiso   1.00
O503   O     0.50000   0.87293   0.31427   0.00000  Uiso   1.00
O504   O     0.50000   0.79374   0.18573   0.00000  Uiso   1.00
C505   C     0.45323   0.71419   0.17962   0.00000  Uiso   1.00
O506   O     0.42714   0.74380   0.18283   0.00000  Uiso   1.00
O507   O     0.46040   0.69827   0.13789   0.00000  Uiso   1.00
H508   H     0.44338   0.71530   0.11317   0.00000  Uiso   1.00
C509   C     0.56648   0.95443   0.30130   0.00000  Uiso   1.00
O510   O     0.56542   0.91795   0.32112   0.00000  Uiso   1.00
O511   O     0.60385   0.97841   0.30303   0.00000  Uiso   1.00
H512   H     0.62725   0.96157   0.32094   0.00000  Uiso   1.00
C513   C     0.54677   0.71419   0.32039   0.00000  Uiso   1.00
O514   O     0.57285   0.74381   0.31717   0.00000  Uiso   1.00
O515   O     0.53959   0.69826   0.36211   0.00000  Uiso   1.00
H516   H     0.55661   0.71529   0.38684   0.00000  Uiso   1.00
C517   C     0.43352   0.95443   0.19869   0.00000  Uiso   1.00
O518   O     0.43459   0.91795   0.17887   0.00000  Uiso   1.00
O519   O     0.39615   0.97841   0.19696   0.00000  Uiso   1.00
H520   H     0.37276   0.96157   0.17904   0.00000  Uiso   1.00
Cl521  Cl    0.48941   0.92966   0.11198   0.00000  Uiso   1.00
Cl522  Cl    0.45791   0.74581   0.37611   0.00000  Uiso   1.00
Cl523  Cl    0.51062   0.92966   0.38803   0.00000  Uiso   1.00
Cl524  Cl    0.54207   0.74580   0.12388   0.00000  Uiso   1.00
Cl525  Cl    0.37907   0.73544   0.26679   0.00000  Uiso   1.00
Cl526  Cl    0.62291   0.92625   0.22251   0.00000  Uiso   1.00
Cl527  Cl    0.62093   0.73544   0.23323   0.00000  Uiso   1.00
Cl528  Cl    0.37709   0.92626   0.27748   0.00000  Uiso   1.00
C529   C     0.75445   0.83314   0.25322   0.00000  Uiso   1.00
C530   C     0.91222   0.83314   0.24678   0.00000  Uiso   1.00
C531   C     0.83523   0.83339   0.16518   0.00000  Uiso   1.00
C532   C     0.83144   0.83339   0.33482   0.00000  Uiso   1.00
C533   C     0.80818   0.69141   0.21927   0.00000  Uiso   1.00
C534   C     0.86205   0.97569   0.27728   0.00000  Uiso   1.00
C535   C     0.85848   0.69141   0.28073   0.00000  Uiso   1.00
C536   C     0.80462   0.97569   0.22272   0.00000  Uiso   1.00
C537   C     0.68805   0.78968   0.25411   0.00000  Uiso   1.00
C538   C     0.97890   0.87420   0.24417   0.00000  Uiso   1.00
C539   C     0.97861   0.78968   0.24590   0.00000  Uiso   1.00
C540   C     0.68777   0.87420   0.25582   0.00000  Uiso   1.00
C541   C     0.82315   0.87034   0.04551   0.00000  Uiso   1.00
C542   C     0.81845   0.79163   0.45067   0.00000  Uiso   1.00
C543   C     0.84354   0.87034   0.45450   0.00000  Uiso   1.00
C544   C     0.84820   0.79163   0.04933   0.00000  Uiso   1.00
C545   C     0.82728   0.87328   0.09104   0.00000  Uiso   1.00
C546   C     0.81586   0.79311   0.40466   0.00000  Uiso   1.00
C547   C     0.83941   0.87327   0.40896   0.00000  Uiso   1.00
C548   C     0.85080   0.79310   0.09533   0.00000  Uiso   1.00
C549   C     0.83800   0.83338   0.11696   0.00000  Uiso   1.00
C550   C     0.82868   0.83338   0.38305   0.00000  Uiso   1.00
C551   C     0.83382   0.82998   0.02419   0.00000  Uiso   1.00
C552   C     0.83286   0.82998   0.47581   0.00000  Uiso   1.00
C553   C     0.95684   0.83226   0.24390   0.00000  Uiso   1.00
C554   C     0.70982   0.83226   0.25610   0.00000  Uiso   1.00
Cu555  Cu    0.83333   0.88022   0.25000   0.00000  Uiso   1.00
Cu556  Cu    0.83333   0.78645   0.25000   0.00000  Uiso   1.00
H557   H     0.81244   0.90066   0.02667   0.00000  Uiso   1.00
H558   H     0.80789   0.76106   0.46673   0.00000  Uiso   1.00
H559   H     0.85427   0.90064   0.47333   0.00000  Uiso   1.00
H560   H     0.85876   0.76105   0.03327   0.00000  Uiso   1.00
N561   N     0.83333   0.95069   0.25000   0.00000  Uiso   1.00
N562   N     0.83333   0.71598   0.25000   0.00000  Uiso   1.00
O563   O     0.77321   0.87291   0.24999   0.00000  Uiso   1.00
O564   O     0.89345   0.79375   0.25000   0.00000  Uiso   1.00
O565   O     0.89345   0.87291   0.25000   0.00000  Uiso   1.00
O566   O     0.77321   0.79375   0.24999   0.00000  Uiso   1.00
O567   O     0.83333   0.87293   0.18573   0.00000  Uiso   1.00
O568   O     0.83334   0.79374   0.31427   0.00000  Uiso   1.00
O569   O     0.83334   0.87293   0.31427   0.00000  Uiso   1.00
O570   O     0.83333   0.79374   0.18573   0.00000  Uiso   1.00
C571   C     0.78656   0.71419   0.17962   0.00000  Uiso   1.00
O572   O     0.76047   0.74380   0.18283   0.00000  Uiso   1.00
O573   O     0.79373   0.69827   0.13789   0.00000  Uiso   1.00
H574   H     0.77671   0.71530   0.11317   0.00000  Uiso   1.00
C575   C     0.89981   0.95443   0.30130   0.00000  Uiso   1.00
O576   O     0.89875   0.91795   0.32112   0.00000  Uiso   1.00
O577   O     0.93718   0.97841   0.30303   0.00000  Uiso   1.00
H578   H     0.96058   0.96157   0.32094   0.00000  Uiso   1.00
C579   C     0.88010   0.71419   0.32039   0.00000  Uiso   1.00
O580   O     0.90618   0.74381   0.31717   0.00000  Uiso   1.00
O581   O     0.87293   0.69826   0.36211   0.00000  Uiso   1.00
H582   H     0.88994   0.71529   0.38684   0.00000  Uiso   1.00
C583   C     0.76686   0.95443   0.19869   0.00000  Uiso   1.00
O584   O     0.76792   0.91795   0.17887   0.00000  Uiso   1.00
O585   O     0.72949   0.97841   0.19696   0.00000  Uiso   1.00
H586   H     0.70609   0.96157   0.17904   0.00000  Uiso   1.00
Cl587  Cl    0.82275   0.92966   0.11198   0.00000  Uiso   1.00
Cl588  Cl    0.79125   0.74581   0.37611   0.00000  Uiso   1.00
Cl589  Cl    0.84396   0.92966   0.38803   0.00000  Uiso   1.00
Cl590  Cl    0.87541   0.74580   0.12388   0.00000  Uiso   1.00
Cl591  Cl    0.71241   0.73544   0.26679   0.00000  Uiso   1.00
Cl592  Cl    0.95624   0.92625   0.22251   0.00000  Uiso   1.00
Cl593  Cl    0.95427   0.73544   0.23323   0.00000  Uiso   1.00
Cl594  Cl    0.71042   0.92626   0.27748   0.00000  Uiso   1.00
C595   C     0.08778   0.16648   0.75322   0.00000  Uiso   1.00
C596   C     0.24555   0.16648   0.74678   0.00000  Uiso   1.00
C597   C     0.16856   0.16672   0.66518   0.00000  Uiso   1.00
C598   C     0.16477   0.16672   0.83482   0.00000  Uiso   1.00
C599   C     0.14152   0.02474   0.71927   0.00000  Uiso   1.00
C600   C     0.19538   0.30902   0.77728   0.00000  Uiso   1.00
C601   C     0.19182   0.02474   0.78073   0.00000  Uiso   1.00
C602   C     0.13795   0.30902   0.72272   0.00000  Uiso   1.00
C603   C     0.02139   0.12302   0.75411   0.00000  Uiso   1.00
C604   C     0.31223   0.20754   0.74417   0.00000  Uiso   1.00
C605   C     0.31195   0.12301   0.74590   0.00000  Uiso   1.00
C606   C     0.02110   0.20754   0.75582   0.00000  Uiso   1.00
C607   C     0.15649   0.20368   0.54551   0.00000  Uiso   1.00
C608   C     0.15179   0.12497   0.95067   0.00000  Uiso   1.00
C609   C     0.17687   0.20367   0.95450   0.00000  Uiso   1.00
C610   C     0.18154   0.12496   0.54933   0.00000  Uiso   1.00
C611   C     0.16061   0.20661   0.59104   0.00000  Uiso   1.00
C612   C     0.14919   0.12644   0.90466   0.00000  Uiso   1.00
C613   C     0.17275   0.20661   0.90896   0.00000  Uiso   1.00
C614   C     0.18413   0.12644   0.59533   0.00000  Uiso   1.00
C615   C     0.17133   0.16672   0.61696   0.00000  Uiso   1.00
C616   C     0.16201   0.16672   0.88305   0.00000  Uiso   1.00
C617   C     0.16715   0.16331   0.52419   0.00000  Uiso   1.00
C618   C     0.16619   0.16331   0.97581   0.00000  Uiso   1.00
C619   C     0.29018   0.16560   0.74390   0.00000  Uiso   1.00
C620   C     0.04316   0.16560   0.75610   0.00000  Uiso   1.00
Cu621  Cu    0.16667   0.21355   0.75000   0.00000  Uiso   1.00
Cu622  Cu    0.16667   0.11978   0.75000   0.00000  Uiso   1.00
H623   H     0.14577   0.23399   0.52667   0.00000  Uiso   1.00
H624   H     0.14122   0.09440   0.96673   0.00000  Uiso   1.00
H625   H     0.18760   0.23398   0.97333   0.00000  Uiso   1.00
H626   H     0.19209   0.09438   0.53327   0.00000  Uiso   1.00
N627   N     0.16667   0.28402   0.75000   0.00000  Uiso   1.00
N628   N     0.16667   0.04931   0.75000   0.00000  Uiso   1.00
O629   O     0.10655   0.20625   0.74999   0.00000  Uiso   1.00
O630   O     0.22679   0.12709   0.75000   0.00000  Uiso   1.00
O631   O     0.22679   0.20625   0.75000   0.00000  Uiso   1.00
O632   O     0.10655   0.12709   0.74999   0.00000  Uiso   1.00
O633   O     0.16666   0.20626   0.68573   0.00000  Uiso   1.00
O634   O     0.16667   0.12707   0.81427   0.00000  Uiso   1.00
O635   O     0.16667   0.20626   0.81427   0.00000  Uiso   1.00
O636   O     0.16666   0.12707   0.68573   0.00000  Uiso   1.00
C637   C     0.11989   0.04752   0.67962   0.00000  Uiso   1.00
O638   O     0.09381   0.07713   0.68283   0.00000  Uiso   1.00
O639   O     0.12707   0.03160   0.63789   0.00000  Uiso   1.00
H640   H     0.11005   0.04863   0.61317   0.00000  Uiso   1.00
C641   C     0.23315   0.28776   0.80130   0.00000  Uiso   1.00
O642   O     0.23208   0.25128   0.82112   0.00000  Uiso   1.00
O643   O     0.27051   0.31174   0.80303   0.00000  Uiso   1.00
H644   H     0.29391   0.29490   0.82094   0.00000  Uiso   1.00
C645   C     0.21343   0.04752   0.82039   0.00000  Uiso   1.00
O646   O     0.23951   0.07714   0.81717   0.00000  Uiso   1.00
O647   O     0.20626   0.03160   0.86211   0.00000  Uiso   1.00
H648   H     0.22328   0.04863   0.88684   0.00000  Uiso   1.00
C649   C     0.10019   0.28776   0.69869   0.00000  Uiso   1.00
O650   O     0.10125   0.25128   0.67887   0.00000  Uiso   1.00
O651   O     0.06282   0.31174   0.69696   0.00000  Uiso   1.00
H652   H     0.03942   0.29491   0.67904   0.00000  Uiso   1.00
Cl653  Cl    0.15608   0.26300   0.61198   0.00000  Uiso   1.00
Cl654  Cl    0.12458   0.07914   0.87611   0.00000  Uiso   1.00
Cl655  Cl    0.17729   0.26299   0.88803   0.00000  Uiso   1.00
Cl656  Cl    0.20874   0.07913   0.62388   0.00000  Uiso   1.00
Cl657  Cl    0.04574   0.06877   0.76679   0.00000  Uiso   1.00
Cl658  Cl    0.28958   0.25959   0.72251   0.00000  Uiso   1.00
Cl659  Cl    0.28760   0.06877   0.73323   0.00000  Uiso   1.00
Cl660  Cl    0.04375   0.25959   0.77748   0.00000  Uiso   1.00
C661   C     0.42112   0.16648   0.75322   0.00000  Uiso   1.00
C662   C     0.57888   0.16648   0.74678   0.00000  Uiso   1.00
C663   C     0.50190   0.16672   0.66518   0.00000  Uiso   1.00
C664   C     0.49810   0.16672   0.83482   0.00000  Uiso   1.00
C665   C     0.47485   0.02474   0.71927   0.00000  Uiso   1.00
C666   C     0.52871   0.30902   0.77728   0.00000  Uiso   1.00
C667   C     0.52515   0.02474   0.78073   0.00000  Uiso   1.00
C668   C     0.47128   0.30902   0.72272   0.00000  Uiso   1.00
C669   C     0.35472   0.12302   0.75411   0.00000  Uiso   1.00
C670   C     0.64557   0.20754   0.74417   0.00000  Uiso   1.00
C671   C     0.64528   0.12301   0.74590   0.00000  Uiso   1.00
C672   C     0.35443   0.20754   0.75582   0.00000  Uiso   1.00
C673   C     0.48982   0.20368   0.54551   0.00000  Uiso   1.00
C674   C     0.48512   0.12497   0.95067   0.00000  Uiso   1.00
C675   C     0.51021   0.20367   0.95450   0.00000  Uiso   1.00
C676   C     0.51487   0.12496   0.54933   0.00000  Uiso   1.00
C677   C     0.49394   0.20661   0.59104   0.00000  Uiso   1.00
C678   C     0.48253   0.12644   0.90466   0.00000  Uiso   1.00
C679   C     0.50608   0.20661   0.90896   0.00000  Uiso   1.00
C680   C     0.51746   0.12644   0.59533   0.00000  Uiso   1.00
C681   C     0.50466   0.16672   0.61696   0.00000  Uiso   1.00
C682   C     0.49534   0.16672   0.88305   0.00000  Uiso   1.00
C683   C     0.50048   0.16331   0.52419   0.00000  Uiso   1.00
C684   C     0.49952   0.16331   0.97581   0.00000  Uiso   1.00
C685   C     0.62351   0.16560   0.74390   0.00000  Uiso   1.00
C686   C     0.37649   0.16560   0.75610   0.00000  Uiso   1.00
Cu687  Cu    0.50000   0.21355   0.75000   0.00000  Uiso   1.00
Cu688  Cu    0.50000   0.11978   0.75000   0.00000  Uiso   1.00
H689   H     0.47911   0.23399   0.52667   0.00000  Uiso   1.00
H690   H     0.47455   0.09440   0.96673   0.00000  Uiso   1.00
H691   H     0.52094   0.23398   0.97333   0.00000  Uiso   1.00
H692   H     0.52543   0.09438   0.53327   0.00000  Uiso   1.00
N693   N     0.50000   0.28402   0.75000   0.00000  Uiso   1.00
N694   N     0.50000   0.04931   0.75000   0.00000  Uiso   1.00
O695   O     0.43988   0.20625   0.74999   0.00000  Uiso   1.00
O696   O     0.56012   0.12709   0.75000   0.00000  Uiso   1.00
O697   O     0.56012   0.20625   0.75000   0.00000  Uiso   1.00
O698   O     0.43988   0.12709   0.74999   0.00000  Uiso   1.00
O699   O     0.50000   0.20626   0.68573   0.00000  Uiso   1.00
O700   O     0.50000   0.12707   0.81427   0.00000  Uiso   1.00
O701   O     0.50000   0.20626   0.81427   0.00000  Uiso   1.00
O702   O     0.50000   0.12707   0.68573   0.00000  Uiso   1.00
C703   C     0.45323   0.04752   0.67962   0.00000  Uiso   1.00
O704   O     0.42714   0.07713   0.68283   0.00000  Uiso   1.00
O705   O     0.46040   0.03160   0.63789   0.00000  Uiso   1.00
H706   H     0.44338   0.04863   0.61317   0.00000  Uiso   1.00
C707   C     0.56648   0.28776   0.80130   0.00000  Uiso   1.00
O708   O     0.56542   0.25128   0.82112   0.00000  Uiso   1.00
O709   O     0.60385   0.31174   0.80303   0.00000  Uiso   1.00
H710   H     0.62725   0.29490   0.82094   0.00000  Uiso   1.00
C711   C     0.54677   0.04752   0.82039   0.00000  Uiso   1.00
O712   O     0.57285   0.07714   0.81717   0.00000  Uiso   1.00
O713   O     0.53959   0.03160   0.86211   0.00000  Uiso   1.00
H714   H     0.55661   0.04863   0.88684   0.00000  Uiso   1.00
C715   C     0.43352   0.28776   0.69869   0.00000  Uiso   1.00
O716   O     0.43459   0.25128   0.67887   0.00000  Uiso   1.00
O717   O     0.39615   0.31174   0.69696   0.00000  Uiso   1.00
H718   H     0.37276   0.29491   0.67904   0.00000  Uiso   1.00
Cl719  Cl    0.48941   0.26300   0.61198   0.00000  Uiso   1.00
Cl720  Cl    0.45791   0.07914   0.87611   0.00000  Uiso   1.00
Cl721  Cl    0.51062   0.26299   0.88803   0.00000  Uiso   1.00
Cl722  Cl    0.54207   0.07913   0.62388   0.00000  Uiso   1.00
Cl723  Cl    0.37907   0.06877   0.76679   0.00000  Uiso   1.00
Cl724  Cl    0.62291   0.25959   0.72251   0.00000  Uiso   1.00
Cl725  Cl    0.62093   0.06877   0.73323   0.00000  Uiso   1.00
Cl726  Cl    0.37709   0.25959   0.77748   0.00000  Uiso   1.00
C727   C     0.75445   0.16648   0.75322   0.00000  Uiso   1.00
C728   C     0.91222   0.16648   0.74678   0.00000  Uiso   1.00
C729   C     0.83523   0.16672   0.66518   0.00000  Uiso   1.00
C730   C     0.83144   0.16672   0.83482   0.00000  Uiso   1.00
C731   C     0.80818   0.02474   0.71927   0.00000  Uiso   1.00
C732   C     0.86205   0.30902   0.77728   0.00000  Uiso   1.00
C733   C     0.85848   0.02474   0.78073   0.00000  Uiso   1.00
C734   C     0.80462   0.30902   0.72272   0.00000  Uiso   1.00
C735   C     0.68805   0.12302   0.75411   0.00000  Uiso   1.00
C736   C     0.97890   0.20754   0.74417   0.00000  Uiso   1.00
C737   C     0.97861   0.12301   0.74590   0.00000  Uiso   1.00
C738   C     0.68777   0.20754   0.75582   0.00000  Uiso   1.00
C739   C     0.82315   0.20368   0.54551   0.00000  Uiso   1.00
C740   C     0.81845   0.12497   0.95067   0.00000  Uiso   1.00
C741   C     0.84354   0.20367   0.95450   0.00000  Uiso   1.00
C742   C     0.84820   0.12496   0.54933   0.00000  Uiso   1.00
C743   C     0.82728   0.20661   0.59104   0.00000  Uiso   1.00
C744   C     0.81586   0.12644   0.90466   0.00000  Uiso   1.00
C745   C     0.83941   0.20661   0.90896   0.00000  Uiso   1.00
C746   C     0.85080   0.12644   0.59533   0.00000  Uiso   1.00
C747   C     0.83800   0.16672   0.61696   0.00000  Uiso   1.00
C748   C     0.82868   0.16672   0.88305   0.00000  Uiso   1.00
C749   C     0.83382   0.16331   0.52419   0.00000  Uiso   1.00
C750   C     0.83286   0.16331   0.97581   0.00000  Uiso   1.00
C751   C     0.95684   0.16560   0.74390   0.00000  Uiso   1.00
C752   C     0.70982   0.16560   0.75610   0.00000  Uiso   1.00
Cu753  Cu    0.83333   0.21355   0.75000   0.00000  Uiso   1.00
Cu754  Cu    0.83333   0.11978   0.75000   0.00000  Uiso   1.00
H755   H     0.81244   0.23399   0.52667   0.00000  Uiso   1.00
H756   H     0.80789   0.09440   0.96673   0.00000  Uiso   1.00
H757   H     0.85427   0.23398   0.97333   0.00000  Uiso   1.00
H758   H     0.85876   0.09438   0.53327   0.00000  Uiso   1.00
N759   N     0.83333   0.28402   0.75000   0.00000  Uiso   1.00
N760   N     0.83333   0.04931   0.75000   0.00000  Uiso   1.00
O761   O     0.77321   0.20625   0.74999   0.00000  Uiso   1.00
O762   O     0.89345   0.12709   0.75000   0.00000  Uiso   1.00
O763   O     0.89345   0.20625   0.75000   0.00000  Uiso   1.00
O764   O     0.77321   0.12709   0.74999   0.00000  Uiso   1.00
O765   O     0.83333   0.20626   0.68573   0.00000  Uiso   1.00
O766   O     0.83334   0.12707   0.81427   0.00000  Uiso   1.00
O767   O     0.83334   0.20626   0.81427   0.00000  Uiso   1.00
O768   O     0.83333   0.12707   0.68573   0.00000  Uiso   1.00
C769   C     0.78656   0.04752   0.67962   0.00000  Uiso   1.00
O770   O     0.76047   0.07713   0.68283   0.00000  Uiso   1.00
O771   O     0.79373   0.03160   0.63789   0.00000  Uiso   1.00
H772   H     0.77671   0.04863   0.61317   0.00000  Uiso   1.00
C773   C     0.89981   0.28776   0.80130   0.00000  Uiso   1.00
O774   O     0.89875   0.25128   0.82112   0.00000  Uiso   1.00
O775   O     0.93718   0.31174   0.80303   0.00000  Uiso   1.00
H776   H     0.96058   0.29490   0.82094   0.00000  Uiso   1.00
C777   C     0.88010   0.04752   0.82039   0.00000  Uiso   1.00
O778   O     0.90618   0.07714   0.81717   0.00000  Uiso   1.00
O779   O     0.87293   0.03160   0.86211   0.00000  Uiso   1.00
H780   H     0.88994   0.04863   0.88684   0.00000  Uiso   1.00
C781   C     0.76686   0.28776   0.69869   0.00000  Uiso   1.00
O782   O     0.76792   0.25128   0.67887   0.00000  Uiso   1.00
O783   O     0.72949   0.31174   0.69696   0.00000  Uiso   1.00
H784   H     0.70609   0.29491   0.67904   0.00000  Uiso   1.00
Cl785  Cl    0.82275   0.26300   0.61198   0.00000  Uiso   1.00
Cl786  Cl    0.79125   0.07914   0.87611   0.00000  Uiso   1.00
Cl787  Cl    0.84396   0.26299   0.88803   0.00000  Uiso   1.00
Cl788  Cl    0.87541   0.07913   0.62388   0.00000  Uiso   1.00
Cl789  Cl    0.71241   0.06877   0.76679   0.00000  Uiso   1.00
Cl790  Cl    0.95624   0.25959   0.72251   0.00000  Uiso   1.00
Cl791  Cl    0.95427   0.06877   0.73323   0.00000  Uiso   1.00
Cl792  Cl    0.71042   0.25959   0.77748   0.00000  Uiso   1.00
C793   C     0.08778   0.49981   0.75322   0.00000  Uiso   1.00
C794   C     0.24555   0.49981   0.74678   0.00000  Uiso   1.00
C795   C     0.16856   0.50006   0.66518   0.00000  Uiso   1.00
C796   C     0.16477   0.50006   0.83482   0.00000  Uiso   1.00
C797   C     0.14152   0.35807   0.71927   0.00000  Uiso   1.00
C798   C     0.19538   0.64236   0.77728   0.00000  Uiso   1.00
C799   C     0.19182   0.35807   0.78073   0.00000  Uiso   1.00
C800   C     0.13795   0.64236   0.72272   0.00000  Uiso   1.00
C801   C     0.02139   0.45635   0.75411   0.00000  Uiso   1.00
C802   C     0.31223   0.54087   0.74417   0.00000  Uiso   1.00
C803   C     0.31195   0.45635   0.74590   0.00000  Uiso   1.00
C804   C     0.02110   0.54087   0.75582   0.00000  Uiso   1.00
C805   C     0.15649   0.53701   0.54551   0.00000  Uiso   1.00
C806   C     0.15179   0.45830   0.95067   0.00000  Uiso   1.00
C807   C     0.17687   0.53700   0.95450   0.00000  Uiso   1.00
C808   C     0.18154   0.45829   0.54933   0.00000  Uiso   1.00
C809   C     0.16061   0.53995   0.59104   0.00000  Uiso   1.00
C810   C     0.14919   0.45978   0.90466   0.00000  Uiso   1.00
C811   C     0.17275   0.53994   0.90896   0.00000  Uiso   1.00
C812   C     0.18413   0.45977   0.59533   0.00000  Uiso   1.00
C813   C     0.17133   0.50005   0.61696   0.00000  Uiso   1.00
C814   C     0.16201   0.50005   0.88305   0.00000  Uiso   1.00
C815   C     0.16715   0.49664   0.52419   0.00000  Uiso   1.00
C816   C     0.16619   0.49664   0.97581   0.00000  Uiso   1.00
C817   C     0.29018   0.49893   0.74390   0.00000  Uiso   1.00
C818   C     0.04316   0.49893   0.75610   0.00000  Uiso   1.00
Cu819  Cu    0.16667   0.54689   0.75000   0.00000  Uiso   1.00
Cu820  Cu    0.16667   0.45311   0.75000   0.00000  Uiso   1.00
H821   H     0.14577   0.56733   0.52667   0.00000  Uiso   1.00
H822   H     0.14122   0.42773   0.96673   0.00000  Uiso   1.00
H823   H     0.18760   0.56731   0.97333   0.00000  Uiso   1.00
H824   H     0.19209   0.42772   0.53327   0.00000  Uiso   1.00
N825   N     0.16667   0.61736   0.75000   0.00000  Uiso   1.00
N826   N     0.16667   0.38264   0.75000   0.00000  Uiso   1.00
O827   O     0.10655   0.53958   0.74999   0.00000  Uiso   1.00
O828   O     0.22679   0.46042   0.75000   0.00000  Uiso   1.00
O829   O     0.22679   0.53958   0.75000   0.00000  Uiso   1.00
O830   O     0.10655   0.46042   0.74999   0.00000  Uiso   1.00
O831   O     0.16666   0.53959   0.68573   0.00000  Uiso   1.00
O832   O     0.16667   0.46041   0.81427   0.00000  Uiso   1.00
O833   O     0.16667   0.53959   0.81427   0.00000  Uiso   1.00
O834   O     0.16666   0.46041   0.68573   0.00000  Uiso   1.00
C835   C     0.11989   0.38086   0.67962   0.00000  Uiso   1.00
O836   O     0.09381   0.41046   0.68283   0.00000  Uiso   1.00
O837   O     0.12707   0.36494   0.63789   0.00000  Uiso   1.00
H838   H     0.11005   0.38197   0.61317   0.00000  Uiso   1.00
C839   C     0.23315   0.62109   0.80130   0.00000  Uiso   1.00
O840   O     0.23208   0.58461   0.82112   0.00000  Uiso   1.00
O841   O     0.27051   0.64507   0.80303   0.00000  Uiso   1.00
H842   H     0.29391   0.62824   0.82094   0.00000  Uiso   1.00
C843   C     0.21343   0.38086   0.82039   0.00000  Uiso   1.00
O844   O     0.23951   0.41047   0.81717   0.00000  Uiso   1.00
O845   O     0.20626   0.36493   0.86211   0.00000  Uiso   1.00
H846   H     0.22328   0.38196   0.88684   0.00000  Uiso   1.00
C847   C     0.10019   0.62109   0.69869   0.00000  Uiso   1.00
O848   O     0.10125   0.58461   0.67887   0.00000  Uiso   1.00
O849   O     0.06282   0.64507   0.69696   0.00000  Uiso   1.00
H850   H     0.03942   0.62824   0.67904   0.00000  Uiso   1.00
Cl851  Cl    0.15608   0.59633   0.61198   0.00000  Uiso   1.00
Cl852  Cl    0.12458   0.41248   0.87611   0.00000  Uiso   1.00
Cl853  Cl    0.17729   0.59632   0.88803   0.00000  Uiso   1.00
Cl854  Cl    0.20874   0.41247   0.62388   0.00000  Uiso   1.00
Cl855  Cl    0.04574   0.40211   0.76679   0.00000  Uiso   1.00
Cl856  Cl    0.28958   0.59292   0.72251   0.00000  Uiso   1.00
Cl857  Cl    0.28760   0.40211   0.73323   0.00000  Uiso   1.00
Cl858  Cl    0.04375   0.59292   0.77748   0.00000  Uiso   1.00
C859   C     0.42112   0.49981   0.75322   0.00000  Uiso   1.00
C860   C     0.57888   0.49981   0.74678   0.00000  Uiso   1.00
C861   C     0.50190   0.50006   0.66518   0.00000  Uiso   1.00
C862   C     0.49810   0.50006   0.83482   0.00000  Uiso   1.00
C863   C     0.47485   0.35807   0.71927   0.00000  Uiso   1.00
C864   C     0.52871   0.64236   0.77728   0.00000  Uiso   1.00
C865   C     0.52515   0.35807   0.78073   0.00000  Uiso   1.00
C866   C     0.47128   0.64236   0.72272   0.00000  Uiso   1.00
C867   C     0.35472   0.45635   0.75411   0.00000  Uiso   1.00
C868   C     0.64557   0.54087   0.74417   0.00000  Uiso   1.00
C869   C     0.64528   0.45635   0.74590   0.00000  Uiso   1.00
C870   C     0.35443   0.54087   0.75582   0.00000  Uiso   1.00
C871   C     0.48982   0.53701   0.54551   0.00000  Uiso   1.00
C872   C     0.48512   0.45830   0.95067   0.00000  Uiso   1.00
C873   C     0.51021   0.53700   0.95450   0.00000  Uiso   1.00
C874   C     0.51487   0.45829   0.54933   0.00000  Uiso   1.00
C875   C     0.49394   0.53995   0.59104   0.00000  Uiso   1.00
C876   C     0.48253   0.45978   0.90466   0.00000  Uiso   1.00
C877   C     0.50608   0.53994   0.90896   0.00000  Uiso   1.00
C878   C     0.51746   0.45977   0.59533   0.00000  Uiso   1.00
C879   C     0.50466   0.50005   0.61696   0.00000  Uiso   1.00
C880   C     0.49534   0.50005   0.88305   0.00000  Uiso   1.00
C881   C     0.50048   0.49664   0.52419   0.00000  Uiso   1.00
C882   C     0.49952   0.49664   0.97581   0.00000  Uiso   1.00
C883   C     0.62351   0.49893   0.74390   0.00000  Uiso   1.00
C884   C     0.37649   0.49893   0.75610   0.00000  Uiso   1.00
Cu885  Cu    0.50000   0.54689   0.75000   0.00000  Uiso   1.00
Cu886  Cu    0.50000   0.45311   0.75000   0.00000  Uiso   1.00
H887   H     0.47911   0.56733   0.52667   0.00000  Uiso   1.00
H888   H     0.47455   0.42773   0.96673   0.00000  Uiso   1.00
H889   H     0.52094   0.56731   0.97333   0.00000  Uiso   1.00
H890   H     0.52543   0.42772   0.53327   0.00000  Uiso   1.00
N891   N     0.50000   0.61736   0.75000   0.00000  Uiso   1.00
N892   N     0.50000   0.38264   0.75000   0.00000  Uiso   1.00
O893   O     0.43988   0.53958   0.74999   0.00000  Uiso   1.00
O894   O     0.56012   0.46042   0.75000   0.00000  Uiso   1.00
O895   O     0.56012   0.53958   0.75000   0.00000  Uiso   1.00
O896   O     0.43988   0.46042   0.74999   0.00000  Uiso   1.00
O897   O     0.50000   0.53959   0.68573   0.00000  Uiso   1.00
O898   O     0.50000   0.46041   0.81427   0.00000  Uiso   1.00
O899   O     0.50000   0.53959   0.81427   0.00000  Uiso   1.00
O900   O     0.50000   0.46041   0.68573   0.00000  Uiso   1.00
C901   C     0.45323   0.38086   0.67962   0.00000  Uiso   1.00
O902   O     0.42714   0.41046   0.68283   0.00000  Uiso   1.00
O903   O     0.46040   0.36494   0.63789   0.00000  Uiso   1.00
H904   H     0.44338   0.38197   0.61317   0.00000  Uiso   1.00
C905   C     0.56648   0.62109   0.80130   0.00000  Uiso   1.00
O906   O     0.56542   0.58461   0.82112   0.00000  Uiso   1.00
O907   O     0.60385   0.64507   0.80303   0.00000  Uiso   1.00
H908   H     0.62725   0.62824   0.82094   0.00000  Uiso   1.00
C909   C     0.54677   0.38086   0.82039   0.00000  Uiso   1.00
O910   O     0.57285   0.41047   0.81717   0.00000  Uiso   1.00
O911   O     0.53959   0.36493   0.86211   0.00000  Uiso   1.00
H912   H     0.55661   0.38196   0.88684   0.00000  Uiso   1.00
C913   C     0.43352   0.62109   0.69869   0.00000  Uiso   1.00
O914   O     0.43459   0.58461   0.67887   0.00000  Uiso   1.00
O915   O     0.39615   0.64507   0.69696   0.00000  Uiso   1.00
H916   H     0.37276   0.62824   0.67904   0.00000  Uiso   1.00
Cl917  Cl    0.48941   0.59633   0.61198   0.00000  Uiso   1.00
Cl918  Cl    0.45791   0.41248   0.87611   0.00000  Uiso   1.00
Cl919  Cl    0.51062   0.59632   0.88803   0.00000  Uiso   1.00
Cl920  Cl    0.54207   0.41247   0.62388   0.00000  Uiso   1.00
Cl921  Cl    0.37907   0.40211   0.76679   0.00000  Uiso   1.00
Cl922  Cl    0.62291   0.59292   0.72251   0.00000  Uiso   1.00
Cl923  Cl    0.62093   0.40211   0.73323   0.00000  Uiso   1.00
Cl924  Cl    0.37709   0.59292   0.77748   0.00000  Uiso   1.00
C925   C     0.75445   0.49981   0.75322   0.00000  Uiso   1.00
C926   C     0.91222   0.49981   0.74678   0.00000  Uiso   1.00
C927   C     0.83523   0.50006   0.66518   0.00000  Uiso   1.00
C928   C     0.83144   0.50006   0.83482   0.00000  Uiso   1.00
C929   C     0.80818   0.35807   0.71927   0.00000  Uiso   1.00
C930   C     0.86205   0.64236   0.77728   0.00000  Uiso   1.00
C931   C     0.85848   0.35807   0.78073   0.00000  Uiso   1.00
C932   C     0.80462   0.64236   0.72272   0.00000  Uiso   1.00
C933   C     0.68805   0.45635   0.75411   0.00000  Uiso   1.00
C934   C     0.97890   0.54087   0.74417   0.00000  Uiso   1.00
C935   C     0.97861   0.45635   0.74590   0.00000  Uiso   1.00
C936   C     0.68777   0.54087   0.75582   0.00000  Uiso   1.00
C937   C     0.82315   0.53701   0.54551   0.00000  Uiso   1.00
C938   C     0.81845   0.45830   0.95067   0.00000  Uiso   1.00
C939   C     0.84354   0.53700   0.95450   0.00000  Uiso   1.00
C940   C     0.84820   0.45829   0.54933   0.00000  Uiso   1.00
C941   C     0.82728   0.53995   0.59104   0.00000  Uiso   1.00
C942   C     0.81586   0.45978   0.90466   0.00000  Uiso   1.00
C943   C     0.83941   0.53994   0.90896   0.00000  Uiso   1.00
C944   C     0.85080   0.45977   0.59533   0.00000  Uiso   1.00
C945   C     0.83800   0.50005   0.61696   0.00000  Uiso   1.00
C946   C     0.82868   0.50005   0.88305   0.00000  Uiso   1.00
C947   C     0.83382   0.49664   0.52419   0.00000  Uiso   1.00
C948   C     0.83286   0.49664   0.97581   0.00000  Uiso   1.00
C949   C     0.95684   0.49893   0.74390   0.00000  Uiso   1.00
C950   C     0.70982   0.49893   0.75610   0.00000  Uiso   1.00
Cu951  Cu    0.83333   0.54689   0.75000   0.00000  Uiso   1.00
Cu952  Cu    0.83333   0.45311   0.75000   0.00000  Uiso   1.00
H953   H     0.81244   0.56733   0.52667   0.00000  Uiso   1.00
H954   H     0.80789   0.42773   0.96673   0.00000  Uiso   1.00
H955   H     0.85427   0.56731   0.97333   0.00000  Uiso   1.00
H956   H     0.85876   0.42772   0.53327   0.00000  Uiso   1.00
N957   N     0.83333   0.61736   0.75000   0.00000  Uiso   1.00
N958   N     0.83333   0.38264   0.75000   0.00000  Uiso   1.00
O959   O     0.77321   0.53958   0.74999   0.00000  Uiso   1.00
O960   O     0.89345   0.46042   0.75000   0.00000  Uiso   1.00
O961   O     0.89345   0.53958   0.75000   0.00000  Uiso   1.00
O962   O     0.77321   0.46042   0.74999   0.00000  Uiso   1.00
O963   O     0.83333   0.53959   0.68573   0.00000  Uiso   1.00
O964   O     0.83334   0.46041   0.81427   0.00000  Uiso   1.00
O965   O     0.83334   0.53959   0.81427   0.00000  Uiso   1.00
O966   O     0.83333   0.46041   0.68573   0.00000  Uiso   1.00
C967   C     0.78656   0.38086   0.67962   0.00000  Uiso   1.00
O968   O     0.76047   0.41046   0.68283   0.00000  Uiso   1.00
O969   O     0.79373   0.36494   0.63789   0.00000  Uiso   1.00
H970   H     0.77671   0.38197   0.61317   0.00000  Uiso   1.00
C971   C     0.89981   0.62109   0.80130   0.00000  Uiso   1.00
O972   O     0.89875   0.58461   0.82112   0.00000  Uiso   1.00
O973   O     0.93718   0.64507   0.80303   0.00000  Uiso   1.00
H974   H     0.96058   0.62824   0.82094   0.00000  Uiso   1.00
C975   C     0.88010   0.38086   0.82039   0.00000  Uiso   1.00
O976   O     0.90618   0.41047   0.81717   0.00000  Uiso   1.00
O977   O     0.87293   0.36493   0.86211   0.00000  Uiso   1.00
H978   H     0.88994   0.38196   0.88684   0.00000  Uiso   1.00
C979   C     0.76686   0.62109   0.69869   0.00000  Uiso   1.00
O980   O     0.76792   0.58461   0.67887   0.00000  Uiso   1.00
O981   O     0.72949   0.64507   0.69696   0.00000  Uiso   1.00
H982   H     0.70609   0.62824   0.67904   0.00000  Uiso   1.00
Cl983  Cl    0.82275   0.59633   0.61198   0.00000  Uiso   1.00
Cl984  Cl    0.79125   0.41248   0.87611   0.00000  Uiso   1.00
Cl985  Cl    0.84396   0.59632   0.88803   0.00000  Uiso   1.00
Cl986  Cl    0.87541   0.41247   0.62388   0.00000  Uiso   1.00
Cl987  Cl    0.71241   0.40211   0.76679   0.00000  Uiso   1.00
Cl988  Cl    0.95624   0.59292   0.72251   0.00000  Uiso   1.00
Cl989  Cl    0.95427   0.40211   0.73323   0.00000  Uiso   1.00
Cl990  Cl    0.71042   0.59292   0.77748   0.00000  Uiso   1.00
C991   C     0.08778   0.83314   0.75322   0.00000  Uiso   1.00
C992   C     0.24555   0.83314   0.74678   0.00000  Uiso   1.00
C993   C     0.16856   0.83339   0.66518   0.00000  Uiso   1.00
C994   C     0.16477   0.83339   0.83482   0.00000  Uiso   1.00
C995   C     0.14152   0.69141   0.71927   0.00000  Uiso   1.00
C996   C     0.19538   0.97569   0.77728   0.00000  Uiso   1.00
C997   C     0.19182   0.69141   0.78073   0.00000  Uiso   1.00
C998   C     0.13795   0.97569   0.72272   0.00000  Uiso   1.00
C999   C     0.02139   0.78968   0.75411   0.00000  Uiso   1.00
C1000  C     0.31223   0.87420   0.74417   0.00000  Uiso   1.00
C1001  C     0.31195   0.78968   0.74590   0.00000  Uiso   1.00
C1002  C     0.02110   0.87420   0.75582   0.00000  Uiso   1.00
C1003  C     0.15649   0.87034   0.54551   0.00000  Uiso   1.00
C1004  C     0.15179   0.79163   0.95067   0.00000  Uiso   1.00
C1005  C     0.17687   0.87034   0.95450   0.00000  Uiso   1.00
C1006  C     0.18154   0.79163   0.54933   0.00000  Uiso   1.00
C1007  C     0.16061   0.87328   0.59104   0.00000  Uiso   1.00
C1008  C     0.14919   0.79311   0.90466   0.00000  Uiso   1.00
C1009  C     0.17275   0.87327   0.90896   0.00000  Uiso   1.00
C1010  C     0.18413   0.79310   0.59533   0.00000  Uiso   1.00
C1011  C     0.17133   0.83338   0.61696   0.00000  Uiso   1.00
C1012  C     0.16201   0.83338   0.88305   0.00000  Uiso   1.00
C1013  C     0.16715   0.82998   0.52419   0.00000  Uiso   1.00
C1014  C     0.16619   0.82998   0.97581   0.00000  Uiso   1.00
C1015  C     0.29018   0.83226   0.74390   0.00000  Uiso   1.00
C1016  C     0.04316   0.83226   0.75610   0.00000  Uiso   1.00
Cu1017 Cu    0.16667   0.88022   0.75000   0.00000  Uiso   1.00
Cu1018 Cu    0.16667   0.78645   0.75000   0.00000  Uiso   1.00
H1019  H     0.14577   0.90066   0.52667   0.00000  Uiso   1.00
H1020  H     0.14122   0.76106   0.96673   0.00000  Uiso   1.00
H1021  H     0.18760   0.90064   0.97333   0.00000  Uiso   1.00
H1022  H     0.19209   0.76105   0.53327   0.00000  Uiso   1.00
N1023  N     0.16667   0.95069   0.75000   0.00000  Uiso   1.00
N1024  N     0.16667   0.71598   0.75000   0.00000  Uiso   1.00
O1025  O     0.10655   0.87291   0.74999   0.00000  Uiso   1.00
O1026  O     0.22679   0.79375   0.75000   0.00000  Uiso   1.00
O1027  O     0.22679   0.87291   0.75000   0.00000  Uiso   1.00
O1028  O     0.10655   0.79375   0.74999   0.00000  Uiso   1.00
O1029  O     0.16666   0.87293   0.68573   0.00000  Uiso   1.00
O1030  O     0.16667   0.79374   0.81427   0.00000  Uiso   1.00
O1031  O     0.16667   0.87293   0.81427   0.00000  Uiso   1.00
O1032  O     0.16666   0.79374   0.68573   0.00000  Uiso   1.00
C1033  C     0.11989   0.71419   0.67962   0.00000  Uiso   1.00
O1034  O     0.09381   0.74380   0.68283   0.00000  Uiso   1.00
O1035  O     0.12707   0.69827   0.63789   0.00000  Uiso   1.00
H1036  H     0.11005   0.71530   0.61317   0.00000  Uiso   1.00
C1037  C     0.23315   0.95443   0.80130   0.00000  Uiso   1.00
O1038  O     0.23208   0.91795   0.82112   0.00000  Uiso   1.00
O1039  O     0.27051   0.97841   0.80303   0.00000  Uiso   1.00
H1040  H     0.29391   0.96157   0.82094   0.00000  Uiso   1.00
C1041  C     0.21343   0.71419   0.82039   0.00000  Uiso   1.00
O1042  O     0.23951   0.74381   0.81717   0.00000  Uiso   1.00
O1043  O     0.20626   0.69826   0.86211   0.00000  Uiso   1.00
H1044  H     0.22328   0.71529   0.88684   0.00000  Uiso   1.00
C1045  C     0.10019   0.95443   0.69869   0.00000  Uiso   1.00
O1046  O     0.10125   0.91795   0.67887   0.00000  Uiso   1.00
O1047  O     0.06282   0.97841   0.69696   0.00000  Uiso   1.00
H1048  H     0.03942   0.96157   0.67904   0.00000  Uiso   1.00
Cl1049 Cl    0.15608   0.92966   0.61198   0.00000  Uiso   1.00
Cl1050 Cl    0.12458   0.74581   0.87611   0.00000  Uiso   1.00
Cl1051 Cl    0.17729   0.92966   0.88803   0.00000  Uiso   1.00
Cl1052 Cl    0.20874   0.74580   0.62388   0.00000  Uiso   1.00
Cl1053 Cl    0.04574   0.73544   0.76679   0.00000  Uiso   1.00
Cl1054 Cl    0.28958   0.92625   0.72251   0.00000  Uiso   1.00
Cl1055 Cl    0.28760   0.73544   0.73323   0.00000  Uiso   1.00
Cl1056 Cl    0.04375   0.92626   0.77748   0.00000  Uiso   1.00
C1057  C     0.42112   0.83314   0.75322   0.00000  Uiso   1.00
C1058  C     0.57888   0.83314   0.74678   0.00000  Uiso   1.00
C1059  C     0.50190   0.83339   0.66518   0.00000  Uiso   1.00
C1060  C     0.49810   0.83339   0.83482   0.00000  Uiso   1.00
C1061  C     0.47485   0.69141   0.71927   0.00000  Uiso   1.00
C1062  C     0.52871   0.97569   0.77728   0.00000  Uiso   1.00
C1063  C     0.52515   0.69141   0.78073   0.00000  Uiso   1.00
C1064  C     0.47128   0.97569   0.72272   0.00000  Uiso   1.00
C1065  C     0.35472   0.78968   0.75411   0.00000  Uiso   1.00
C1066  C     0.64557   0.87420   0.74417   0.00000  Uiso   1.00
C1067  C     0.64528   0.78968   0.74590   0.00000  Uiso   1.00
C1068  C     0.35443   0.87420   0.75582   0.00000  Uiso   1.00
C1069  C     0.48982   0.87034   0.54551   0.00000  Uiso   1.00
C1070  C     0.48512   0.79163   0.95067   0.00000  Uiso   1.00
C1071  C     0.51021   0.87034   0.95450   0.00000  Uiso   1.00
C1072  C     0.51487   0.79163   0.54933   0.00000  Uiso   1.00
C1073  C     0.49394   0.87328   0.59104   0.00000  Uiso   1.00
C1074  C     0.48253   0.79311   0.90466   0.00000  Uiso   1.00
C1075  C     0.50608   0.87327   0.90896   0.00000  Uiso   1.00
C1076  C     0.51746   0.79310   0.59533   0.00000  Uiso   1.00
C1077  C     0.50466   0.83338   0.61696   0.00000  Uiso   1.00
C1078  C     0.49534   0.83338   0.88305   0.00000  Uiso   1.00
C1079  C     0.50048   0.82998   0.52419   0.00000  Uiso   1.00
C1080  C     0.49952   0.82998   0.97581   0.00000  Uiso   1.00
C1081  C     0.62351   0.83226   0.74390   0.00000  Uiso   1.00
C1082  C     0.37649   0.83226   0.75610   0.00000  Uiso   1.00
Cu1083 Cu    0.50000   0.88022   0.75000   0.00000  Uiso   1.00
Cu1084 Cu    0.50000   0.78645   0.75000   0.00000  Uiso   1.00
H1085  H     0.47911   0.90066   0.52667   0.00000  Uiso   1.00
H1086  H     0.47455   0.76106   0.96673   0.00000  Uiso   1.00
H1087  H     0.52094   0.90064   0.97333   0.00000  Uiso   1.00
H1088  H     0.52543   0.76105   0.53327   0.00000  Uiso   1.00
N1089  N     0.50000   0.95069   0.75000   0.00000  Uiso   1.00
N1090  N     0.50000   0.71598   0.75000   0.00000  Uiso   1.00
O1091  O     0.43988   0.87291   0.74999   0.00000  Uiso   1.00
O1092  O     0.56012   0.79375   0.75000   0.00000  Uiso   1.00
O1093  O     0.56012   0.87291   0.75000   0.00000  Uiso   1.00
O1094  O     0.43988   0.79375   0.74999   0.00000  Uiso   1.00
O1095  O     0.50000   0.87293   0.68573   0.00000  Uiso   1.00
O1096  O     0.50000   0.79374   0.81427   0.00000  Uiso   1.00
O1097  O     0.50000   0.87293   0.81427   0.00000  Uiso   1.00
O1098  O     0.50000   0.79374   0.68573   0.00000  Uiso   1.00
C1099  C     0.45323   0.71419   0.67962   0.00000  Uiso   1.00
O1100  O     0.42714   0.74380   0.68283   0.00000  Uiso   1.00
O1101  O     0.46040   0.69827   0.63789   0.00000  Uiso   1.00
H1102  H     0.44338   0.71530   0.61317   0.00000  Uiso   1.00
C1103  C     0.56648   0.95443   0.80130   0.00000  Uiso   1.00
O1104  O     0.56542   0.91795   0.82112   0.00000  Uiso   1.00
O1105  O     0.60385   0.97841   0.80303   0.00000  Uiso   1.00
H1106  H     0.62725   0.96157   0.82094   0.00000  Uiso   1.00
C1107  C     0.54677   0.71419   0.82039   0.00000  Uiso   1.00
O1108  O     0.57285   0.74381   0.81717   0.00000  Uiso   1.00
O1109  O     0.53959   0.69826   0.86211   0.00000  Uiso   1.00
H1110  H     0.55661   0.71529   0.88684   0.00000  Uiso   1.00
C1111  C     0.43352   0.95443   0.69869   0.00000  Uiso   1.00
O1112  O     0.43459   0.91795   0.67887   0.00000  Uiso   1.00
O1113  O     0.39615   0.97841   0.69696   0.00000  Uiso   1.00
H1114  H     0.37276   0.96157   0.67904   0.00000  Uiso   1.00
Cl1115 Cl    0.48941   0.92966   0.61198   0.00000  Uiso   1.00
Cl1116 Cl    0.45791   0.74581   0.87611   0.00000  Uiso   1.00
Cl1117 Cl    0.51062   0.92966   0.88803   0.00000  Uiso   1.00
Cl1118 Cl    0.54207   0.74580   0.62388   0.00000  Uiso   1.00
Cl1119 Cl    0.37907   0.73544   0.76679   0.00000  Uiso   1.00
Cl1120 Cl    0.62291   0.92625   0.72251   0.00000  Uiso   1.00
Cl1121 Cl    0.62093   0.73544   0.73323   0.00000  Uiso   1.00
Cl1122 Cl    0.37709   0.92626   0.77748   0.00000  Uiso   1.00
C1123  C     0.75445   0.83314   0.75322   0.00000  Uiso   1.00
C1124  C     0.91222   0.83314   0.74678   0.00000  Uiso   1.00
C1125  C     0.83523   0.83339   0.66518   0.00000  Uiso   1.00
C1126  C     0.83144   0.83339   0.83482   0.00000  Uiso   1.00
C1127  C     0.80818   0.69141   0.71927   0.00000  Uiso   1.00
C1128  C     0.86205   0.97569   0.77728   0.00000  Uiso   1.00
C1129  C     0.85848   0.69141   0.78073   0.00000  Uiso   1.00
C1130  C     0.80462   0.97569   0.72272   0.00000  Uiso   1.00
C1131  C     0.68805   0.78968   0.75411   0.00000  Uiso   1.00
C1132  C     0.97890   0.87420   0.74417   0.00000  Uiso   1.00
C1133  C     0.97861   0.78968   0.74590   0.00000  Uiso   1.00
C1134  C     0.68777   0.87420   0.75582   0.00000  Uiso   1.00
C1135  C     0.82315   0.87034   0.54551   0.00000  Uiso   1.00
C1136  C     0.81845   0.79163   0.95067   0.00000  Uiso   1.00
C1137  C     0.84354   0.87034   0.95450   0.00000  Uiso   1.00
C1138  C     0.84820   0.79163   0.54933   0.00000  Uiso   1.00
C1139  C     0.82728   0.87328   0.59104   0.00000  Uiso   1.00
C1140  C     0.81586   0.79311   0.90466   0.00000  Uiso   1.00
C1141  C     0.83941   0.87327   0.90896   0.00000  Uiso   1.00
C1142  C     0.85080   0.79310   0.59533   0.00000  Uiso   1.00
C1143  C     0.83800   0.83338   0.61696   0.00000  Uiso   1.00
C1144  C     0.82868   0.83338   0.88305   0.00000  Uiso   1.00
C1145  C     0.83382   0.82998   0.52419   0.00000  Uiso   1.00
C1146  C     0.83286   0.82998   0.97581   0.00000  Uiso   1.00
C1147  C     0.95684   0.83226   0.74390   0.00000  Uiso   1.00
C1148  C     0.70982   0.83226   0.75610   0.00000  Uiso   1.00
Cu1149 Cu    0.83333   0.88022   0.75000   0.00000  Uiso   1.00
Cu1150 Cu    0.83333   0.78645   0.75000   0.00000  Uiso   1.00
H1151  H     0.81244   0.90066   0.52667   0.00000  Uiso   1.00
H1152  H     0.80789   0.76106   0.96673   0.00000  Uiso   1.00
H1153  H     0.85427   0.90064   0.97333   0.00000  Uiso   1.00
H1154  H     0.85876   0.76105   0.53327   0.00000  Uiso   1.00
N1155  N     0.83333   0.95069   0.75000   0.00000  Uiso   1.00
N1156  N     0.83333   0.71598   0.75000   0.00000  Uiso   1.00
O1157  O     0.77321   0.87291   0.74999   0.00000  Uiso   1.00
O1158  O     0.89345   0.79375   0.75000   0.00000  Uiso   1.00
O1159  O     0.89345   0.87291   0.75000   0.00000  Uiso   1.00
O1160  O     0.77321   0.79375   0.74999   0.00000  Uiso   1.00
O1161  O     0.83333   0.87293   0.68573   0.00000  Uiso   1.00
O1162  O     0.83334   0.79374   0.81427   0.00000  Uiso   1.00
O1163  O     0.83334   0.87293   0.81427   0.00000  Uiso   1.00
O1164  O     0.83333   0.79374   0.68573   0.00000  Uiso   1.00
C1165  C     0.78656   0.71419   0.67962   0.00000  Uiso   1.00
O1166  O     0.76047   0.74380   0.68283   0.00000  Uiso   1.00
O1167  O     0.79373   0.69827   0.63789   0.00000  Uiso   1.00
H1168  H     0.77671   0.71530   0.61317   0.00000  Uiso   1.00
C1169  C     0.89981   0.95443   0.80130   0.00000  Uiso   1.00
O1170  O     0.89875   0.91795   0.82112   0.00000  Uiso   1.00
O1171  O     0.93718   0.97841   0.80303   0.00000  Uiso   1.00
H1172  H     0.96058   0.96157   0.82094   0.00000  Uiso   1.00
C1173  C     0.88010   0.71419   0.82039   0.00000  Uiso   1.00
O1174  O     0.90618   0.74381   0.81717   0.00000  Uiso   1.00
O1175  O     0.87293   0.69826   0.86211   0.00000  Uiso   1.00
H1176  H     0.88994   0.71529   0.88684   0.00000  Uiso   1.00
C1177  C     0.76686   0.95443   0.69869   0.00000  Uiso   1.00
O1178  O     0.76792   0.91795   0.67887   0.00000  Uiso   1.00
O1179  O     0.72949   0.97841   0.69696   0.00000  Uiso   1.00
H1180  H     0.70609   0.96157   0.67904   0.00000  Uiso   1.00
Cl1181 Cl    0.82275   0.92966   0.61198   0.00000  Uiso   1.00
Cl1182 Cl    0.79125   0.74581   0.87611   0.00000  Uiso   1.00
Cl1183 Cl    0.84396   0.92966   0.88803   0.00000  Uiso   1.00
Cl1184 Cl    0.87541   0.74580   0.62388   0.00000  Uiso   1.00
Cl1185 Cl    0.71241   0.73544   0.76679   0.00000  Uiso   1.00
Cl1186 Cl    0.95624   0.92625   0.72251   0.00000  Uiso   1.00
Cl1187 Cl    0.95427   0.73544   0.73323   0.00000  Uiso   1.00
Cl1188 Cl    0.71042   0.92626   0.77748   0.00000  Uiso   1.00
loop_
_geom_bond_atom_site_label_1
_geom_bond_atom_site_label_2
_geom_bond_distance
_geom_bond_site_symmetry_2
_ccdc_geom_bond_type
C1     O35     1.310   .     A
C1     O38     1.300   .     A
C1     C26     1.472   .     S
C2     O37     1.310   .     A
C2     C25     1.472   .     S
C2     O36     1.300   .     A
C3     O42     1.309   .     A
C3     O39     1.306   .     A
C3     C21     1.484   .     S
C4     C22     1.484   .     S
C4     O41     1.306   .     A
C4     O40     1.309   .     A
C5     N34     1.374   .     A
C5     C43     1.486   .     S
C5     C404    1.424   1_545 S
C6     N33     1.387   .     A
C6     C47     1.497   .     S
C6     C205    1.424   .     S
C7     C51     1.486   .     S
C7     N34     1.374   .     A
C7     C402    1.424   1_545 S
C8     C55     1.497   .     S
C8     N33     1.387   .     A
C8     C203    1.424   .     S
C9     Cl63    1.779   .     S
C9     C26     1.417   .     A
C9     C143    1.394   1_455 S
C10    Cl64    1.770   .     S
C10    C25     1.408   .     A
C10    C78     1.387   .     S
C11    C25     1.417   .     A
C11    Cl65    1.779   .     S
C11    C75     1.394   .     S
C12    Cl66    1.770   .     S
C12    C26     1.408   .     A
C12    C142    1.387   1_455 S
C13    C17     1.384   .     A
C13    C23     1.396   .     A
C13    H29     1.083   .     S
C14    C18     1.397   .     A
C14    C24     1.398   .     A
C14    H30     1.083   .     S
C15    H31     1.083   .     S
C15    C19     1.384   .     A
C15    C24     1.396   .     A
C16    H32     1.084   .     S
C16    C20     1.397   .     A
C16    C23     1.398   .     A
C17    Cl59    1.759   .     S
C17    C21     1.418   .     A
C18    Cl60    1.765   .     S
C18    C22     1.421   .     A
C19    Cl61    1.759   .     S
C19    C22     1.418   .     A
C20    Cl62    1.765   .     S
C20    C21     1.421   .     A
C23    C618    1.473   1_554 S
C24    C617    1.473   .     S
Cu27   N33     2.032   .     S
Cu27   O37     1.977   .     S
Cu27   Cu28    2.704   .     S
Cu27   O39     1.972   .     S
Cu27   O35     1.977   .     S
Cu27   O41     1.972   .     S
Cu28   O38     1.977   .     S
Cu28   N34     2.032   .     S
Cu28   O36     1.977   .     S
Cu28   O40     1.972   .     S
Cu28   O42     1.972   .     S
C43    O45     1.397   .     S
C43    O44     1.219   .     D
O45    H46     1.014   .     S
C47    O48     1.216   .     D
C47    O49     1.400   .     S
O49    H50     1.014   .     S
C51    O52     1.219   .     D
C51    O53     1.397   .     S
O53    H54     1.014   .     S
C55    O56     1.216   .     D
C55    O57     1.400   .     S
O57    H58     1.014   .     S
C67    O101    1.310   .     A
C67    O104    1.300   .     A
C67    C92     1.472   .     S
C68    O103    1.310   .     A
C68    C91     1.472   .     S
C68    O102    1.300   .     A
C69    O108    1.309   .     A
C69    O105    1.306   .     A
C69    C87     1.484   .     S
C70    C88     1.484   .     S
C70    O107    1.306   .     A
C70    O106    1.309   .     A
C71    N100    1.374   .     A
C71    C109    1.486   .     S
C71    C470    1.424   1_545 S
C72    N99     1.387   .     A
C72    C113    1.497   .     S
C72    C271    1.424   .     S
C73    C117    1.486   .     S
C73    N100    1.374   .     A
C73    C468    1.424   1_545 S
C74    C121    1.497   .     S
C74    N99     1.387   .     A
C74    C269    1.424   .     S
C75    Cl129   1.779   .     S
C75    C92     1.417   .     A
C76    Cl130   1.770   .     S
C76    C91     1.408   .     A
C76    C144    1.387   .     S
C77    C91     1.417   .     A
C77    Cl131   1.779   .     S
C77    C141    1.394   .     S
C78    Cl132   1.770   .     S
C78    C92     1.408   .     A
C79    C83     1.384   .     A
C79    C89     1.396   .     A
C79    H95     1.083   .     S
C80    C84     1.397   .     A
C80    C90     1.398   .     A
C80    H96     1.083   .     S
C81    H97     1.083   .     S
C81    C85     1.384   .     A
C81    C90     1.396   .     A
C82    H98     1.084   .     S
C82    C86     1.397   .     A
C82    C89     1.398   .     A
C83    Cl125   1.759   .     S
C83    C87     1.418   .     A
C84    Cl126   1.765   .     S
C84    C88     1.421   .     A
C85    Cl127   1.759   .     S
C85    C88     1.418   .     A
C86    Cl128   1.765   .     S
C86    C87     1.421   .     A
C89    C684    1.473   1_554 S
C90    C683    1.473   .     S
Cu93   N99     2.032   .     S
Cu93   O103    1.977   .     S
Cu93   Cu94    2.704   .     S
Cu93   O105    1.972   .     S
Cu93   O101    1.977   .     S
Cu93   O107    1.972   .     S
Cu94   O104    1.977   .     S
Cu94   N100    2.032   .     S
Cu94   O102    1.977   .     S
Cu94   O106    1.972   .     S
Cu94   O108    1.972   .     S
C109   O111    1.397   .     S
C109   O110    1.219   .     D
O111   H112    1.014   .     S
C113   O114    1.216   .     D
C113   O115    1.400   .     S
O115   H116    1.014   .     S
C117   O118    1.219   .     D
C117   O119    1.397   .     S
O119   H120    1.014   .     S
C121   O122    1.216   .     D
C121   O123    1.400   .     S
O123   H124    1.014   .     S
C133   O167    1.310   .     A
C133   O170    1.300   .     A
C133   C158    1.472   .     S
C134   O169    1.310   .     A
C134   C157    1.472   .     S
C134   O168    1.300   .     A
C135   O174    1.309   .     A
C135   O171    1.306   .     A
C135   C153    1.484   .     S
C136   C154    1.484   .     S
C136   O173    1.306   .     A
C136   O172    1.309   .     A
C137   N166    1.374   .     A
C137   C175    1.486   .     S
C137   C536    1.424   1_545 S
C138   N165    1.387   .     A
C138   C179    1.497   .     S
C138   C337    1.424   .     S
C139   C183    1.486   .     S
C139   N166    1.374   .     A
C139   C534    1.424   1_545 S
C140   C187    1.497   .     S
C140   N165    1.387   .     A
C140   C335    1.424   .     S
C141   Cl195   1.779   .     S
C141   C158    1.417   .     A
C142   Cl196   1.770   .     S
C142   C157    1.408   .     A
C142   C12     1.387   1_655 S
C143   C157    1.417   .     A
C143   Cl197   1.779   .     S
C143   C9      1.394   1_655 S
C144   Cl198   1.770   .     S
C144   C158    1.408   .     A
C145   C149    1.384   .     A
C145   C155    1.396   .     A
C145   H161    1.083   .     S
C146   C150    1.397   .     A
C146   C156    1.398   .     A
C146   H162    1.083   .     S
C147   H163    1.083   .     S
C147   C151    1.384   .     A
C147   C156    1.396   .     A
C148   H164    1.084   .     S
C148   C152    1.397   .     A
C148   C155    1.398   .     A
C149   Cl191   1.759   .     S
C149   C153    1.418   .     A
C150   Cl192   1.765   .     S
C150   C154    1.421   .     A
C151   Cl193   1.759   .     S
C151   C154    1.418   .     A
C152   Cl194   1.765   .     S
C152   C153    1.421   .     A
C155   C750    1.473   1_554 S
C156   C749    1.473   .     S
Cu159  N165    2.032   .     S
Cu159  O169    1.977   .     S
Cu159  Cu160   2.704   .     S
Cu159  O171    1.972   .     S
Cu159  O167    1.977   .     S
Cu159  O173    1.972   .     S
Cu160  O170    1.977   .     S
Cu160  N166    2.032   .     S
Cu160  O168    1.977   .     S
Cu160  O172    1.972   .     S
Cu160  O174    1.972   .     S
C175   O177    1.397   .     S
C175   O176    1.219   .     D
O177   H178    1.014   .     S
C179   O180    1.216   .     D
C179   O181    1.400   .     S
O181   H182    1.014   .     S
C183   O184    1.219   .     D
C183   O185    1.397   .     S
O185   H186    1.014   .     S
C187   O188    1.216   .     D
C187   O189    1.400   .     S
O189   H190    1.014   .     S
C199   O233    1.310   .     A
C199   O236    1.300   .     A
C199   C224    1.472   .     S
C200   O235    1.310   .     A
C200   C223    1.472   .     S
C200   O234    1.300   .     A
C201   O240    1.309   .     A
C201   O237    1.306   .     A
C201   C219    1.484   .     S
C202   C220    1.484   .     S
C202   O239    1.306   .     A
C202   O238    1.309   .     A
C203   N232    1.374   .     A
C203   C241    1.486   .     S
C204   N231    1.387   .     A
C204   C245    1.497   .     S
C204   C403    1.424   .     S
C205   C249    1.486   .     S
C205   N232    1.374   .     A
C206   C253    1.497   .     S
C206   N231    1.387   .     A
C206   C401    1.424   .     S
C207   Cl261   1.779   .     S
C207   C224    1.417   .     A
C207   C341    1.394   1_455 S
C208   Cl262   1.770   .     S
C208   C223    1.408   .     A
C208   C276    1.387   .     S
C209   C223    1.417   .     A
C209   Cl263   1.779   .     S
C209   C273    1.394   .     S
C210   Cl264   1.770   .     S
C210   C224    1.408   .     A
C210   C340    1.387   1_455 S
C211   C215    1.384   .     A
C211   C221    1.396   .     A
C211   H227    1.083   .     S
C212   C216    1.397   .     A
C212   C222    1.398   .     A
C212   H228    1.083   .     S
C213   H229    1.083   .     S
C213   C217    1.384   .     A
C213   C222    1.396   .     A
C214   H230    1.084   .     S
C214   C218    1.397   .     A
C214   C221    1.398   .     A
C215   Cl257   1.759   .     S
C215   C219    1.418   .     A
C216   Cl258   1.765   .     S
C216   C220    1.421   .     A
C217   Cl259   1.759   .     S
C217   C220    1.418   .     A
C218   Cl260   1.765   .     S
C218   C219    1.421   .     A
C221   C816    1.473   1_554 S
C222   C815    1.473   .     S
Cu225  N231    2.032   .     S
Cu225  O235    1.977   .     S
Cu225  Cu226   2.704   .     S
Cu225  O237    1.972   .     S
Cu225  O233    1.977   .     S
Cu225  O239    1.972   .     S
Cu226  O236    1.977   .     S
Cu226  N232    2.032   .     S
Cu226  O234    1.977   .     S
Cu226  O238    1.972   .     S
Cu226  O240    1.972   .     S
C241   O243    1.397   .     S
C241   O242    1.219   .     D
O243   H244    1.014   .     S
C245   O246    1.216   .     D
C245   O247    1.400   .     S
O247   H248    1.014   .     S
C249   O250    1.219   .     D
C249   O251    1.397   .     S
O251   H252    1.014   .     S
C253   O254    1.216   .     D
C253   O255    1.400   .     S
O255   H256    1.014   .     S
C265   O299    1.310   .     A
C265   O302    1.300   .     A
C265   C290    1.472   .     S
C266   O301    1.310   .     A
C266   C289    1.472   .     S
C266   O300    1.300   .     A
C267   O306    1.309   .     A
C267   O303    1.306   .     A
C267   C285    1.484   .     S
C268   C286    1.484   .     S
C268   O305    1.306   .     A
C268   O304    1.309   .     A
C269   N298    1.374   .     A
C269   C307    1.486   .     S
C270   N297    1.387   .     A
C270   C311    1.497   .     S
C270   C469    1.424   .     S
C271   C315    1.486   .     S
C271   N298    1.374   .     A
C272   C319    1.497   .     S
C272   N297    1.387   .     A
C272   C467    1.424   .     S
C273   Cl327   1.779   .     S
C273   C290    1.417   .     A
C274   Cl328   1.770   .     S
C274   C289    1.408   .     A
C274   C342    1.387   .     S
C275   C289    1.417   .     A
C275   Cl329   1.779   .     S
C275   C339    1.394   .     S
C276   Cl330   1.770   .     S
C276   C290    1.408   .     A
C277   C281    1.384   .     A
C277   C287    1.396   .     A
C277   H293    1.083   .     S
C278   C282    1.397   .     A
C278   C288    1.398   .     A
C278   H294    1.083   .     S
C279   H295    1.083   .     S
C279   C283    1.384   .     A
C279   C288    1.396   .     A
C280   H296    1.084   .     S
C280   C284    1.397   .     A
C280   C287    1.398   .     A
C281   Cl323   1.759   .     S
C281   C285    1.418   .     A
C282   Cl324   1.765   .     S
C282   C286    1.421   .     A
C283   Cl325   1.759   .     S
C283   C286    1.418   .     A
C284   Cl326   1.765   .     S
C284   C285    1.421   .     A
C287   C882    1.473   1_554 S
C288   C881    1.473   .     S
Cu291  N297    2.032   .     S
Cu291  O301    1.977   .     S
Cu291  Cu292   2.704   .     S
Cu291  O303    1.972   .     S
Cu291  O299    1.977   .     S
Cu291  O305    1.972   .     S
Cu292  O302    1.977   .     S
Cu292  N298    2.032   .     S
Cu292  O300    1.977   .     S
Cu292  O304    1.972   .     S
Cu292  O306    1.972   .     S
C307   O309    1.397   .     S
C307   O308    1.219   .     D
O309   H310    1.014   .     S
C311   O312    1.216   .     D
C311   O313    1.400   .     S
O313   H314    1.014   .     S
C315   O316    1.219   .     D
C315   O317    1.397   .     S
O317   H318    1.014   .     S
C319   O320    1.216   .     D
C319   O321    1.400   .     S
O321   H322    1.014   .     S
C331   O365    1.310   .     A
C331   O368    1.300   .     A
C331   C356    1.472   .     S
C332   O367    1.310   .     A
C332   C355    1.472   .     S
C332   O366    1.300   .     A
C333   O372    1.309   .     A
C333   O369    1.306   .     A
C333   C351    1.484   .     S
C334   C352    1.484   .     S
C334   O371    1.306   .     A
C334   O370    1.309   .     A
C335   N364    1.374   .     A
C335   C373    1.486   .     S
C336   N363    1.387   .     A
C336   C377    1.497   .     S
C336   C535    1.424   .     S
C337   C381    1.486   .     S
C337   N364    1.374   .     A
C338   C385    1.497   .     S
C338   N363    1.387   .     A
C338   C533    1.424   .     S
C339   Cl393   1.779   .     S
C339   C356    1.417   .     A
C340   Cl394   1.770   .     S
C340   C355    1.408   .     A
C340   C210    1.387   1_655 S
C341   C355    1.417   .     A
C341   Cl395   1.779   .     S
C341   C207    1.394   1_655 S
C342   Cl396   1.770   .     S
C342   C356    1.408   .     A
C343   C347    1.384   .     A
C343   C353    1.396   .     A
C343   H359    1.083   .     S
C344   C348    1.397   .     A
C344   C354    1.398   .     A
C344   H360    1.083   .     S
C345   H361    1.083   .     S
C345   C349    1.384   .     A
C345   C354    1.396   .     A
C346   H362    1.084   .     S
C346   C350    1.397   .     A
C346   C353    1.398   .     A
C347   Cl389   1.759   .     S
C347   C351    1.418   .     A
C348   Cl390   1.765   .     S
C348   C352    1.421   .     A
C349   Cl391   1.759   .     S
C349   C352    1.418   .     A
C350   Cl392   1.765   .     S
C350   C351    1.421   .     A
C353   C948    1.473   1_554 S
C354   C947    1.473   .     S
Cu357  N363    2.032   .     S
Cu357  O367    1.977   .     S
Cu357  Cu358   2.704   .     S
Cu357  O369    1.972   .     S
Cu357  O365    1.977   .     S
Cu357  O371    1.972   .     S
Cu358  O368    1.977   .     S
Cu358  N364    2.032   .     S
Cu358  O366    1.977   .     S
Cu358  O370    1.972   .     S
Cu358  O372    1.972   .     S
C373   O375    1.397   .     S
C373   O374    1.219   .     D
O375   H376    1.014   .     S
C377   O378    1.216   .     D
C377   O379    1.400   .     S
O379   H380    1.014   .     S
C381   O382    1.219   .     D
C381   O383    1.397   .     S
O383   H384    1.014   .     S
C385   O386    1.216   .     D
C385   O387    1.400   .     S
O387   H388    1.014   .     S
C397   O431    1.310   .     A
C397   O434    1.300   .     A
C397   C422    1.472   .     S
C398   O433    1.310   .     A
C398   C421    1.472   .     S
C398   O432    1.300   .     A
C399   O438    1.309   .     A
C399   O435    1.306   .     A
C399   C417    1.484   .     S
C400   C418    1.484   .     S
C400   O437    1.306   .     A
C400   O436    1.309   .     A
C401   N430    1.374   .     A
C401   C439    1.486   .     S
C402   N429    1.387   .     A
C402   C443    1.497   .     S
C402   C7      1.424   1_565 S
C403   C447    1.486   .     S
C403   N430    1.374   .     A
C404   C451    1.497   .     S
C404   N429    1.387   .     A
C404   C5      1.424   1_565 S
C405   Cl459   1.779   .     S
C405   C422    1.417   .     A
C405   C539    1.394   1_455 S
C406   Cl460   1.770   .     S
C406   C421    1.408   .     A
C406   C474    1.387   .     S
C407   C421    1.417   .     A
C407   Cl461   1.779   .     S
C407   C471    1.394   .     S
C408   Cl462   1.770   .     S
C408   C422    1.408   .     A
C408   C538    1.387   1_455 S
C409   C413    1.384   .     A
C409   C419    1.396   .     A
C409   H425    1.083   .     S
C410   C414    1.397   .     A
C410   C420    1.398   .     A
C410   H426    1.083   .     S
C411   H427    1.083   .     S
C411   C415    1.384   .     A
C411   C420    1.396   .     A
C412   H428    1.084   .     S
C412   C416    1.397   .     A
C412   C419    1.398   .     A
C413   Cl455   1.759   .     S
C413   C417    1.418   .     A
C414   Cl456   1.765   .     S
C414   C418    1.421   .     A
C415   Cl457   1.759   .     S
C415   C418    1.418   .     A
C416   Cl458   1.765   .     S
C416   C417    1.421   .     A
C419   C1014   1.473   1_554 S
C420   C1013   1.473   .     S
Cu423  N429    2.032   .     S
Cu423  O433    1.977   .     S
Cu423  Cu424   2.704   .     S
Cu423  O435    1.972   .     S
Cu423  O431    1.977   .     S
Cu423  O437    1.972   .     S
Cu424  O434    1.977   .     S
Cu424  N430    2.032   .     S
Cu424  O432    1.977   .     S
Cu424  O436    1.972   .     S
Cu424  O438    1.972   .     S
C439   O441    1.397   .     S
C439   O440    1.219   .     D
O441   H442    1.014   .     S
C443   O444    1.216   .     D
C443   O445    1.400   .     S
O445   H446    1.014   .     S
C447   O448    1.219   .     D
C447   O449    1.397   .     S
O449   H450    1.014   .     S
C451   O452    1.216   .     D
C451   O453    1.400   .     S
O453   H454    1.014   .     S
C463   O497    1.310   .     A
C463   O500    1.300   .     A
C463   C488    1.472   .     S
C464   O499    1.310   .     A
C464   C487    1.472   .     S
C464   O498    1.300   .     A
C465   O504    1.309   .     A
C465   O501    1.306   .     A
C465   C483    1.484   .     S
C466   C484    1.484   .     S
C466   O503    1.306   .     A
C466   O502    1.309   .     A
C467   N496    1.374   .     A
C467   C505    1.486   .     S
C468   N495    1.387   .     A
C468   C509    1.497   .     S
C468   C73     1.424   1_565 S
C469   C513    1.486   .     S
C469   N496    1.374   .     A
C470   C517    1.497   .     S
C470   N495    1.387   .     A
C470   C71     1.424   1_565 S
C471   Cl525   1.779   .     S
C471   C488    1.417   .     A
C472   Cl526   1.770   .     S
C472   C487    1.408   .     A
C472   C540    1.387   .     S
C473   C487    1.417   .     A
C473   Cl527   1.779   .     S
C473   C537    1.394   .     S
C474   Cl528   1.770   .     S
C474   C488    1.408   .     A
C475   C479    1.384   .     A
C475   C485    1.396   .     A
C475   H491    1.083   .     S
C476   C480    1.397   .     A
C476   C486    1.398   .     A
C476   H492    1.083   .     S
C477   H493    1.083   .     S
C477   C481    1.384   .     A
C477   C486    1.396   .     A
C478   H494    1.084   .     S
C478   C482    1.397   .     A
C478   C485    1.398   .     A
C479   Cl521   1.759   .     S
C479   C483    1.418   .     A
C480   Cl522   1.765   .     S
C480   C484    1.421   .     A
C481   Cl523   1.759   .     S
C481   C484    1.418   .     A
C482   Cl524   1.765   .     S
C482   C483    1.421   .     A
C485   C1080   1.473   1_554 S
C486   C1079   1.473   .     S
Cu489  N495    2.032   .     S
Cu489  O499    1.977   .     S
Cu489  Cu490   2.704   .     S
Cu489  O501    1.972   .     S
Cu489  O497    1.977   .     S
Cu489  O503    1.972   .     S
Cu490  O500    1.977   .     S
Cu490  N496    2.032   .     S
Cu490  O498    1.977   .     S
Cu490  O502    1.972   .     S
Cu490  O504    1.972   .     S
C505   O507    1.397   .     S
C505   O506    1.219   .     D
O507   H508    1.014   .     S
C509   O510    1.216   .     D
C509   O511    1.400   .     S
O511   H512    1.014   .     S
C513   O514    1.219   .     D
C513   O515    1.397   .     S
O515   H516    1.014   .     S
C517   O518    1.216   .     D
C517   O519    1.400   .     S
O519   H520    1.014   .     S
C529   O563    1.310   .     A
C529   O566    1.300   .     A
C529   C554    1.472   .     S
C530   O565    1.310   .     A
C530   C553    1.472   .     S
C530   O564    1.300   .     A
C531   O570    1.309   .     A
C531   O567    1.306   .     A
C531   C549    1.484   .     S
C532   C550    1.484   .     S
C532   O569    1.306   .     A
C532   O568    1.309   .     A
C533   N562    1.374   .     A
C533   C571    1.486   .     S
C534   N561    1.387   .     A
C534   C575    1.497   .     S
C534   C139    1.424   1_565 S
C535   C579    1.486   .     S
C535   N562    1.374   .     A
C536   C583    1.497   .     S
C536   N561    1.387   .     A
C536   C137    1.424   1_565 S
C537   Cl591   1.779   .     S
C537   C554    1.417   .     A
C538   Cl592   1.770   .     S
C538   C553    1.408   .     A
C538   C408    1.387   1_655 S
C539   C553    1.417   .     A
C539   Cl593   1.779   .     S
C539   C405    1.394   1_655 S
C540   Cl594   1.770   .     S
C540   C554    1.408   .     A
C541   C545    1.384   .     A
C541   C551    1.396   .     A
C541   H557    1.083   .     S
C542   C546    1.397   .     A
C542   C552    1.398   .     A
C542   H558    1.083   .     S
C543   H559    1.083   .     S
C543   C547    1.384   .     A
C543   C552    1.396   .     A
C544   H560    1.084   .     S
C544   C548    1.397   .     A
C544   C551    1.398   .     A
C545   Cl587   1.759   .     S
C545   C549    1.418   .     A
C546   Cl588   1.765   .     S
C546   C550    1.421   .     A
C547   Cl589   1.759   .     S
C547   C550    1.418   .     A
C548   Cl590   1.765   .     S
C548   C549    1.421   .     A
C551   C1146   1.473   1_554 S
C552   C1145   1.473   .     S
Cu555  N561    2.032   .     S
Cu555  O565    1.977   .     S
Cu555  Cu556   2.704   .     S
Cu555  O567    1.972   .     S
Cu555  O563    1.977   .     S
Cu555  O569    1.972   .     S
Cu556  O566    1.977   .     S
Cu556  N562    2.032   .     S
Cu556  O564    1.977   .     S
Cu556  O568    1.972   .     S
Cu556  O570    1.972   .     S
C571   O573    1.397   .     S
C571   O572    1.219   .     D
O573   H574    1.014   .     S
C575   O576    1.216   .     D
C575   O577    1.400   .     S
O577   H578    1.014   .     S
C579   O580    1.219   .     D
C579   O581    1.397   .     S
O581   H582    1.014   .     S
C583   O584    1.216   .     D
C583   O585    1.400   .     S
O585   H586    1.014   .     S
C595   O629    1.310   .     A
C595   O632    1.300   .     A
C595   C620    1.472   .     S
C596   O631    1.310   .     A
C596   C619    1.472   .     S
C596   O630    1.300   .     A
C597   O636    1.309   .     A
C597   O633    1.306   .     A
C597   C615    1.484   .     S
C598   C616    1.484   .     S
C598   O635    1.306   .     A
C598   O634    1.309   .     A
C599   N628    1.374   .     A
C599   C637    1.486   .     S
C599   C998    1.424   1_545 S
C600   N627    1.387   .     A
C600   C641    1.497   .     S
C600   C799    1.424   .     S
C601   C645    1.486   .     S
C601   N628    1.374   .     A
C601   C996    1.424   1_545 S
C602   C649    1.497   .     S
C602   N627    1.387   .     A
C602   C797    1.424   .     S
C603   Cl657   1.779   .     S
C603   C620    1.417   .     A
C603   C737    1.394   1_455 S
C604   Cl658   1.770   .     S
C604   C619    1.408   .     A
C604   C672    1.387   .     S
C605   C619    1.417   .     A
C605   Cl659   1.779   .     S
C605   C669    1.394   .     S
C606   Cl660   1.770   .     S
C606   C620    1.408   .     A
C606   C736    1.387   1_455 S
C607   C611    1.384   .     A
C607   C617    1.396   .     A
C607   H623    1.083   .     S
C608   C612    1.397   .     A
C608   C618    1.398   .     A
C608   H624    1.083   .     S
C609   H625    1.083   .     S
C609   C613    1.384   .     A
C609   C618    1.396   .     A
C610   H626    1.084   .     S
C610   C614    1.397   .     A
C610   C617    1.398   .     A
C611   Cl653   1.759   .     S
C611   C615    1.418   .     A
C612   Cl654   1.765   .     S
C612   C616    1.421   .     A
C613   Cl655   1.759   .     S
C613   C616    1.418   .     A
C614   Cl656   1.765   .     S
C614   C615    1.421   .     A
C618   C23     1.473   1_556 S
Cu621  N627    2.032   .     S
Cu621  O631    1.977   .     S
Cu621  Cu622   2.704   .     S
Cu621  O633    1.972   .     S
Cu621  O629    1.977   .     S
Cu621  O635    1.972   .     S
Cu622  O632    1.977   .     S
Cu622  N628    2.032   .     S
Cu622  O630    1.977   .     S
Cu622  O634    1.972   .     S
Cu622  O636    1.972   .     S
C637   O639    1.397   .     S
C637   O638    1.219   .     D
O639   H640    1.014   .     S
C641   O642    1.216   .     D
C641   O643    1.400   .     S
O643   H644    1.014   .     S
C645   O646    1.219   .     D
C645   O647    1.397   .     S
O647   H648    1.014   .     S
C649   O650    1.216   .     D
C649   O651    1.400   .     S
O651   H652    1.014   .     S
C661   O695    1.310   .     A
C661   O698    1.300   .     A
C661   C686    1.472   .     S
C662   O697    1.310   .     A
C662   C685    1.472   .     S
C662   O696    1.300   .     A
C663   O702    1.309   .     A
C663   O699    1.306   .     A
C663   C681    1.484   .     S
C664   C682    1.484   .     S
C664   O701    1.306   .     A
C664   O700    1.309   .     A
C665   N694    1.374   .     A
C665   C703    1.486   .     S
C665   C1064   1.424   1_545 S
C666   N693    1.387   .     A
C666   C707    1.497   .     S
C666   C865    1.424   .     S
C667   C711    1.486   .     S
C667   N694    1.374   .     A
C667   C1062   1.424   1_545 S
C668   C715    1.497   .     S
C668   N693    1.387   .     A
C668   C863    1.424   .     S
C669   Cl723   1.779   .     S
C669   C686    1.417   .     A
C670   Cl724   1.770   .     S
C670   C685    1.408   .     A
C670   C738    1.387   .     S
C671   C685    1.417   .     A
C671   Cl725   1.779   .     S
C671   C735    1.394   .     S
C672   Cl726   1.770   .     S
C672   C686    1.408   .     A
C673   C677    1.384   .     A
C673   C683    1.396   .     A
C673   H689    1.083   .     S
C674   C678    1.397   .     A
C674   C684    1.398   .     A
C674   H690    1.083   .     S
C675   H691    1.083   .     S
C675   C679    1.384   .     A
C675   C684    1.396   .     A
C676   H692    1.084   .     S
C676   C680    1.397   .     A
C676   C683    1.398   .     A
C677   Cl719   1.759   .     S
C677   C681    1.418   .     A
C678   Cl720   1.765   .     S
C678   C682    1.421   .     A
C679   Cl721   1.759   .     S
C679   C682    1.418   .     A
C680   Cl722   1.765   .     S
C680   C681    1.421   .     A
C684   C89     1.473   1_556 S
Cu687  N693    2.032   .     S
Cu687  O697    1.977   .     S
Cu687  Cu688   2.704   .     S
Cu687  O699    1.972   .     S
Cu687  O695    1.977   .     S
Cu687  O701    1.972   .     S
Cu688  O698    1.977   .     S
Cu688  N694    2.032   .     S
Cu688  O696    1.977   .     S
Cu688  O700    1.972   .     S
Cu688  O702    1.972   .     S
C703   O705    1.397   .     S
C703   O704    1.219   .     D
O705   H706    1.014   .     S
C707   O708    1.216   .     D
C707   O709    1.400   .     S
O709   H710    1.014   .     S
C711   O712    1.219   .     D
C711   O713    1.397   .     S
O713   H714    1.014   .     S
C715   O716    1.216   .     D
C715   O717    1.400   .     S
O717   H718    1.014   .     S
C727   O761    1.310   .     A
C727   O764    1.300   .     A
C727   C752    1.472   .     S
C728   O763    1.310   .     A
C728   C751    1.472   .     S
C728   O762    1.300   .     A
C729   O768    1.309   .     A
C729   O765    1.306   .     A
C729   C747    1.484   .     S
C730   C748    1.484   .     S
C730   O767    1.306   .     A
C730   O766    1.309   .     A
C731   N760    1.374   .     A
C731   C769    1.486   .     S
C731   C1130   1.424   1_545 S
C732   N759    1.387   .     A
C732   C773    1.497   .     S
C732   C931    1.424   .     S
C733   C777    1.486   .     S
C733   N760    1.374   .     A
C733   C1128   1.424   1_545 S
C734   C781    1.497   .     S
C734   N759    1.387   .     A
C734   C929    1.424   .     S
C735   Cl789   1.779   .     S
C735   C752    1.417   .     A
C736   Cl790   1.770   .     S
C736   C751    1.408   .     A
C736   C606    1.387   1_655 S
C737   C751    1.417   .     A
C737   Cl791   1.779   .     S
C737   C603    1.394   1_655 S
C738   Cl792   1.770   .     S
C738   C752    1.408   .     A
C739   C743    1.384   .     A
C739   C749    1.396   .     A
C739   H755    1.083   .     S
C740   C744    1.397   .     A
C740   C750    1.398   .     A
C740   H756    1.083   .     S
C741   H757    1.083   .     S
C741   C745    1.384   .     A
C741   C750    1.396   .     A
C742   H758    1.084   .     S
C742   C746    1.397   .     A
C742   C749    1.398   .     A
C743   Cl785   1.759   .     S
C743   C747    1.418   .     A
C744   Cl786   1.765   .     S
C744   C748    1.421   .     A
C745   Cl787   1.759   .     S
C745   C748    1.418   .     A
C746   Cl788   1.765   .     S
C746   C747    1.421   .     A
C750   C155    1.473   1_556 S
Cu753  N759    2.032   .     S
Cu753  O763    1.977   .     S
Cu753  Cu754   2.704   .     S
Cu753  O765    1.972   .     S
Cu753  O761    1.977   .     S
Cu753  O767    1.972   .     S
Cu754  O764    1.977   .     S
Cu754  N760    2.032   .     S
Cu754  O762    1.977   .     S
Cu754  O766    1.972   .     S
Cu754  O768    1.972   .     S
C769   O771    1.397   .     S
C769   O770    1.219   .     D
O771   H772    1.014   .     S
C773   O774    1.216   .     D
C773   O775    1.400   .     S
O775   H776    1.014   .     S
C777   O778    1.219   .     D
C777   O779    1.397   .     S
O779   H780    1.014   .     S
C781   O782    1.216   .     D
C781   O783    1.400   .     S
O783   H784    1.014   .     S
C793   O827    1.310   .     A
C793   O830    1.300   .     A
C793   C818    1.472   .     S
C794   O829    1.310   .     A
C794   C817    1.472   .     S
C794   O828    1.300   .     A
C795   O834    1.309   .     A
C795   O831    1.306   .     A
C795   C813    1.484   .     S
C796   C814    1.484   .     S
C796   O833    1.306   .     A
C796   O832    1.309   .     A
C797   N826    1.374   .     A
C797   C835    1.486   .     S
C798   N825    1.387   .     A
C798   C839    1.497   .     S
C798   C997    1.424   .     S
C799   C843    1.486   .     S
C799   N826    1.374   .     A
C800   C847    1.497   .     S
C800   N825    1.387   .     A
C800   C995    1.424   .     S
C801   Cl855   1.779   .     S
C801   C818    1.417   .     A
C801   C935    1.394   1_455 S
C802   Cl856   1.770   .     S
C802   C817    1.408   .     A
C802   C870    1.387   .     S
C803   C817    1.417   .     A
C803   Cl857   1.779   .     S
C803   C867    1.394   .     S
C804   Cl858   1.770   .     S
C804   C818    1.408   .     A
C804   C934    1.387   1_455 S
C805   C809    1.384   .     A
C805   C815    1.396   .     A
C805   H821    1.083   .     S
C806   C810    1.397   .     A
C806   C816    1.398   .     A
C806   H822    1.083   .     S
C807   H823    1.083   .     S
C807   C811    1.384   .     A
C807   C816    1.396   .     A
C808   H824    1.084   .     S
C808   C812    1.397   .     A
C808   C815    1.398   .     A
C809   Cl851   1.759   .     S
C809   C813    1.418   .     A
C810   Cl852   1.765   .     S
C810   C814    1.421   .     A
C811   Cl853   1.759   .     S
C811   C814    1.418   .     A
C812   Cl854   1.765   .     S
C812   C813    1.421   .     A
C816   C221    1.473   1_556 S
Cu819  N825    2.032   .     S
Cu819  O829    1.977   .     S
Cu819  Cu820   2.704   .     S
Cu819  O831    1.972   .     S
Cu819  O827    1.977   .     S
Cu819  O833    1.972   .     S
Cu820  O830    1.977   .     S
Cu820  N826    2.032   .     S
Cu820  O828    1.977   .     S
Cu820  O832    1.972   .     S
Cu820  O834    1.972   .     S
C835   O837    1.397   .     S
C835   O836    1.219   .     D
O837   H838    1.014   .     S
C839   O840    1.216   .     D
C839   O841    1.400   .     S
O841   H842    1.014   .     S
C843   O844    1.219   .     D
C843   O845    1.397   .     S
O845   H846    1.014   .     S
C847   O848    1.216   .     D
C847   O849    1.400   .     S
O849   H850    1.014   .     S
C859   O893    1.310   .     A
C859   O896    1.300   .     A
C859   C884    1.472   .     S
C860   O895    1.310   .     A
C860   C883    1.472   .     S
C860   O894    1.300   .     A
C861   O900    1.309   .     A
C861   O897    1.306   .     A
C861   C879    1.484   .     S
C862   C880    1.484   .     S
C862   O899    1.306   .     A
C862   O898    1.309   .     A
C863   N892    1.374   .     A
C863   C901    1.486   .     S
C864   N891    1.387   .     A
C864   C905    1.497   .     S
C864   C1063   1.424   .     S
C865   C909    1.486   .     S
C865   N892    1.374   .     A
C866   C913    1.497   .     S
C866   N891    1.387   .     A
C866   C1061   1.424   .     S
C867   Cl921   1.779   .     S
C867   C884    1.417   .     A
C868   Cl922   1.770   .     S
C868   C883    1.408   .     A
C868   C936    1.387   .     S
C869   C883    1.417   .     A
C869   Cl923   1.779   .     S
C869   C933    1.394   .     S
C870   Cl924   1.770   .     S
C870   C884    1.408   .     A
C871   C875    1.384   .     A
C871   C881    1.396   .     A
C871   H887    1.083   .     S
C872   C876    1.397   .     A
C872   C882    1.398   .     A
C872   H888    1.083   .     S
C873   H889    1.083   .     S
C873   C877    1.384   .     A
C873   C882    1.396   .     A
C874   H890    1.084   .     S
C874   C878    1.397   .     A
C874   C881    1.398   .     A
C875   Cl917   1.759   .     S
C875   C879    1.418   .     A
C876   Cl918   1.765   .     S
C876   C880    1.421   .     A
C877   Cl919   1.759   .     S
C877   C880    1.418   .     A
C878   Cl920   1.765   .     S
C878   C879    1.421   .     A
C882   C287    1.473   1_556 S
Cu885  N891    2.032   .     S
Cu885  O895    1.977   .     S
Cu885  Cu886   2.704   .     S
Cu885  O897    1.972   .     S
Cu885  O893    1.977   .     S
Cu885  O899    1.972   .     S
Cu886  O896    1.977   .     S
Cu886  N892    2.032   .     S
Cu886  O894    1.977   .     S
Cu886  O898    1.972   .     S
Cu886  O900    1.972   .     S
C901   O903    1.397   .     S
C901   O902    1.219   .     D
O903   H904    1.014   .     S
C905   O906    1.216   .     D
C905   O907    1.400   .     S
O907   H908    1.014   .     S
C909   O910    1.219   .     D
C909   O911    1.397   .     S
O911   H912    1.014   .     S
C913   O914    1.216   .     D
C913   O915    1.400   .     S
O915   H916    1.014   .     S
C925   O959    1.310   .     A
C925   O962    1.300   .     A
C925   C950    1.472   .     S
C926   O961    1.310   .     A
C926   C949    1.472   .     S
C926   O960    1.300   .     A
C927   O966    1.309   .     A
C927   O963    1.306   .     A
C927   C945    1.484   .     S
C928   C946    1.484   .     S
C928   O965    1.306   .     A
C928   O964    1.309   .     A
C929   N958    1.374   .     A
C929   C967    1.486   .     S
C930   N957    1.387   .     A
C930   C971    1.497   .     S
C930   C1129   1.424   .     S
C931   C975    1.486   .     S
C931   N958    1.374   .     A
C932   C979    1.497   .     S
C932   N957    1.387   .     A
C932   C1127   1.424   .     S
C933   Cl987   1.779   .     S
C933   C950    1.417   .     A
C934   Cl988   1.770   .     S
C934   C949    1.408   .     A
C934   C804    1.387   1_655 S
C935   C949    1.417   .     A
C935   Cl989   1.779   .     S
C935   C801    1.394   1_655 S
C936   Cl990   1.770   .     S
C936   C950    1.408   .     A
C937   C941    1.384   .     A
C937   C947    1.396   .     A
C937   H953    1.083   .     S
C938   C942    1.397   .     A
C938   C948    1.398   .     A
C938   H954    1.083   .     S
C939   H955    1.083   .     S
C939   C943    1.384   .     A
C939   C948    1.396   .     A
C940   H956    1.084   .     S
C940   C944    1.397   .     A
C940   C947    1.398   .     A
C941   Cl983   1.759   .     S
C941   C945    1.418   .     A
C942   Cl984   1.765   .     S
C942   C946    1.421   .     A
C943   Cl985   1.759   .     S
C943   C946    1.418   .     A
C944   Cl986   1.765   .     S
C944   C945    1.421   .     A
C948   C353    1.473   1_556 S
Cu951  N957    2.032   .     S
Cu951  O961    1.977   .     S
Cu951  Cu952   2.704   .     S
Cu951  O963    1.972   .     S
Cu951  O959    1.977   .     S
Cu951  O965    1.972   .     S
Cu952  O962    1.977   .     S
Cu952  N958    2.032   .     S
Cu952  O960    1.977   .     S
Cu952  O964    1.972   .     S
Cu952  O966    1.972   .     S
C967   O969    1.397   .     S
C967   O968    1.219   .     D
O969   H970    1.014   .     S
C971   O972    1.216   .     D
C971   O973    1.400   .     S
O973   H974    1.014   .     S
C975   O976    1.219   .     D
C975   O977    1.397   .     S
O977   H978    1.014   .     S
C979   O980    1.216   .     D
C979   O981    1.400   .     S
O981   H982    1.014   .     S
C991   O1025   1.310   .     A
C991   O1028   1.300   .     A
C991   C1016   1.472   .     S
C992   O1027   1.310   .     A
C992   C1015   1.472   .     S
C992   O1026   1.300   .     A
C993   O1032   1.309   .     A
C993   O1029   1.306   .     A
C993   C1011   1.484   .     S
C994   C1012   1.484   .     S
C994   O1031   1.306   .     A
C994   O1030   1.309   .     A
C995   N1024   1.374   .     A
C995   C1033   1.486   .     S
C996   N1023   1.387   .     A
C996   C1037   1.497   .     S
C996   C601    1.424   1_565 S
C997   C1041   1.486   .     S
C997   N1024   1.374   .     A
C998   C1045   1.497   .     S
C998   N1023   1.387   .     A
C998   C599    1.424   1_565 S
C999   Cl1053  1.779   .     S
C999   C1016   1.417   .     A
C999   C1133   1.394   1_455 S
C1000  Cl1054  1.770   .     S
C1000  C1015   1.408   .     A
C1000  C1068   1.387   .     S
C1001  C1015   1.417   .     A
C1001  Cl1055  1.779   .     S
C1001  C1065   1.394   .     S
C1002  Cl1056  1.770   .     S
C1002  C1016   1.408   .     A
C1002  C1132   1.387   1_455 S
C1003  C1007   1.384   .     A
C1003  C1013   1.396   .     A
C1003  H1019   1.083   .     S
C1004  C1008   1.397   .     A
C1004  C1014   1.398   .     A
C1004  H1020   1.083   .     S
C1005  H1021   1.083   .     S
C1005  C1009   1.384   .     A
C1005  C1014   1.396   .     A
C1006  H1022   1.084   .     S
C1006  C1010   1.397   .     A
C1006  C1013   1.398   .     A
C1007  Cl1049  1.759   .     S
C1007  C1011   1.418   .     A
C1008  Cl1050  1.765   .     S
C1008  C1012   1.421   .     A
C1009  Cl1051  1.759   .     S
C1009  C1012   1.418   .     A
C1010  Cl1052  1.765   .     S
C1010  C1011   1.421   .     A
C1014  C419    1.473   1_556 S
Cu1017 N1023   2.032   .     S
Cu1017 O1027   1.977   .     S
Cu1017 Cu1018  2.704   .     S
Cu1017 O1029   1.972   .     S
Cu1017 O1025   1.977   .     S
Cu1017 O1031   1.972   .     S
Cu1018 O1028   1.977   .     S
Cu1018 N1024   2.032   .     S
Cu1018 O1026   1.977   .     S
Cu1018 O1030   1.972   .     S
Cu1018 O1032   1.972   .     S
C1033  O1035   1.397   .     S
C1033  O1034   1.219   .     D
O1035  H1036   1.014   .     S
C1037  O1038   1.216   .     D
C1037  O1039   1.400   .     S
O1039  H1040   1.014   .     S
C1041  O1042   1.219   .     D
C1041  O1043   1.397   .     S
O1043  H1044   1.014   .     S
C1045  O1046   1.216   .     D
C1045  O1047   1.400   .     S
O1047  H1048   1.014   .     S
C1057  O1091   1.310   .     A
C1057  O1094   1.300   .     A
C1057  C1082   1.472   .     S
C1058  O1093   1.310   .     A
C1058  C1081   1.472   .     S
C1058  O1092   1.300   .     A
C1059  O1098   1.309   .     A
C1059  O1095   1.306   .     A
C1059  C1077   1.484   .     S
C1060  C1078   1.484   .     S
C1060  O1097   1.306   .     A
C1060  O1096   1.309   .     A
C1061  N1090   1.374   .     A
C1061  C1099   1.486   .     S
C1062  N1089   1.387   .     A
C1062  C1103   1.497   .     S
C1062  C667    1.424   1_565 S
C1063  C1107   1.486   .     S
C1063  N1090   1.374   .     A
C1064  C1111   1.497   .     S
C1064  N1089   1.387   .     A
C1064  C665    1.424   1_565 S
C1065  Cl1119  1.779   .     S
C1065  C1082   1.417   .     A
C1066  Cl1120  1.770   .     S
C1066  C1081   1.408   .     A
C1066  C1134   1.387   .     S
C1067  C1081   1.417   .     A
C1067  Cl1121  1.779   .     S
C1067  C1131   1.394   .     S
C1068  Cl1122  1.770   .     S
C1068  C1082   1.408   .     A
C1069  C1073   1.384   .     A
C1069  C1079   1.396   .     A
C1069  H1085   1.083   .     S
C1070  C1074   1.397   .     A
C1070  C1080   1.398   .     A
C1070  H1086   1.083   .     S
C1071  H1087   1.083   .     S
C1071  C1075   1.384   .     A
C1071  C1080   1.396   .     A
C1072  H1088   1.084   .     S
C1072  C1076   1.397   .     A
C1072  C1079   1.398   .     A
C1073  Cl1115  1.759   .     S
C1073  C1077   1.418   .     A
C1074  Cl1116  1.765   .     S
C1074  C1078   1.421   .     A
C1075  Cl1117  1.759   .     S
C1075  C1078   1.418   .     A
C1076  Cl1118  1.765   .     S
C1076  C1077   1.421   .     A
C1080  C485    1.473   1_556 S
Cu1083 N1089   2.032   .     S
Cu1083 O1093   1.977   .     S
Cu1083 Cu1084  2.704   .     S
Cu1083 O1095   1.972   .     S
Cu1083 O1091   1.977   .     S
Cu1083 O1097   1.972   .     S
Cu1084 O1094   1.977   .     S
Cu1084 N1090   2.032   .     S
Cu1084 O1092   1.977   .     S
Cu1084 O1096   1.972   .     S
Cu1084 O1098   1.972   .     S
C1099  O1101   1.397   .     S
C1099  O1100   1.219   .     D
O1101  H1102   1.014   .     S
C1103  O1104   1.216   .     D
C1103  O1105   1.400   .     S
O1105  H1106   1.014   .     S
C1107  O1108   1.219   .     D
C1107  O1109   1.397   .     S
O1109  H1110   1.014   .     S
C1111  O1112   1.216   .     D
C1111  O1113   1.400   .     S
O1113  H1114   1.014   .     S
C1123  O1157   1.310   .     A
C1123  O1160   1.300   .     A
C1123  C1148   1.472   .     S
C1124  O1159   1.310   .     A
C1124  C1147   1.472   .     S
C1124  O1158   1.300   .     A
C1125  O1164   1.309   .     A
C1125  O1161   1.306   .     A
C1125  C1143   1.484   .     S
C1126  C1144   1.484   .     S
C1126  O1163   1.306   .     A
C1126  O1162   1.309   .     A
C1127  N1156   1.374   .     A
C1127  C1165   1.486   .     S
C1128  N1155   1.387   .     A
C1128  C1169   1.497   .     S
C1128  C733    1.424   1_565 S
C1129  C1173   1.486   .     S
C1129  N1156   1.374   .     A
C1130  C1177   1.497   .     S
C1130  N1155   1.387   .     A
C1130  C731    1.424   1_565 S
C1131  Cl1185  1.779   .     S
C1131  C1148   1.417   .     A
C1132  Cl1186  1.770   .     S
C1132  C1147   1.408   .     A
C1132  C1002   1.387   1_655 S
C1133  C1147   1.417   .     A
C1133  Cl1187  1.779   .     S
C1133  C999    1.394   1_655 S
C1134  Cl1188  1.770   .     S
C1134  C1148   1.408   .     A
C1135  C1139   1.384   .     A
C1135  C1145   1.396   .     A
C1135  H1151   1.083   .     S
C1136  C1140   1.397   .     A
C1136  C1146   1.398   .     A
C1136  H1152   1.083   .     S
C1137  H1153   1.083   .     S
C1137  C1141   1.384   .     A
C1137  C1146   1.396   .     A
C1138  H1154   1.084   .     S
C1138  C1142   1.397   .     A
C1138  C1145   1.398   .     A
C1139  Cl1181  1.759   .     S
C1139  C1143   1.418   .     A
C1140  Cl1182  1.765   .     S
C1140  C1144   1.421   .     A
C1141  Cl1183  1.759   .     S
C1141  C1144   1.418   .     A
C1142  Cl1184  1.765   .     S
C1142  C1143   1.421   .     A
C1146  C551    1.473   1_556 S
Cu1149 N1155   2.032   .     S
Cu1149 O1159   1.977   .     S
Cu1149 Cu1150  2.704   .     S
Cu1149 O1161   1.972   .     S
Cu1149 O1157   1.977   .     S
Cu1149 O1163   1.972   .     S
Cu1150 O1160   1.977   .     S
Cu1150 N1156   2.032   .     S
Cu1150 O1158   1.977   .     S
Cu1150 O1162   1.972   .     S
Cu1150 O1164   1.972   .     S
C1165  O1167   1.397   .     S
C1165  O1166   1.219   .     D
O1167  H1168   1.014   .     S
C1169  O1170   1.216   .     D
C1169  O1171   1.400   .     S
O1171  H1172   1.014   .     S
C1173  O1174   1.219   .     D
C1173  O1175   1.397   .     S
O1175  H1176   1.014   .     S
C1177  O1178   1.216   .     D
C1177  O1179   1.400   .     S
O1179  H1180   1.014   .     S
