data_str_m2_o10_o17_pcu_sym.16
_audit_creation_date              2020-01-03
_audit_creation_method            'Materials Studio'
_symmetry_space_group_name_H-M    'P1'
_symmetry_Int_Tables_number       1
_symmetry_cell_setting            triclinic
loop_
_symmetry_equiv_pos_as_xyz
  x,y,z
_cell_length_a                    29.9924
_cell_length_b                    26.0650
_cell_length_c                    22.8213
_cell_angle_alpha                 103.8202
_cell_angle_beta                  94.7065
_cell_angle_gamma                 95.4698
loop_
_atom_site_label
_atom_site_type_symbol
_atom_site_fract_x
_atom_site_fract_y
_atom_site_fract_z
_atom_site_U_iso_or_equiv
_atom_site_adp_type
_atom_site_occupancy
C1     C     0.24851   0.06660   0.15087   0.00000  Uiso   1.00
C2     C     0.08812   0.11524   0.14744   0.00000  Uiso   1.00
C3     C     0.38359   0.16964   0.16597   0.00000  Uiso   1.00
C4     C     0.11641   0.16369   0.16736   0.00000  Uiso   1.00
C5     C     0.40082   0.12184   0.14590   0.00000  Uiso   1.00
C6     C     0.09918   0.21149   0.18744   0.00000  Uiso   1.00
C7     C     0.44688   0.12065   0.14578   0.00000  Uiso   1.00
C8     C     0.05312   0.21269   0.18755   0.00000  Uiso   1.00
C9     C     0.47659   0.16805   0.16676   0.00000  Uiso   1.00
C10    C     0.02341   0.16528   0.16657   0.00000  Uiso   1.00
C11    C     0.45949   0.21793   0.18782   0.00000  Uiso   1.00
C12    C     0.25149   0.26673   0.18247   0.00000  Uiso   1.00
C13    C     0.04051   0.11540   0.14551   0.00000  Uiso   1.00
C14    C     0.46312   0.07204   0.12467   0.00000  Uiso   1.00
C15    C     0.03688   0.26129   0.20867   0.00000  Uiso   1.00
C16    C     0.39060   0.26659   0.20115   0.00000  Uiso   1.00
C17    C     0.10940   0.06675   0.13219   0.00000  Uiso   1.00
C18    C     0.02108   0.01621   0.09765   0.00000  Uiso   1.00
C19    C     0.47892   0.31712   0.23568   0.00000  Uiso   1.00
C20    C     0.19560   0.12221   0.31293   0.00000  Uiso   1.00
C21    C     0.18320   0.06986   0.33062   0.00000  Uiso   1.00
C22    C     0.14374   0.03556   0.28811   0.00000  Uiso   1.00
C23    C     0.00904   0.06865   0.12360   0.00000  Uiso   1.00
C24    C     0.30440   0.21112   0.02040   0.00000  Uiso   1.00
C25    C     0.31680   0.26347   0.00271   0.00000  Uiso   1.00
C26    C     0.35626   0.29778   0.04523   0.00000  Uiso   1.00
C27    C     0.49096   0.26469   0.20974   0.00000  Uiso   1.00
C28    C     0.24774   0.01023   0.14248   0.00000  Uiso   1.00
C29    C     0.25226   0.32311   0.19085   0.00000  Uiso   1.00
C30    C     0.16476   0.16564   0.16689   0.00000  Uiso   1.00
C31    C     0.33524   0.16769   0.16645   0.00000  Uiso   1.00
C32    C     0.41188   0.21809   0.18590   0.00000  Uiso   1.00
Cu33   Cu    0.25501   0.17246   0.22813   0.00000  Uiso   1.00
Cu34   Cu    0.24500   0.16087   0.10521   0.00000  Uiso   1.00
H35    H     0.37795   0.08524   0.13050   0.00000  Uiso   1.00
H36    H     0.21255   0.04672   0.32815   0.00000  Uiso   1.00
H37    H     0.17278   0.07756   0.04349   0.00000  Uiso   1.00
H38    H     0.16770   0.14743   0.32018   0.00000  Uiso   1.00
H39    H     0.19851   0.10861   0.26509   0.00000  Uiso   1.00
H40    H     0.34666   0.31030   0.09205   0.00000  Uiso   1.00
H41    H     0.38597   0.27540   0.04567   0.00000  Uiso   1.00
H42    H     0.36565   0.00071   0.02936   0.00000  Uiso   1.00
H43    H     0.32722   0.25577   0.28985   0.00000  Uiso   1.00
H44    H     0.28745   0.28661   0.00518   0.00000  Uiso   1.00
H45    H     0.30149   0.22473   0.06825   0.00000  Uiso   1.00
H46    H     0.12205   0.24809   0.20283   0.00000  Uiso   1.00
H47    H     0.33230   0.18590   0.01315   0.00000  Uiso   1.00
H48    H     0.43955   0.03612   0.10836   0.00000  Uiso   1.00
H49    H     0.06045   0.29722   0.22497   0.00000  Uiso   1.00
H50    H     0.24336   0.31884   0.09627   0.00000  Uiso   1.00
H51    H     0.25664   0.01450   0.23706   0.00000  Uiso   1.00
H52    H     0.11403   0.05793   0.28767   0.00000  Uiso   1.00
H53    H     0.15334   0.02303   0.24128   0.00000  Uiso   1.00
H54    H     0.13435   0.33263   0.30398   0.00000  Uiso   1.00
N55    N     0.23745   0.15214   0.01284   0.00000  Uiso   1.00
N56    N     0.26256   0.18119   0.32049   0.00000  Uiso   1.00
N57    N     0.37315   0.30495   0.21296   0.00000  Uiso   1.00
N58    N     0.12685   0.02838   0.12037   0.00000  Uiso   1.00
N59    N     0.03008   0.30732   0.07660   0.00000  Uiso   1.00
N60    N     0.46992   0.02602   0.25673   0.00000  Uiso   1.00
O61    O     0.25326   0.09538   0.20659   0.00000  Uiso   1.00
O62    O     0.24675   0.23796   0.12674   0.00000  Uiso   1.00
O63    O     0.24480   0.08559   0.10279   0.00000  Uiso   1.00
O64    O     0.25520   0.24774   0.23055   0.00000  Uiso   1.00
O65    O     0.18936   0.17155   0.21857   0.00000  Uiso   1.00
O66    O     0.31065   0.16179   0.11476   0.00000  Uiso   1.00
O67    O     0.18090   0.16176   0.11477   0.00000  Uiso   1.00
O68    O     0.31910   0.17157   0.21857   0.00000  Uiso   1.00
C69    C     0.74851   0.06660   0.15087   0.00000  Uiso   1.00
C70    C     0.58812   0.11524   0.14744   0.00000  Uiso   1.00
C71    C     0.88359   0.16964   0.16597   0.00000  Uiso   1.00
C72    C     0.61641   0.16369   0.16736   0.00000  Uiso   1.00
C73    C     0.90082   0.12184   0.14590   0.00000  Uiso   1.00
C74    C     0.59918   0.21149   0.18744   0.00000  Uiso   1.00
C75    C     0.94688   0.12065   0.14578   0.00000  Uiso   1.00
C76    C     0.55312   0.21269   0.18755   0.00000  Uiso   1.00
C77    C     0.97659   0.16805   0.16676   0.00000  Uiso   1.00
C78    C     0.52341   0.16528   0.16657   0.00000  Uiso   1.00
C79    C     0.95949   0.21793   0.18782   0.00000  Uiso   1.00
C80    C     0.75149   0.26673   0.18247   0.00000  Uiso   1.00
C81    C     0.54051   0.11540   0.14551   0.00000  Uiso   1.00
C82    C     0.96312   0.07204   0.12467   0.00000  Uiso   1.00
C83    C     0.53688   0.26129   0.20867   0.00000  Uiso   1.00
C84    C     0.89060   0.26659   0.20115   0.00000  Uiso   1.00
C85    C     0.60940   0.06675   0.13219   0.00000  Uiso   1.00
C86    C     0.52108   0.01621   0.09765   0.00000  Uiso   1.00
C87    C     0.97892   0.31712   0.23568   0.00000  Uiso   1.00
C88    C     0.69560   0.12221   0.31293   0.00000  Uiso   1.00
C89    C     0.68320   0.06986   0.33062   0.00000  Uiso   1.00
C90    C     0.64374   0.03556   0.28811   0.00000  Uiso   1.00
C91    C     0.50904   0.06865   0.12360   0.00000  Uiso   1.00
C92    C     0.80440   0.21112   0.02040   0.00000  Uiso   1.00
C93    C     0.81680   0.26347   0.00271   0.00000  Uiso   1.00
C94    C     0.85626   0.29778   0.04523   0.00000  Uiso   1.00
C95    C     0.99096   0.26469   0.20974   0.00000  Uiso   1.00
C96    C     0.74774   0.01023   0.14248   0.00000  Uiso   1.00
C97    C     0.75226   0.32311   0.19085   0.00000  Uiso   1.00
C98    C     0.66476   0.16564   0.16689   0.00000  Uiso   1.00
C99    C     0.83524   0.16769   0.16645   0.00000  Uiso   1.00
C100   C     0.91188   0.21809   0.18590   0.00000  Uiso   1.00
Cu101  Cu    0.75501   0.17246   0.22813   0.00000  Uiso   1.00
Cu102  Cu    0.74500   0.16087   0.10521   0.00000  Uiso   1.00
H103   H     0.87795   0.08524   0.13050   0.00000  Uiso   1.00
H104   H     0.71255   0.04672   0.32815   0.00000  Uiso   1.00
H105   H     0.67278   0.07756   0.04349   0.00000  Uiso   1.00
H106   H     0.66770   0.14743   0.32018   0.00000  Uiso   1.00
H107   H     0.69851   0.10861   0.26509   0.00000  Uiso   1.00
H108   H     0.84666   0.31030   0.09205   0.00000  Uiso   1.00
H109   H     0.88597   0.27540   0.04567   0.00000  Uiso   1.00
H110   H     0.86565   0.00071   0.02936   0.00000  Uiso   1.00
H111   H     0.82722   0.25577   0.28985   0.00000  Uiso   1.00
H112   H     0.78745   0.28661   0.00518   0.00000  Uiso   1.00
H113   H     0.80149   0.22473   0.06825   0.00000  Uiso   1.00
H114   H     0.62205   0.24809   0.20283   0.00000  Uiso   1.00
H115   H     0.83230   0.18590   0.01315   0.00000  Uiso   1.00
H116   H     0.93955   0.03612   0.10836   0.00000  Uiso   1.00
H117   H     0.56045   0.29722   0.22497   0.00000  Uiso   1.00
H118   H     0.74336   0.31884   0.09627   0.00000  Uiso   1.00
H119   H     0.75664   0.01450   0.23706   0.00000  Uiso   1.00
H120   H     0.61403   0.05793   0.28767   0.00000  Uiso   1.00
H121   H     0.65334   0.02303   0.24128   0.00000  Uiso   1.00
H122   H     0.63435   0.33263   0.30398   0.00000  Uiso   1.00
N123   N     0.73745   0.15214   0.01284   0.00000  Uiso   1.00
N124   N     0.76256   0.18119   0.32049   0.00000  Uiso   1.00
N125   N     0.87315   0.30495   0.21296   0.00000  Uiso   1.00
N126   N     0.62685   0.02838   0.12037   0.00000  Uiso   1.00
N127   N     0.53008   0.30732   0.07660   0.00000  Uiso   1.00
N128   N     0.96992   0.02602   0.25673   0.00000  Uiso   1.00
O129   O     0.75326   0.09538   0.20659   0.00000  Uiso   1.00
O130   O     0.74675   0.23796   0.12674   0.00000  Uiso   1.00
O131   O     0.74480   0.08559   0.10279   0.00000  Uiso   1.00
O132   O     0.75520   0.24774   0.23055   0.00000  Uiso   1.00
O133   O     0.68936   0.17155   0.21857   0.00000  Uiso   1.00
O134   O     0.81065   0.16179   0.11476   0.00000  Uiso   1.00
O135   O     0.68090   0.16176   0.11477   0.00000  Uiso   1.00
O136   O     0.81910   0.17157   0.21857   0.00000  Uiso   1.00
C137   C     0.24851   0.39993   0.15087   0.00000  Uiso   1.00
C138   C     0.08812   0.44858   0.14744   0.00000  Uiso   1.00
C139   C     0.38359   0.50298   0.16597   0.00000  Uiso   1.00
C140   C     0.11641   0.49702   0.16736   0.00000  Uiso   1.00
C141   C     0.40082   0.45518   0.14590   0.00000  Uiso   1.00
C142   C     0.09918   0.54482   0.18744   0.00000  Uiso   1.00
C143   C     0.44688   0.45398   0.14578   0.00000  Uiso   1.00
C144   C     0.05312   0.54602   0.18755   0.00000  Uiso   1.00
C145   C     0.47659   0.50139   0.16676   0.00000  Uiso   1.00
C146   C     0.02341   0.49861   0.16657   0.00000  Uiso   1.00
C147   C     0.45949   0.55127   0.18782   0.00000  Uiso   1.00
C148   C     0.25149   0.60007   0.18247   0.00000  Uiso   1.00
C149   C     0.04051   0.44873   0.14551   0.00000  Uiso   1.00
C150   C     0.46312   0.40538   0.12467   0.00000  Uiso   1.00
C151   C     0.03688   0.59462   0.20867   0.00000  Uiso   1.00
C152   C     0.39060   0.59992   0.20115   0.00000  Uiso   1.00
C153   C     0.10940   0.40008   0.13219   0.00000  Uiso   1.00
C154   C     0.02108   0.34955   0.09765   0.00000  Uiso   1.00
C155   C     0.47892   0.65045   0.23568   0.00000  Uiso   1.00
C156   C     0.19560   0.45555   0.31293   0.00000  Uiso   1.00
C157   C     0.18320   0.40320   0.33062   0.00000  Uiso   1.00
C158   C     0.14374   0.36889   0.28811   0.00000  Uiso   1.00
C159   C     0.00904   0.40198   0.12360   0.00000  Uiso   1.00
C160   C     0.30440   0.54445   0.02040   0.00000  Uiso   1.00
C161   C     0.31680   0.59680   0.00271   0.00000  Uiso   1.00
C162   C     0.35626   0.63111   0.04523   0.00000  Uiso   1.00
C163   C     0.49096   0.59802   0.20974   0.00000  Uiso   1.00
C164   C     0.24774   0.34356   0.14248   0.00000  Uiso   1.00
C165   C     0.25226   0.65644   0.19085   0.00000  Uiso   1.00
C166   C     0.16476   0.49898   0.16689   0.00000  Uiso   1.00
C167   C     0.33524   0.50102   0.16645   0.00000  Uiso   1.00
C168   C     0.41188   0.55142   0.18590   0.00000  Uiso   1.00
Cu169  Cu    0.25501   0.50579   0.22813   0.00000  Uiso   1.00
Cu170  Cu    0.24500   0.49421   0.10521   0.00000  Uiso   1.00
H171   H     0.37795   0.41858   0.13050   0.00000  Uiso   1.00
H172   H     0.21255   0.38006   0.32815   0.00000  Uiso   1.00
H173   H     0.17278   0.41089   0.04349   0.00000  Uiso   1.00
H174   H     0.16770   0.48077   0.32018   0.00000  Uiso   1.00
H175   H     0.19851   0.44194   0.26509   0.00000  Uiso   1.00
H176   H     0.34666   0.64364   0.09205   0.00000  Uiso   1.00
H177   H     0.38597   0.60873   0.04567   0.00000  Uiso   1.00
H178   H     0.36565   0.33404   0.02936   0.00000  Uiso   1.00
H179   H     0.32722   0.58911   0.28985   0.00000  Uiso   1.00
H180   H     0.28745   0.61994   0.00518   0.00000  Uiso   1.00
H181   H     0.30149   0.55806   0.06825   0.00000  Uiso   1.00
H182   H     0.12205   0.58142   0.20283   0.00000  Uiso   1.00
H183   H     0.33230   0.51923   0.01315   0.00000  Uiso   1.00
H184   H     0.43955   0.36945   0.10836   0.00000  Uiso   1.00
H185   H     0.06045   0.63055   0.22497   0.00000  Uiso   1.00
H186   H     0.24336   0.65217   0.09627   0.00000  Uiso   1.00
H187   H     0.25664   0.34783   0.23706   0.00000  Uiso   1.00
H188   H     0.11403   0.39127   0.28767   0.00000  Uiso   1.00
H189   H     0.15334   0.35636   0.24128   0.00000  Uiso   1.00
H190   H     0.13435   0.66596   0.30398   0.00000  Uiso   1.00
N191   N     0.23745   0.48547   0.01284   0.00000  Uiso   1.00
N192   N     0.26256   0.51453   0.32049   0.00000  Uiso   1.00
N193   N     0.37315   0.63829   0.21296   0.00000  Uiso   1.00
N194   N     0.12685   0.36171   0.12037   0.00000  Uiso   1.00
N195   N     0.03008   0.64065   0.07660   0.00000  Uiso   1.00
N196   N     0.46992   0.35935   0.25673   0.00000  Uiso   1.00
O197   O     0.25326   0.42871   0.20659   0.00000  Uiso   1.00
O198   O     0.24675   0.57129   0.12674   0.00000  Uiso   1.00
O199   O     0.24480   0.41892   0.10279   0.00000  Uiso   1.00
O200   O     0.25520   0.58108   0.23055   0.00000  Uiso   1.00
O201   O     0.18936   0.50488   0.21857   0.00000  Uiso   1.00
O202   O     0.31065   0.49512   0.11476   0.00000  Uiso   1.00
O203   O     0.18090   0.49510   0.11477   0.00000  Uiso   1.00
O204   O     0.31910   0.50490   0.21857   0.00000  Uiso   1.00
C205   C     0.74851   0.39993   0.15087   0.00000  Uiso   1.00
C206   C     0.58812   0.44858   0.14744   0.00000  Uiso   1.00
C207   C     0.88359   0.50298   0.16597   0.00000  Uiso   1.00
C208   C     0.61641   0.49702   0.16736   0.00000  Uiso   1.00
C209   C     0.90082   0.45518   0.14590   0.00000  Uiso   1.00
C210   C     0.59918   0.54482   0.18744   0.00000  Uiso   1.00
C211   C     0.94688   0.45398   0.14578   0.00000  Uiso   1.00
C212   C     0.55312   0.54602   0.18755   0.00000  Uiso   1.00
C213   C     0.97659   0.50139   0.16676   0.00000  Uiso   1.00
C214   C     0.52341   0.49861   0.16657   0.00000  Uiso   1.00
C215   C     0.95949   0.55127   0.18782   0.00000  Uiso   1.00
C216   C     0.75149   0.60007   0.18247   0.00000  Uiso   1.00
C217   C     0.54051   0.44873   0.14551   0.00000  Uiso   1.00
C218   C     0.96312   0.40538   0.12467   0.00000  Uiso   1.00
C219   C     0.53688   0.59462   0.20867   0.00000  Uiso   1.00
C220   C     0.89060   0.59992   0.20115   0.00000  Uiso   1.00
C221   C     0.60940   0.40008   0.13219   0.00000  Uiso   1.00
C222   C     0.52108   0.34955   0.09765   0.00000  Uiso   1.00
C223   C     0.97892   0.65045   0.23568   0.00000  Uiso   1.00
C224   C     0.69560   0.45555   0.31293   0.00000  Uiso   1.00
C225   C     0.68320   0.40320   0.33062   0.00000  Uiso   1.00
C226   C     0.64374   0.36889   0.28811   0.00000  Uiso   1.00
C227   C     0.50904   0.40198   0.12360   0.00000  Uiso   1.00
C228   C     0.80440   0.54445   0.02040   0.00000  Uiso   1.00
C229   C     0.81680   0.59680   0.00271   0.00000  Uiso   1.00
C230   C     0.85626   0.63111   0.04523   0.00000  Uiso   1.00
C231   C     0.99096   0.59802   0.20974   0.00000  Uiso   1.00
C232   C     0.74774   0.34356   0.14248   0.00000  Uiso   1.00
C233   C     0.75226   0.65644   0.19085   0.00000  Uiso   1.00
C234   C     0.66476   0.49898   0.16689   0.00000  Uiso   1.00
C235   C     0.83524   0.50102   0.16645   0.00000  Uiso   1.00
C236   C     0.91188   0.55142   0.18590   0.00000  Uiso   1.00
Cu237  Cu    0.75501   0.50579   0.22813   0.00000  Uiso   1.00
Cu238  Cu    0.74500   0.49421   0.10521   0.00000  Uiso   1.00
H239   H     0.87795   0.41858   0.13050   0.00000  Uiso   1.00
H240   H     0.71255   0.38006   0.32815   0.00000  Uiso   1.00
H241   H     0.67278   0.41089   0.04349   0.00000  Uiso   1.00
H242   H     0.66770   0.48077   0.32018   0.00000  Uiso   1.00
H243   H     0.69851   0.44194   0.26509   0.00000  Uiso   1.00
H244   H     0.84666   0.64364   0.09205   0.00000  Uiso   1.00
H245   H     0.88597   0.60873   0.04567   0.00000  Uiso   1.00
H246   H     0.86565   0.33404   0.02936   0.00000  Uiso   1.00
H247   H     0.82722   0.58911   0.28985   0.00000  Uiso   1.00
H248   H     0.78745   0.61994   0.00518   0.00000  Uiso   1.00
H249   H     0.80149   0.55806   0.06825   0.00000  Uiso   1.00
H250   H     0.62205   0.58142   0.20283   0.00000  Uiso   1.00
H251   H     0.83230   0.51923   0.01315   0.00000  Uiso   1.00
H252   H     0.93955   0.36945   0.10836   0.00000  Uiso   1.00
H253   H     0.56045   0.63055   0.22497   0.00000  Uiso   1.00
H254   H     0.74336   0.65217   0.09627   0.00000  Uiso   1.00
H255   H     0.75664   0.34783   0.23706   0.00000  Uiso   1.00
H256   H     0.61403   0.39127   0.28767   0.00000  Uiso   1.00
H257   H     0.65334   0.35636   0.24128   0.00000  Uiso   1.00
H258   H     0.63435   0.66596   0.30398   0.00000  Uiso   1.00
N259   N     0.73745   0.48547   0.01284   0.00000  Uiso   1.00
N260   N     0.76256   0.51453   0.32049   0.00000  Uiso   1.00
N261   N     0.87315   0.63829   0.21296   0.00000  Uiso   1.00
N262   N     0.62685   0.36171   0.12037   0.00000  Uiso   1.00
N263   N     0.53008   0.64065   0.07660   0.00000  Uiso   1.00
N264   N     0.96992   0.35935   0.25673   0.00000  Uiso   1.00
O265   O     0.75326   0.42871   0.20659   0.00000  Uiso   1.00
O266   O     0.74675   0.57129   0.12674   0.00000  Uiso   1.00
O267   O     0.74480   0.41892   0.10279   0.00000  Uiso   1.00
O268   O     0.75520   0.58108   0.23055   0.00000  Uiso   1.00
O269   O     0.68936   0.50488   0.21857   0.00000  Uiso   1.00
O270   O     0.81065   0.49512   0.11476   0.00000  Uiso   1.00
O271   O     0.68090   0.49510   0.11477   0.00000  Uiso   1.00
O272   O     0.81910   0.50490   0.21857   0.00000  Uiso   1.00
C273   C     0.24851   0.73327   0.15087   0.00000  Uiso   1.00
C274   C     0.08812   0.78191   0.14744   0.00000  Uiso   1.00
C275   C     0.38359   0.83631   0.16597   0.00000  Uiso   1.00
C276   C     0.11641   0.83036   0.16736   0.00000  Uiso   1.00
C277   C     0.40082   0.78851   0.14590   0.00000  Uiso   1.00
C278   C     0.09918   0.87816   0.18744   0.00000  Uiso   1.00
C279   C     0.44688   0.78731   0.14578   0.00000  Uiso   1.00
C280   C     0.05312   0.87935   0.18755   0.00000  Uiso   1.00
C281   C     0.47659   0.83472   0.16676   0.00000  Uiso   1.00
C282   C     0.02341   0.83195   0.16657   0.00000  Uiso   1.00
C283   C     0.45949   0.88460   0.18782   0.00000  Uiso   1.00
C284   C     0.25149   0.93340   0.18247   0.00000  Uiso   1.00
C285   C     0.04051   0.78207   0.14551   0.00000  Uiso   1.00
C286   C     0.46312   0.73871   0.12467   0.00000  Uiso   1.00
C287   C     0.03688   0.92796   0.20867   0.00000  Uiso   1.00
C288   C     0.39060   0.93325   0.20115   0.00000  Uiso   1.00
C289   C     0.10940   0.73341   0.13219   0.00000  Uiso   1.00
C290   C     0.02108   0.68288   0.09765   0.00000  Uiso   1.00
C291   C     0.47892   0.98379   0.23568   0.00000  Uiso   1.00
C292   C     0.19560   0.78888   0.31293   0.00000  Uiso   1.00
C293   C     0.18320   0.73653   0.33062   0.00000  Uiso   1.00
C294   C     0.14374   0.70222   0.28811   0.00000  Uiso   1.00
C295   C     0.00904   0.73531   0.12360   0.00000  Uiso   1.00
C296   C     0.30440   0.87779   0.02040   0.00000  Uiso   1.00
C297   C     0.31680   0.93014   0.00271   0.00000  Uiso   1.00
C298   C     0.35626   0.96444   0.04523   0.00000  Uiso   1.00
C299   C     0.49096   0.93135   0.20974   0.00000  Uiso   1.00
C300   C     0.24774   0.67689   0.14248   0.00000  Uiso   1.00
C301   C     0.25226   0.98977   0.19085   0.00000  Uiso   1.00
C302   C     0.16476   0.83231   0.16689   0.00000  Uiso   1.00
C303   C     0.33524   0.83436   0.16645   0.00000  Uiso   1.00
C304   C     0.41188   0.88476   0.18590   0.00000  Uiso   1.00
Cu305  Cu    0.25501   0.83913   0.22813   0.00000  Uiso   1.00
Cu306  Cu    0.24500   0.82754   0.10521   0.00000  Uiso   1.00
H307   H     0.37795   0.75191   0.13050   0.00000  Uiso   1.00
H308   H     0.21255   0.71339   0.32815   0.00000  Uiso   1.00
H309   H     0.17278   0.74423   0.04349   0.00000  Uiso   1.00
H310   H     0.16770   0.81410   0.32018   0.00000  Uiso   1.00
H311   H     0.19851   0.77527   0.26509   0.00000  Uiso   1.00
H312   H     0.34666   0.97697   0.09205   0.00000  Uiso   1.00
H313   H     0.38597   0.94207   0.04567   0.00000  Uiso   1.00
H314   H     0.36565   0.66738   0.02936   0.00000  Uiso   1.00
H315   H     0.32722   0.92244   0.28985   0.00000  Uiso   1.00
H316   H     0.28745   0.95328   0.00518   0.00000  Uiso   1.00
H317   H     0.30149   0.89139   0.06825   0.00000  Uiso   1.00
H318   H     0.12205   0.91476   0.20283   0.00000  Uiso   1.00
H319   H     0.33230   0.85257   0.01315   0.00000  Uiso   1.00
H320   H     0.43955   0.70278   0.10836   0.00000  Uiso   1.00
H321   H     0.06045   0.96388   0.22497   0.00000  Uiso   1.00
H322   H     0.24336   0.98550   0.09627   0.00000  Uiso   1.00
H323   H     0.25664   0.68116   0.23706   0.00000  Uiso   1.00
H324   H     0.11403   0.72460   0.28767   0.00000  Uiso   1.00
H325   H     0.15334   0.68970   0.24128   0.00000  Uiso   1.00
H326   H     0.13435   0.99929   0.30398   0.00000  Uiso   1.00
N327   N     0.23745   0.81881   0.01284   0.00000  Uiso   1.00
N328   N     0.26256   0.84786   0.32049   0.00000  Uiso   1.00
N329   N     0.37315   0.97162   0.21296   0.00000  Uiso   1.00
N330   N     0.12685   0.69505   0.12037   0.00000  Uiso   1.00
N331   N     0.03008   0.97398   0.07660   0.00000  Uiso   1.00
N332   N     0.46992   0.69268   0.25673   0.00000  Uiso   1.00
O333   O     0.25326   0.76204   0.20659   0.00000  Uiso   1.00
O334   O     0.24675   0.90462   0.12674   0.00000  Uiso   1.00
O335   O     0.24480   0.75226   0.10279   0.00000  Uiso   1.00
O336   O     0.25520   0.91441   0.23055   0.00000  Uiso   1.00
O337   O     0.18936   0.83821   0.21857   0.00000  Uiso   1.00
O338   O     0.31065   0.82845   0.11476   0.00000  Uiso   1.00
O339   O     0.18090   0.82843   0.11477   0.00000  Uiso   1.00
O340   O     0.31910   0.83824   0.21857   0.00000  Uiso   1.00
C341   C     0.74851   0.73327   0.15087   0.00000  Uiso   1.00
C342   C     0.58812   0.78191   0.14744   0.00000  Uiso   1.00
C343   C     0.88359   0.83631   0.16597   0.00000  Uiso   1.00
C344   C     0.61641   0.83036   0.16736   0.00000  Uiso   1.00
C345   C     0.90082   0.78851   0.14590   0.00000  Uiso   1.00
C346   C     0.59918   0.87816   0.18744   0.00000  Uiso   1.00
C347   C     0.94688   0.78731   0.14578   0.00000  Uiso   1.00
C348   C     0.55312   0.87935   0.18755   0.00000  Uiso   1.00
C349   C     0.97659   0.83472   0.16676   0.00000  Uiso   1.00
C350   C     0.52341   0.83195   0.16657   0.00000  Uiso   1.00
C351   C     0.95949   0.88460   0.18782   0.00000  Uiso   1.00
C352   C     0.75149   0.93340   0.18247   0.00000  Uiso   1.00
C353   C     0.54051   0.78207   0.14551   0.00000  Uiso   1.00
C354   C     0.96312   0.73871   0.12467   0.00000  Uiso   1.00
C355   C     0.53688   0.92796   0.20867   0.00000  Uiso   1.00
C356   C     0.89060   0.93325   0.20115   0.00000  Uiso   1.00
C357   C     0.60940   0.73341   0.13219   0.00000  Uiso   1.00
C358   C     0.52108   0.68288   0.09765   0.00000  Uiso   1.00
C359   C     0.97892   0.98379   0.23568   0.00000  Uiso   1.00
C360   C     0.69560   0.78888   0.31293   0.00000  Uiso   1.00
C361   C     0.68320   0.73653   0.33062   0.00000  Uiso   1.00
C362   C     0.64374   0.70222   0.28811   0.00000  Uiso   1.00
C363   C     0.50904   0.73531   0.12360   0.00000  Uiso   1.00
C364   C     0.80440   0.87779   0.02040   0.00000  Uiso   1.00
C365   C     0.81680   0.93014   0.00271   0.00000  Uiso   1.00
C366   C     0.85626   0.96444   0.04523   0.00000  Uiso   1.00
C367   C     0.99096   0.93135   0.20974   0.00000  Uiso   1.00
C368   C     0.74774   0.67689   0.14248   0.00000  Uiso   1.00
C369   C     0.75226   0.98977   0.19085   0.00000  Uiso   1.00
C370   C     0.66476   0.83231   0.16689   0.00000  Uiso   1.00
C371   C     0.83524   0.83436   0.16645   0.00000  Uiso   1.00
C372   C     0.91188   0.88476   0.18590   0.00000  Uiso   1.00
Cu373  Cu    0.75501   0.83913   0.22813   0.00000  Uiso   1.00
Cu374  Cu    0.74500   0.82754   0.10521   0.00000  Uiso   1.00
H375   H     0.87795   0.75191   0.13050   0.00000  Uiso   1.00
H376   H     0.71255   0.71339   0.32815   0.00000  Uiso   1.00
H377   H     0.67278   0.74423   0.04349   0.00000  Uiso   1.00
H378   H     0.66770   0.81410   0.32018   0.00000  Uiso   1.00
H379   H     0.69851   0.77527   0.26509   0.00000  Uiso   1.00
H380   H     0.84666   0.97697   0.09205   0.00000  Uiso   1.00
H381   H     0.88597   0.94207   0.04567   0.00000  Uiso   1.00
H382   H     0.86565   0.66738   0.02936   0.00000  Uiso   1.00
H383   H     0.82722   0.92244   0.28985   0.00000  Uiso   1.00
H384   H     0.78745   0.95328   0.00518   0.00000  Uiso   1.00
H385   H     0.80149   0.89139   0.06825   0.00000  Uiso   1.00
H386   H     0.62205   0.91476   0.20283   0.00000  Uiso   1.00
H387   H     0.83230   0.85257   0.01315   0.00000  Uiso   1.00
H388   H     0.93955   0.70278   0.10836   0.00000  Uiso   1.00
H389   H     0.56045   0.96388   0.22497   0.00000  Uiso   1.00
H390   H     0.74336   0.98550   0.09627   0.00000  Uiso   1.00
H391   H     0.75664   0.68116   0.23706   0.00000  Uiso   1.00
H392   H     0.61403   0.72460   0.28767   0.00000  Uiso   1.00
H393   H     0.65334   0.68970   0.24128   0.00000  Uiso   1.00
H394   H     0.63435   0.99929   0.30398   0.00000  Uiso   1.00
N395   N     0.73745   0.81881   0.01284   0.00000  Uiso   1.00
N396   N     0.76256   0.84786   0.32049   0.00000  Uiso   1.00
N397   N     0.87315   0.97162   0.21296   0.00000  Uiso   1.00
N398   N     0.62685   0.69505   0.12037   0.00000  Uiso   1.00
N399   N     0.53008   0.97398   0.07660   0.00000  Uiso   1.00
N400   N     0.96992   0.69268   0.25673   0.00000  Uiso   1.00
O401   O     0.75326   0.76204   0.20659   0.00000  Uiso   1.00
O402   O     0.74675   0.90462   0.12674   0.00000  Uiso   1.00
O403   O     0.74480   0.75226   0.10279   0.00000  Uiso   1.00
O404   O     0.75520   0.91441   0.23055   0.00000  Uiso   1.00
O405   O     0.68936   0.83821   0.21857   0.00000  Uiso   1.00
O406   O     0.81065   0.82845   0.11476   0.00000  Uiso   1.00
O407   O     0.68090   0.82843   0.11477   0.00000  Uiso   1.00
O408   O     0.81910   0.83824   0.21857   0.00000  Uiso   1.00
C409   C     0.24851   0.06660   0.48420   0.00000  Uiso   1.00
C410   C     0.08812   0.11524   0.48077   0.00000  Uiso   1.00
C411   C     0.38359   0.16964   0.49931   0.00000  Uiso   1.00
C412   C     0.11641   0.16369   0.50069   0.00000  Uiso   1.00
C413   C     0.40082   0.12184   0.47923   0.00000  Uiso   1.00
C414   C     0.09918   0.21149   0.52077   0.00000  Uiso   1.00
C415   C     0.44688   0.12065   0.47912   0.00000  Uiso   1.00
C416   C     0.05312   0.21269   0.52088   0.00000  Uiso   1.00
C417   C     0.47659   0.16805   0.50009   0.00000  Uiso   1.00
C418   C     0.02341   0.16528   0.49991   0.00000  Uiso   1.00
C419   C     0.45949   0.21793   0.52116   0.00000  Uiso   1.00
C420   C     0.25149   0.26673   0.51580   0.00000  Uiso   1.00
C421   C     0.04051   0.11540   0.47884   0.00000  Uiso   1.00
C422   C     0.46312   0.07204   0.45800   0.00000  Uiso   1.00
C423   C     0.03688   0.26129   0.54200   0.00000  Uiso   1.00
C424   C     0.39060   0.26659   0.53448   0.00000  Uiso   1.00
C425   C     0.10940   0.06675   0.46552   0.00000  Uiso   1.00
C426   C     0.02108   0.01621   0.43098   0.00000  Uiso   1.00
C427   C     0.47892   0.31712   0.56902   0.00000  Uiso   1.00
C428   C     0.19560   0.12221   0.64626   0.00000  Uiso   1.00
C429   C     0.18320   0.06986   0.66396   0.00000  Uiso   1.00
C430   C     0.14374   0.03556   0.62144   0.00000  Uiso   1.00
C431   C     0.00904   0.06865   0.45693   0.00000  Uiso   1.00
C432   C     0.30440   0.21112   0.35374   0.00000  Uiso   1.00
C433   C     0.31680   0.26347   0.33604   0.00000  Uiso   1.00
C434   C     0.35626   0.29778   0.37856   0.00000  Uiso   1.00
C435   C     0.49096   0.26469   0.54307   0.00000  Uiso   1.00
C436   C     0.24774   0.01023   0.47581   0.00000  Uiso   1.00
C437   C     0.25226   0.32311   0.52419   0.00000  Uiso   1.00
C438   C     0.16476   0.16564   0.50022   0.00000  Uiso   1.00
C439   C     0.33524   0.16769   0.49978   0.00000  Uiso   1.00
C440   C     0.41188   0.21809   0.51923   0.00000  Uiso   1.00
Cu441  Cu    0.25501   0.17246   0.56146   0.00000  Uiso   1.00
Cu442  Cu    0.24500   0.16087   0.43854   0.00000  Uiso   1.00
H443   H     0.37795   0.08524   0.46384   0.00000  Uiso   1.00
H444   H     0.21255   0.04672   0.66148   0.00000  Uiso   1.00
H445   H     0.17278   0.07756   0.37682   0.00000  Uiso   1.00
H446   H     0.16770   0.14743   0.65351   0.00000  Uiso   1.00
H447   H     0.19851   0.10861   0.59842   0.00000  Uiso   1.00
H448   H     0.34666   0.31030   0.42538   0.00000  Uiso   1.00
H449   H     0.38597   0.27540   0.37900   0.00000  Uiso   1.00
H450   H     0.36565   0.00071   0.36269   0.00000  Uiso   1.00
H451   H     0.32722   0.25577   0.62318   0.00000  Uiso   1.00
H452   H     0.28745   0.28661   0.33852   0.00000  Uiso   1.00
H453   H     0.30149   0.22473   0.40158   0.00000  Uiso   1.00
H454   H     0.12205   0.24809   0.53616   0.00000  Uiso   1.00
H455   H     0.33230   0.18590   0.34649   0.00000  Uiso   1.00
H456   H     0.43955   0.03612   0.44169   0.00000  Uiso   1.00
H457   H     0.06045   0.29722   0.55831   0.00000  Uiso   1.00
H458   H     0.24336   0.31884   0.42960   0.00000  Uiso   1.00
H459   H     0.25664   0.01450   0.57040   0.00000  Uiso   1.00
H460   H     0.11403   0.05793   0.62100   0.00000  Uiso   1.00
H461   H     0.15334   0.02303   0.57462   0.00000  Uiso   1.00
H462   H     0.13435   0.33263   0.63731   0.00000  Uiso   1.00
N463   N     0.23745   0.15214   0.34617   0.00000  Uiso   1.00
N464   N     0.26256   0.18119   0.65383   0.00000  Uiso   1.00
N465   N     0.37315   0.30495   0.54629   0.00000  Uiso   1.00
N466   N     0.12685   0.02838   0.45371   0.00000  Uiso   1.00
N467   N     0.03008   0.30732   0.40994   0.00000  Uiso   1.00
N468   N     0.46992   0.02602   0.59006   0.00000  Uiso   1.00
O469   O     0.25326   0.09538   0.53992   0.00000  Uiso   1.00
O470   O     0.24675   0.23796   0.46008   0.00000  Uiso   1.00
O471   O     0.24480   0.08559   0.43612   0.00000  Uiso   1.00
O472   O     0.25520   0.24774   0.56388   0.00000  Uiso   1.00
O473   O     0.18936   0.17155   0.55191   0.00000  Uiso   1.00
O474   O     0.31065   0.16179   0.44809   0.00000  Uiso   1.00
O475   O     0.18090   0.16176   0.44810   0.00000  Uiso   1.00
O476   O     0.31910   0.17157   0.55190   0.00000  Uiso   1.00
C477   C     0.74851   0.06660   0.48420   0.00000  Uiso   1.00
C478   C     0.58812   0.11524   0.48077   0.00000  Uiso   1.00
C479   C     0.88359   0.16964   0.49931   0.00000  Uiso   1.00
C480   C     0.61641   0.16369   0.50069   0.00000  Uiso   1.00
C481   C     0.90082   0.12184   0.47923   0.00000  Uiso   1.00
C482   C     0.59918   0.21149   0.52077   0.00000  Uiso   1.00
C483   C     0.94688   0.12065   0.47912   0.00000  Uiso   1.00
C484   C     0.55312   0.21269   0.52088   0.00000  Uiso   1.00
C485   C     0.97659   0.16805   0.50009   0.00000  Uiso   1.00
C486   C     0.52341   0.16528   0.49991   0.00000  Uiso   1.00
C487   C     0.95949   0.21793   0.52116   0.00000  Uiso   1.00
C488   C     0.75149   0.26673   0.51580   0.00000  Uiso   1.00
C489   C     0.54051   0.11540   0.47884   0.00000  Uiso   1.00
C490   C     0.96312   0.07204   0.45800   0.00000  Uiso   1.00
C491   C     0.53688   0.26129   0.54200   0.00000  Uiso   1.00
C492   C     0.89060   0.26659   0.53448   0.00000  Uiso   1.00
C493   C     0.60940   0.06675   0.46552   0.00000  Uiso   1.00
C494   C     0.52108   0.01621   0.43098   0.00000  Uiso   1.00
C495   C     0.97892   0.31712   0.56902   0.00000  Uiso   1.00
C496   C     0.69560   0.12221   0.64626   0.00000  Uiso   1.00
C497   C     0.68320   0.06986   0.66396   0.00000  Uiso   1.00
C498   C     0.64374   0.03556   0.62144   0.00000  Uiso   1.00
C499   C     0.50904   0.06865   0.45693   0.00000  Uiso   1.00
C500   C     0.80440   0.21112   0.35374   0.00000  Uiso   1.00
C501   C     0.81680   0.26347   0.33604   0.00000  Uiso   1.00
C502   C     0.85626   0.29778   0.37856   0.00000  Uiso   1.00
C503   C     0.99096   0.26469   0.54307   0.00000  Uiso   1.00
C504   C     0.74774   0.01023   0.47581   0.00000  Uiso   1.00
C505   C     0.75226   0.32311   0.52419   0.00000  Uiso   1.00
C506   C     0.66476   0.16564   0.50022   0.00000  Uiso   1.00
C507   C     0.83524   0.16769   0.49978   0.00000  Uiso   1.00
C508   C     0.91188   0.21809   0.51923   0.00000  Uiso   1.00
Cu509  Cu    0.75501   0.17246   0.56146   0.00000  Uiso   1.00
Cu510  Cu    0.74500   0.16087   0.43854   0.00000  Uiso   1.00
H511   H     0.87795   0.08524   0.46384   0.00000  Uiso   1.00
H512   H     0.71255   0.04672   0.66148   0.00000  Uiso   1.00
H513   H     0.67278   0.07756   0.37682   0.00000  Uiso   1.00
H514   H     0.66770   0.14743   0.65351   0.00000  Uiso   1.00
H515   H     0.69851   0.10861   0.59842   0.00000  Uiso   1.00
H516   H     0.84666   0.31030   0.42538   0.00000  Uiso   1.00
H517   H     0.88597   0.27540   0.37900   0.00000  Uiso   1.00
H518   H     0.86565   0.00071   0.36269   0.00000  Uiso   1.00
H519   H     0.82722   0.25577   0.62318   0.00000  Uiso   1.00
H520   H     0.78745   0.28661   0.33852   0.00000  Uiso   1.00
H521   H     0.80149   0.22473   0.40158   0.00000  Uiso   1.00
H522   H     0.62205   0.24809   0.53616   0.00000  Uiso   1.00
H523   H     0.83230   0.18590   0.34649   0.00000  Uiso   1.00
H524   H     0.93955   0.03612   0.44169   0.00000  Uiso   1.00
H525   H     0.56045   0.29722   0.55831   0.00000  Uiso   1.00
H526   H     0.74336   0.31884   0.42960   0.00000  Uiso   1.00
H527   H     0.75664   0.01450   0.57040   0.00000  Uiso   1.00
H528   H     0.61403   0.05793   0.62100   0.00000  Uiso   1.00
H529   H     0.65334   0.02303   0.57462   0.00000  Uiso   1.00
H530   H     0.63435   0.33263   0.63731   0.00000  Uiso   1.00
N531   N     0.73745   0.15214   0.34617   0.00000  Uiso   1.00
N532   N     0.76256   0.18119   0.65383   0.00000  Uiso   1.00
N533   N     0.87315   0.30495   0.54629   0.00000  Uiso   1.00
N534   N     0.62685   0.02838   0.45371   0.00000  Uiso   1.00
N535   N     0.53008   0.30732   0.40994   0.00000  Uiso   1.00
N536   N     0.96992   0.02602   0.59006   0.00000  Uiso   1.00
O537   O     0.75326   0.09538   0.53992   0.00000  Uiso   1.00
O538   O     0.74675   0.23796   0.46008   0.00000  Uiso   1.00
O539   O     0.74480   0.08559   0.43612   0.00000  Uiso   1.00
O540   O     0.75520   0.24774   0.56388   0.00000  Uiso   1.00
O541   O     0.68936   0.17155   0.55191   0.00000  Uiso   1.00
O542   O     0.81065   0.16179   0.44809   0.00000  Uiso   1.00
O543   O     0.68090   0.16176   0.44810   0.00000  Uiso   1.00
O544   O     0.81910   0.17157   0.55190   0.00000  Uiso   1.00
C545   C     0.24851   0.39993   0.48420   0.00000  Uiso   1.00
C546   C     0.08812   0.44858   0.48077   0.00000  Uiso   1.00
C547   C     0.38359   0.50298   0.49931   0.00000  Uiso   1.00
C548   C     0.11641   0.49702   0.50069   0.00000  Uiso   1.00
C549   C     0.40082   0.45518   0.47923   0.00000  Uiso   1.00
C550   C     0.09918   0.54482   0.52077   0.00000  Uiso   1.00
C551   C     0.44688   0.45398   0.47912   0.00000  Uiso   1.00
C552   C     0.05312   0.54602   0.52088   0.00000  Uiso   1.00
C553   C     0.47659   0.50139   0.50009   0.00000  Uiso   1.00
C554   C     0.02341   0.49861   0.49991   0.00000  Uiso   1.00
C555   C     0.45949   0.55127   0.52116   0.00000  Uiso   1.00
C556   C     0.25149   0.60007   0.51580   0.00000  Uiso   1.00
C557   C     0.04051   0.44873   0.47884   0.00000  Uiso   1.00
C558   C     0.46312   0.40538   0.45800   0.00000  Uiso   1.00
C559   C     0.03688   0.59462   0.54200   0.00000  Uiso   1.00
C560   C     0.39060   0.59992   0.53448   0.00000  Uiso   1.00
C561   C     0.10940   0.40008   0.46552   0.00000  Uiso   1.00
C562   C     0.02108   0.34955   0.43098   0.00000  Uiso   1.00
C563   C     0.47892   0.65045   0.56902   0.00000  Uiso   1.00
C564   C     0.19560   0.45555   0.64626   0.00000  Uiso   1.00
C565   C     0.18320   0.40320   0.66396   0.00000  Uiso   1.00
C566   C     0.14374   0.36889   0.62144   0.00000  Uiso   1.00
C567   C     0.00904   0.40198   0.45693   0.00000  Uiso   1.00
C568   C     0.30440   0.54445   0.35374   0.00000  Uiso   1.00
C569   C     0.31680   0.59680   0.33604   0.00000  Uiso   1.00
C570   C     0.35626   0.63111   0.37856   0.00000  Uiso   1.00
C571   C     0.49096   0.59802   0.54307   0.00000  Uiso   1.00
C572   C     0.24774   0.34356   0.47581   0.00000  Uiso   1.00
C573   C     0.25226   0.65644   0.52419   0.00000  Uiso   1.00
C574   C     0.16476   0.49898   0.50022   0.00000  Uiso   1.00
C575   C     0.33524   0.50102   0.49978   0.00000  Uiso   1.00
C576   C     0.41188   0.55142   0.51923   0.00000  Uiso   1.00
Cu577  Cu    0.25501   0.50579   0.56146   0.00000  Uiso   1.00
Cu578  Cu    0.24500   0.49421   0.43854   0.00000  Uiso   1.00
H579   H     0.37795   0.41858   0.46384   0.00000  Uiso   1.00
H580   H     0.21255   0.38006   0.66148   0.00000  Uiso   1.00
H581   H     0.17278   0.41089   0.37682   0.00000  Uiso   1.00
H582   H     0.16770   0.48077   0.65351   0.00000  Uiso   1.00
H583   H     0.19851   0.44194   0.59842   0.00000  Uiso   1.00
H584   H     0.34666   0.64364   0.42538   0.00000  Uiso   1.00
H585   H     0.38597   0.60873   0.37900   0.00000  Uiso   1.00
H586   H     0.36565   0.33404   0.36269   0.00000  Uiso   1.00
H587   H     0.32722   0.58911   0.62318   0.00000  Uiso   1.00
H588   H     0.28745   0.61994   0.33852   0.00000  Uiso   1.00
H589   H     0.30149   0.55806   0.40158   0.00000  Uiso   1.00
H590   H     0.12205   0.58142   0.53616   0.00000  Uiso   1.00
H591   H     0.33230   0.51923   0.34649   0.00000  Uiso   1.00
H592   H     0.43955   0.36945   0.44169   0.00000  Uiso   1.00
H593   H     0.06045   0.63055   0.55831   0.00000  Uiso   1.00
H594   H     0.24336   0.65217   0.42960   0.00000  Uiso   1.00
H595   H     0.25664   0.34783   0.57040   0.00000  Uiso   1.00
H596   H     0.11403   0.39127   0.62100   0.00000  Uiso   1.00
H597   H     0.15334   0.35636   0.57462   0.00000  Uiso   1.00
H598   H     0.13435   0.66596   0.63731   0.00000  Uiso   1.00
N599   N     0.23745   0.48547   0.34617   0.00000  Uiso   1.00
N600   N     0.26256   0.51453   0.65383   0.00000  Uiso   1.00
N601   N     0.37315   0.63829   0.54629   0.00000  Uiso   1.00
N602   N     0.12685   0.36171   0.45371   0.00000  Uiso   1.00
N603   N     0.03008   0.64065   0.40994   0.00000  Uiso   1.00
N604   N     0.46992   0.35935   0.59006   0.00000  Uiso   1.00
O605   O     0.25326   0.42871   0.53992   0.00000  Uiso   1.00
O606   O     0.24675   0.57129   0.46008   0.00000  Uiso   1.00
O607   O     0.24480   0.41892   0.43612   0.00000  Uiso   1.00
O608   O     0.25520   0.58108   0.56388   0.00000  Uiso   1.00
O609   O     0.18936   0.50488   0.55191   0.00000  Uiso   1.00
O610   O     0.31065   0.49512   0.44809   0.00000  Uiso   1.00
O611   O     0.18090   0.49510   0.44810   0.00000  Uiso   1.00
O612   O     0.31910   0.50490   0.55190   0.00000  Uiso   1.00
C613   C     0.74851   0.39993   0.48420   0.00000  Uiso   1.00
C614   C     0.58812   0.44858   0.48077   0.00000  Uiso   1.00
C615   C     0.88359   0.50298   0.49931   0.00000  Uiso   1.00
C616   C     0.61641   0.49702   0.50069   0.00000  Uiso   1.00
C617   C     0.90082   0.45518   0.47923   0.00000  Uiso   1.00
C618   C     0.59918   0.54482   0.52077   0.00000  Uiso   1.00
C619   C     0.94688   0.45398   0.47912   0.00000  Uiso   1.00
C620   C     0.55312   0.54602   0.52088   0.00000  Uiso   1.00
C621   C     0.97659   0.50139   0.50009   0.00000  Uiso   1.00
C622   C     0.52341   0.49861   0.49991   0.00000  Uiso   1.00
C623   C     0.95949   0.55127   0.52116   0.00000  Uiso   1.00
C624   C     0.75149   0.60007   0.51580   0.00000  Uiso   1.00
C625   C     0.54051   0.44873   0.47884   0.00000  Uiso   1.00
C626   C     0.96312   0.40538   0.45800   0.00000  Uiso   1.00
C627   C     0.53688   0.59462   0.54200   0.00000  Uiso   1.00
C628   C     0.89060   0.59992   0.53448   0.00000  Uiso   1.00
C629   C     0.60940   0.40008   0.46552   0.00000  Uiso   1.00
C630   C     0.52108   0.34955   0.43098   0.00000  Uiso   1.00
C631   C     0.97892   0.65045   0.56902   0.00000  Uiso   1.00
C632   C     0.69560   0.45555   0.64626   0.00000  Uiso   1.00
C633   C     0.68320   0.40320   0.66396   0.00000  Uiso   1.00
C634   C     0.64374   0.36889   0.62144   0.00000  Uiso   1.00
C635   C     0.50904   0.40198   0.45693   0.00000  Uiso   1.00
C636   C     0.80440   0.54445   0.35374   0.00000  Uiso   1.00
C637   C     0.81680   0.59680   0.33604   0.00000  Uiso   1.00
C638   C     0.85626   0.63111   0.37856   0.00000  Uiso   1.00
C639   C     0.99096   0.59802   0.54307   0.00000  Uiso   1.00
C640   C     0.74774   0.34356   0.47581   0.00000  Uiso   1.00
C641   C     0.75226   0.65644   0.52419   0.00000  Uiso   1.00
C642   C     0.66476   0.49898   0.50022   0.00000  Uiso   1.00
C643   C     0.83524   0.50102   0.49978   0.00000  Uiso   1.00
C644   C     0.91188   0.55142   0.51923   0.00000  Uiso   1.00
Cu645  Cu    0.75501   0.50579   0.56146   0.00000  Uiso   1.00
Cu646  Cu    0.74500   0.49421   0.43854   0.00000  Uiso   1.00
H647   H     0.87795   0.41858   0.46384   0.00000  Uiso   1.00
H648   H     0.71255   0.38006   0.66148   0.00000  Uiso   1.00
H649   H     0.67278   0.41089   0.37682   0.00000  Uiso   1.00
H650   H     0.66770   0.48077   0.65351   0.00000  Uiso   1.00
H651   H     0.69851   0.44194   0.59842   0.00000  Uiso   1.00
H652   H     0.84666   0.64364   0.42538   0.00000  Uiso   1.00
H653   H     0.88597   0.60873   0.37900   0.00000  Uiso   1.00
H654   H     0.86565   0.33404   0.36269   0.00000  Uiso   1.00
H655   H     0.82722   0.58911   0.62318   0.00000  Uiso   1.00
H656   H     0.78745   0.61994   0.33852   0.00000  Uiso   1.00
H657   H     0.80149   0.55806   0.40158   0.00000  Uiso   1.00
H658   H     0.62205   0.58142   0.53616   0.00000  Uiso   1.00
H659   H     0.83230   0.51923   0.34649   0.00000  Uiso   1.00
H660   H     0.93955   0.36945   0.44169   0.00000  Uiso   1.00
H661   H     0.56045   0.63055   0.55831   0.00000  Uiso   1.00
H662   H     0.74336   0.65217   0.42960   0.00000  Uiso   1.00
H663   H     0.75664   0.34783   0.57040   0.00000  Uiso   1.00
H664   H     0.61403   0.39127   0.62100   0.00000  Uiso   1.00
H665   H     0.65334   0.35636   0.57462   0.00000  Uiso   1.00
H666   H     0.63435   0.66596   0.63731   0.00000  Uiso   1.00
N667   N     0.73745   0.48547   0.34617   0.00000  Uiso   1.00
N668   N     0.76256   0.51453   0.65383   0.00000  Uiso   1.00
N669   N     0.87315   0.63829   0.54629   0.00000  Uiso   1.00
N670   N     0.62685   0.36171   0.45371   0.00000  Uiso   1.00
N671   N     0.53008   0.64065   0.40994   0.00000  Uiso   1.00
N672   N     0.96992   0.35935   0.59006   0.00000  Uiso   1.00
O673   O     0.75326   0.42871   0.53992   0.00000  Uiso   1.00
O674   O     0.74675   0.57129   0.46008   0.00000  Uiso   1.00
O675   O     0.74480   0.41892   0.43612   0.00000  Uiso   1.00
O676   O     0.75520   0.58108   0.56388   0.00000  Uiso   1.00
O677   O     0.68936   0.50488   0.55191   0.00000  Uiso   1.00
O678   O     0.81065   0.49512   0.44809   0.00000  Uiso   1.00
O679   O     0.68090   0.49510   0.44810   0.00000  Uiso   1.00
O680   O     0.81910   0.50490   0.55190   0.00000  Uiso   1.00
C681   C     0.24851   0.73327   0.48420   0.00000  Uiso   1.00
C682   C     0.08812   0.78191   0.48077   0.00000  Uiso   1.00
C683   C     0.38359   0.83631   0.49931   0.00000  Uiso   1.00
C684   C     0.11641   0.83036   0.50069   0.00000  Uiso   1.00
C685   C     0.40082   0.78851   0.47923   0.00000  Uiso   1.00
C686   C     0.09918   0.87816   0.52077   0.00000  Uiso   1.00
C687   C     0.44688   0.78731   0.47912   0.00000  Uiso   1.00
C688   C     0.05312   0.87935   0.52088   0.00000  Uiso   1.00
C689   C     0.47659   0.83472   0.50009   0.00000  Uiso   1.00
C690   C     0.02341   0.83195   0.49991   0.00000  Uiso   1.00
C691   C     0.45949   0.88460   0.52116   0.00000  Uiso   1.00
C692   C     0.25149   0.93340   0.51580   0.00000  Uiso   1.00
C693   C     0.04051   0.78207   0.47884   0.00000  Uiso   1.00
C694   C     0.46312   0.73871   0.45800   0.00000  Uiso   1.00
C695   C     0.03688   0.92796   0.54200   0.00000  Uiso   1.00
C696   C     0.39060   0.93325   0.53448   0.00000  Uiso   1.00
C697   C     0.10940   0.73341   0.46552   0.00000  Uiso   1.00
C698   C     0.02108   0.68288   0.43098   0.00000  Uiso   1.00
C699   C     0.47892   0.98379   0.56902   0.00000  Uiso   1.00
C700   C     0.19560   0.78888   0.64626   0.00000  Uiso   1.00
C701   C     0.18320   0.73653   0.66396   0.00000  Uiso   1.00
C702   C     0.14374   0.70222   0.62144   0.00000  Uiso   1.00
C703   C     0.00904   0.73531   0.45693   0.00000  Uiso   1.00
C704   C     0.30440   0.87779   0.35374   0.00000  Uiso   1.00
C705   C     0.31680   0.93014   0.33604   0.00000  Uiso   1.00
C706   C     0.35626   0.96444   0.37856   0.00000  Uiso   1.00
C707   C     0.49096   0.93135   0.54307   0.00000  Uiso   1.00
C708   C     0.24774   0.67689   0.47581   0.00000  Uiso   1.00
C709   C     0.25226   0.98977   0.52419   0.00000  Uiso   1.00
C710   C     0.16476   0.83231   0.50022   0.00000  Uiso   1.00
C711   C     0.33524   0.83436   0.49978   0.00000  Uiso   1.00
C712   C     0.41188   0.88476   0.51923   0.00000  Uiso   1.00
Cu713  Cu    0.25501   0.83913   0.56146   0.00000  Uiso   1.00
Cu714  Cu    0.24500   0.82754   0.43854   0.00000  Uiso   1.00
H715   H     0.37795   0.75191   0.46384   0.00000  Uiso   1.00
H716   H     0.21255   0.71339   0.66148   0.00000  Uiso   1.00
H717   H     0.17278   0.74423   0.37682   0.00000  Uiso   1.00
H718   H     0.16770   0.81410   0.65351   0.00000  Uiso   1.00
H719   H     0.19851   0.77527   0.59842   0.00000  Uiso   1.00
H720   H     0.34666   0.97697   0.42538   0.00000  Uiso   1.00
H721   H     0.38597   0.94207   0.37900   0.00000  Uiso   1.00
H722   H     0.36565   0.66738   0.36269   0.00000  Uiso   1.00
H723   H     0.32722   0.92244   0.62318   0.00000  Uiso   1.00
H724   H     0.28745   0.95328   0.33852   0.00000  Uiso   1.00
H725   H     0.30149   0.89139   0.40158   0.00000  Uiso   1.00
H726   H     0.12205   0.91476   0.53616   0.00000  Uiso   1.00
H727   H     0.33230   0.85257   0.34649   0.00000  Uiso   1.00
H728   H     0.43955   0.70278   0.44169   0.00000  Uiso   1.00
H729   H     0.06045   0.96388   0.55831   0.00000  Uiso   1.00
H730   H     0.24336   0.98550   0.42960   0.00000  Uiso   1.00
H731   H     0.25664   0.68116   0.57040   0.00000  Uiso   1.00
H732   H     0.11403   0.72460   0.62100   0.00000  Uiso   1.00
H733   H     0.15334   0.68970   0.57462   0.00000  Uiso   1.00
H734   H     0.13435   0.99929   0.63731   0.00000  Uiso   1.00
N735   N     0.23745   0.81881   0.34617   0.00000  Uiso   1.00
N736   N     0.26256   0.84786   0.65383   0.00000  Uiso   1.00
N737   N     0.37315   0.97162   0.54629   0.00000  Uiso   1.00
N738   N     0.12685   0.69505   0.45371   0.00000  Uiso   1.00
N739   N     0.03008   0.97398   0.40994   0.00000  Uiso   1.00
N740   N     0.46992   0.69268   0.59006   0.00000  Uiso   1.00
O741   O     0.25326   0.76204   0.53992   0.00000  Uiso   1.00
O742   O     0.24675   0.90462   0.46008   0.00000  Uiso   1.00
O743   O     0.24480   0.75226   0.43612   0.00000  Uiso   1.00
O744   O     0.25520   0.91441   0.56388   0.00000  Uiso   1.00
O745   O     0.18936   0.83821   0.55191   0.00000  Uiso   1.00
O746   O     0.31065   0.82845   0.44809   0.00000  Uiso   1.00
O747   O     0.18090   0.82843   0.44810   0.00000  Uiso   1.00
O748   O     0.31910   0.83824   0.55190   0.00000  Uiso   1.00
C749   C     0.74851   0.73327   0.48420   0.00000  Uiso   1.00
C750   C     0.58812   0.78191   0.48077   0.00000  Uiso   1.00
C751   C     0.88359   0.83631   0.49931   0.00000  Uiso   1.00
C752   C     0.61641   0.83036   0.50069   0.00000  Uiso   1.00
C753   C     0.90082   0.78851   0.47923   0.00000  Uiso   1.00
C754   C     0.59918   0.87816   0.52077   0.00000  Uiso   1.00
C755   C     0.94688   0.78731   0.47912   0.00000  Uiso   1.00
C756   C     0.55312   0.87935   0.52088   0.00000  Uiso   1.00
C757   C     0.97659   0.83472   0.50009   0.00000  Uiso   1.00
C758   C     0.52341   0.83195   0.49991   0.00000  Uiso   1.00
C759   C     0.95949   0.88460   0.52116   0.00000  Uiso   1.00
C760   C     0.75149   0.93340   0.51580   0.00000  Uiso   1.00
C761   C     0.54051   0.78207   0.47884   0.00000  Uiso   1.00
C762   C     0.96312   0.73871   0.45800   0.00000  Uiso   1.00
C763   C     0.53688   0.92796   0.54200   0.00000  Uiso   1.00
C764   C     0.89060   0.93325   0.53448   0.00000  Uiso   1.00
C765   C     0.60940   0.73341   0.46552   0.00000  Uiso   1.00
C766   C     0.52108   0.68288   0.43098   0.00000  Uiso   1.00
C767   C     0.97892   0.98379   0.56902   0.00000  Uiso   1.00
C768   C     0.69560   0.78888   0.64626   0.00000  Uiso   1.00
C769   C     0.68320   0.73653   0.66396   0.00000  Uiso   1.00
C770   C     0.64374   0.70222   0.62144   0.00000  Uiso   1.00
C771   C     0.50904   0.73531   0.45693   0.00000  Uiso   1.00
C772   C     0.80440   0.87779   0.35374   0.00000  Uiso   1.00
C773   C     0.81680   0.93014   0.33604   0.00000  Uiso   1.00
C774   C     0.85626   0.96444   0.37856   0.00000  Uiso   1.00
C775   C     0.99096   0.93135   0.54307   0.00000  Uiso   1.00
C776   C     0.74774   0.67689   0.47581   0.00000  Uiso   1.00
C777   C     0.75226   0.98977   0.52419   0.00000  Uiso   1.00
C778   C     0.66476   0.83231   0.50022   0.00000  Uiso   1.00
C779   C     0.83524   0.83436   0.49978   0.00000  Uiso   1.00
C780   C     0.91188   0.88476   0.51923   0.00000  Uiso   1.00
Cu781  Cu    0.75501   0.83913   0.56146   0.00000  Uiso   1.00
Cu782  Cu    0.74500   0.82754   0.43854   0.00000  Uiso   1.00
H783   H     0.87795   0.75191   0.46384   0.00000  Uiso   1.00
H784   H     0.71255   0.71339   0.66148   0.00000  Uiso   1.00
H785   H     0.67278   0.74423   0.37682   0.00000  Uiso   1.00
H786   H     0.66770   0.81410   0.65351   0.00000  Uiso   1.00
H787   H     0.69851   0.77527   0.59842   0.00000  Uiso   1.00
H788   H     0.84666   0.97697   0.42538   0.00000  Uiso   1.00
H789   H     0.88597   0.94207   0.37900   0.00000  Uiso   1.00
H790   H     0.86565   0.66738   0.36269   0.00000  Uiso   1.00
H791   H     0.82722   0.92244   0.62318   0.00000  Uiso   1.00
H792   H     0.78745   0.95328   0.33852   0.00000  Uiso   1.00
H793   H     0.80149   0.89139   0.40158   0.00000  Uiso   1.00
H794   H     0.62205   0.91476   0.53616   0.00000  Uiso   1.00
H795   H     0.83230   0.85257   0.34649   0.00000  Uiso   1.00
H796   H     0.93955   0.70278   0.44169   0.00000  Uiso   1.00
H797   H     0.56045   0.96388   0.55831   0.00000  Uiso   1.00
H798   H     0.74336   0.98550   0.42960   0.00000  Uiso   1.00
H799   H     0.75664   0.68116   0.57040   0.00000  Uiso   1.00
H800   H     0.61403   0.72460   0.62100   0.00000  Uiso   1.00
H801   H     0.65334   0.68970   0.57462   0.00000  Uiso   1.00
H802   H     0.63435   0.99929   0.63731   0.00000  Uiso   1.00
N803   N     0.73745   0.81881   0.34617   0.00000  Uiso   1.00
N804   N     0.76256   0.84786   0.65383   0.00000  Uiso   1.00
N805   N     0.87315   0.97162   0.54629   0.00000  Uiso   1.00
N806   N     0.62685   0.69505   0.45371   0.00000  Uiso   1.00
N807   N     0.53008   0.97398   0.40994   0.00000  Uiso   1.00
N808   N     0.96992   0.69268   0.59006   0.00000  Uiso   1.00
O809   O     0.75326   0.76204   0.53992   0.00000  Uiso   1.00
O810   O     0.74675   0.90462   0.46008   0.00000  Uiso   1.00
O811   O     0.74480   0.75226   0.43612   0.00000  Uiso   1.00
O812   O     0.75520   0.91441   0.56388   0.00000  Uiso   1.00
O813   O     0.68936   0.83821   0.55191   0.00000  Uiso   1.00
O814   O     0.81065   0.82845   0.44809   0.00000  Uiso   1.00
O815   O     0.68090   0.82843   0.44810   0.00000  Uiso   1.00
O816   O     0.81910   0.83824   0.55190   0.00000  Uiso   1.00
C817   C     0.24851   0.06660   0.81753   0.00000  Uiso   1.00
C818   C     0.08812   0.11524   0.81410   0.00000  Uiso   1.00
C819   C     0.38359   0.16964   0.83264   0.00000  Uiso   1.00
C820   C     0.11641   0.16369   0.83403   0.00000  Uiso   1.00
C821   C     0.40082   0.12184   0.81256   0.00000  Uiso   1.00
C822   C     0.09918   0.21149   0.85410   0.00000  Uiso   1.00
C823   C     0.44688   0.12065   0.81245   0.00000  Uiso   1.00
C824   C     0.05312   0.21269   0.85422   0.00000  Uiso   1.00
C825   C     0.47659   0.16805   0.83343   0.00000  Uiso   1.00
C826   C     0.02341   0.16528   0.83324   0.00000  Uiso   1.00
C827   C     0.45949   0.21793   0.85449   0.00000  Uiso   1.00
C828   C     0.25149   0.26673   0.84913   0.00000  Uiso   1.00
C829   C     0.04051   0.11540   0.81217   0.00000  Uiso   1.00
C830   C     0.46312   0.07204   0.79133   0.00000  Uiso   1.00
C831   C     0.03688   0.26129   0.87533   0.00000  Uiso   1.00
C832   C     0.39060   0.26659   0.86781   0.00000  Uiso   1.00
C833   C     0.10940   0.06675   0.79885   0.00000  Uiso   1.00
C834   C     0.02108   0.01621   0.76432   0.00000  Uiso   1.00
C835   C     0.47892   0.31712   0.90235   0.00000  Uiso   1.00
C836   C     0.19560   0.12221   0.97959   0.00000  Uiso   1.00
C837   C     0.18320   0.06986   0.99729   0.00000  Uiso   1.00
C838   C     0.14374   0.03556   0.95478   0.00000  Uiso   1.00
C839   C     0.00904   0.06865   0.79026   0.00000  Uiso   1.00
C840   C     0.30440   0.21112   0.68707   0.00000  Uiso   1.00
C841   C     0.31680   0.26347   0.66938   0.00000  Uiso   1.00
C842   C     0.35626   0.29778   0.71189   0.00000  Uiso   1.00
C843   C     0.49096   0.26469   0.87640   0.00000  Uiso   1.00
C844   C     0.24774   0.01023   0.80915   0.00000  Uiso   1.00
C845   C     0.25226   0.32311   0.85752   0.00000  Uiso   1.00
C846   C     0.16476   0.16564   0.83355   0.00000  Uiso   1.00
C847   C     0.33524   0.16769   0.83311   0.00000  Uiso   1.00
C848   C     0.41188   0.21809   0.85256   0.00000  Uiso   1.00
Cu849  Cu    0.25501   0.17246   0.89479   0.00000  Uiso   1.00
Cu850  Cu    0.24500   0.16087   0.77187   0.00000  Uiso   1.00
H851   H     0.37795   0.08524   0.79717   0.00000  Uiso   1.00
H852   H     0.21255   0.04672   0.99482   0.00000  Uiso   1.00
H853   H     0.17278   0.07756   0.71015   0.00000  Uiso   1.00
H854   H     0.16770   0.14743   0.98685   0.00000  Uiso   1.00
H855   H     0.19851   0.10861   0.93175   0.00000  Uiso   1.00
H856   H     0.34666   0.31030   0.75872   0.00000  Uiso   1.00
H857   H     0.38597   0.27540   0.71233   0.00000  Uiso   1.00
H858   H     0.36565   0.00071   0.69602   0.00000  Uiso   1.00
H859   H     0.32722   0.25577   0.95651   0.00000  Uiso   1.00
H860   H     0.28745   0.28661   0.67185   0.00000  Uiso   1.00
H861   H     0.30149   0.22473   0.73491   0.00000  Uiso   1.00
H862   H     0.12205   0.24809   0.86950   0.00000  Uiso   1.00
H863   H     0.33230   0.18590   0.67982   0.00000  Uiso   1.00
H864   H     0.43955   0.03612   0.77503   0.00000  Uiso   1.00
H865   H     0.06045   0.29722   0.89164   0.00000  Uiso   1.00
H866   H     0.24336   0.31884   0.76294   0.00000  Uiso   1.00
H867   H     0.25664   0.01450   0.90373   0.00000  Uiso   1.00
H868   H     0.11403   0.05793   0.95434   0.00000  Uiso   1.00
H869   H     0.15334   0.02303   0.90795   0.00000  Uiso   1.00
H870   H     0.13435   0.33263   0.97064   0.00000  Uiso   1.00
N871   N     0.23745   0.15214   0.67951   0.00000  Uiso   1.00
N872   N     0.26256   0.18119   0.98716   0.00000  Uiso   1.00
N873   N     0.37315   0.30495   0.87963   0.00000  Uiso   1.00
N874   N     0.12685   0.02838   0.78704   0.00000  Uiso   1.00
N875   N     0.03008   0.30732   0.74327   0.00000  Uiso   1.00
N876   N     0.46992   0.02602   0.92340   0.00000  Uiso   1.00
O877   O     0.25326   0.09538   0.87326   0.00000  Uiso   1.00
O878   O     0.24675   0.23796   0.79341   0.00000  Uiso   1.00
O879   O     0.24480   0.08559   0.76945   0.00000  Uiso   1.00
O880   O     0.25520   0.24774   0.89721   0.00000  Uiso   1.00
O881   O     0.18936   0.17155   0.88524   0.00000  Uiso   1.00
O882   O     0.31065   0.16179   0.78143   0.00000  Uiso   1.00
O883   O     0.18090   0.16176   0.78143   0.00000  Uiso   1.00
O884   O     0.31910   0.17157   0.88523   0.00000  Uiso   1.00
C885   C     0.74851   0.06660   0.81753   0.00000  Uiso   1.00
C886   C     0.58812   0.11524   0.81410   0.00000  Uiso   1.00
C887   C     0.88359   0.16964   0.83264   0.00000  Uiso   1.00
C888   C     0.61641   0.16369   0.83403   0.00000  Uiso   1.00
C889   C     0.90082   0.12184   0.81256   0.00000  Uiso   1.00
C890   C     0.59918   0.21149   0.85410   0.00000  Uiso   1.00
C891   C     0.94688   0.12065   0.81245   0.00000  Uiso   1.00
C892   C     0.55312   0.21269   0.85422   0.00000  Uiso   1.00
C893   C     0.97659   0.16805   0.83343   0.00000  Uiso   1.00
C894   C     0.52341   0.16528   0.83324   0.00000  Uiso   1.00
C895   C     0.95949   0.21793   0.85449   0.00000  Uiso   1.00
C896   C     0.75149   0.26673   0.84913   0.00000  Uiso   1.00
C897   C     0.54051   0.11540   0.81217   0.00000  Uiso   1.00
C898   C     0.96312   0.07204   0.79133   0.00000  Uiso   1.00
C899   C     0.53688   0.26129   0.87533   0.00000  Uiso   1.00
C900   C     0.89060   0.26659   0.86781   0.00000  Uiso   1.00
C901   C     0.60940   0.06675   0.79885   0.00000  Uiso   1.00
C902   C     0.52108   0.01621   0.76432   0.00000  Uiso   1.00
C903   C     0.97892   0.31712   0.90235   0.00000  Uiso   1.00
C904   C     0.69560   0.12221   0.97959   0.00000  Uiso   1.00
C905   C     0.68320   0.06986   0.99729   0.00000  Uiso   1.00
C906   C     0.64374   0.03556   0.95478   0.00000  Uiso   1.00
C907   C     0.50904   0.06865   0.79026   0.00000  Uiso   1.00
C908   C     0.80440   0.21112   0.68707   0.00000  Uiso   1.00
C909   C     0.81680   0.26347   0.66938   0.00000  Uiso   1.00
C910   C     0.85626   0.29778   0.71189   0.00000  Uiso   1.00
C911   C     0.99096   0.26469   0.87640   0.00000  Uiso   1.00
C912   C     0.74774   0.01023   0.80915   0.00000  Uiso   1.00
C913   C     0.75226   0.32311   0.85752   0.00000  Uiso   1.00
C914   C     0.66476   0.16564   0.83355   0.00000  Uiso   1.00
C915   C     0.83524   0.16769   0.83311   0.00000  Uiso   1.00
C916   C     0.91188   0.21809   0.85256   0.00000  Uiso   1.00
Cu917  Cu    0.75501   0.17246   0.89479   0.00000  Uiso   1.00
Cu918  Cu    0.74500   0.16087   0.77187   0.00000  Uiso   1.00
H919   H     0.87795   0.08524   0.79717   0.00000  Uiso   1.00
H920   H     0.71255   0.04672   0.99482   0.00000  Uiso   1.00
H921   H     0.67278   0.07756   0.71015   0.00000  Uiso   1.00
H922   H     0.66770   0.14743   0.98685   0.00000  Uiso   1.00
H923   H     0.69851   0.10861   0.93175   0.00000  Uiso   1.00
H924   H     0.84666   0.31030   0.75872   0.00000  Uiso   1.00
H925   H     0.88597   0.27540   0.71233   0.00000  Uiso   1.00
H926   H     0.86565   0.00071   0.69602   0.00000  Uiso   1.00
H927   H     0.82722   0.25577   0.95651   0.00000  Uiso   1.00
H928   H     0.78745   0.28661   0.67185   0.00000  Uiso   1.00
H929   H     0.80149   0.22473   0.73491   0.00000  Uiso   1.00
H930   H     0.62205   0.24809   0.86950   0.00000  Uiso   1.00
H931   H     0.83230   0.18590   0.67982   0.00000  Uiso   1.00
H932   H     0.93955   0.03612   0.77503   0.00000  Uiso   1.00
H933   H     0.56045   0.29722   0.89164   0.00000  Uiso   1.00
H934   H     0.74336   0.31884   0.76294   0.00000  Uiso   1.00
H935   H     0.75664   0.01450   0.90373   0.00000  Uiso   1.00
H936   H     0.61403   0.05793   0.95434   0.00000  Uiso   1.00
H937   H     0.65334   0.02303   0.90795   0.00000  Uiso   1.00
H938   H     0.63435   0.33263   0.97064   0.00000  Uiso   1.00
N939   N     0.73745   0.15214   0.67951   0.00000  Uiso   1.00
N940   N     0.76256   0.18119   0.98716   0.00000  Uiso   1.00
N941   N     0.87315   0.30495   0.87963   0.00000  Uiso   1.00
N942   N     0.62685   0.02838   0.78704   0.00000  Uiso   1.00
N943   N     0.53008   0.30732   0.74327   0.00000  Uiso   1.00
N944   N     0.96992   0.02602   0.92340   0.00000  Uiso   1.00
O945   O     0.75326   0.09538   0.87326   0.00000  Uiso   1.00
O946   O     0.74675   0.23796   0.79341   0.00000  Uiso   1.00
O947   O     0.74480   0.08559   0.76945   0.00000  Uiso   1.00
O948   O     0.75520   0.24774   0.89721   0.00000  Uiso   1.00
O949   O     0.68936   0.17155   0.88524   0.00000  Uiso   1.00
O950   O     0.81065   0.16179   0.78143   0.00000  Uiso   1.00
O951   O     0.68090   0.16176   0.78143   0.00000  Uiso   1.00
O952   O     0.81910   0.17157   0.88523   0.00000  Uiso   1.00
C953   C     0.24851   0.39993   0.81753   0.00000  Uiso   1.00
C954   C     0.08812   0.44858   0.81410   0.00000  Uiso   1.00
C955   C     0.38359   0.50298   0.83264   0.00000  Uiso   1.00
C956   C     0.11641   0.49702   0.83403   0.00000  Uiso   1.00
C957   C     0.40082   0.45518   0.81256   0.00000  Uiso   1.00
C958   C     0.09918   0.54482   0.85410   0.00000  Uiso   1.00
C959   C     0.44688   0.45398   0.81245   0.00000  Uiso   1.00
C960   C     0.05312   0.54602   0.85422   0.00000  Uiso   1.00
C961   C     0.47659   0.50139   0.83343   0.00000  Uiso   1.00
C962   C     0.02341   0.49861   0.83324   0.00000  Uiso   1.00
C963   C     0.45949   0.55127   0.85449   0.00000  Uiso   1.00
C964   C     0.25149   0.60007   0.84913   0.00000  Uiso   1.00
C965   C     0.04051   0.44873   0.81217   0.00000  Uiso   1.00
C966   C     0.46312   0.40538   0.79133   0.00000  Uiso   1.00
C967   C     0.03688   0.59462   0.87533   0.00000  Uiso   1.00
C968   C     0.39060   0.59992   0.86781   0.00000  Uiso   1.00
C969   C     0.10940   0.40008   0.79885   0.00000  Uiso   1.00
C970   C     0.02108   0.34955   0.76432   0.00000  Uiso   1.00
C971   C     0.47892   0.65045   0.90235   0.00000  Uiso   1.00
C972   C     0.19560   0.45555   0.97959   0.00000  Uiso   1.00
C973   C     0.18320   0.40320   0.99729   0.00000  Uiso   1.00
C974   C     0.14374   0.36889   0.95478   0.00000  Uiso   1.00
C975   C     0.00904   0.40198   0.79026   0.00000  Uiso   1.00
C976   C     0.30440   0.54445   0.68707   0.00000  Uiso   1.00
C977   C     0.31680   0.59680   0.66938   0.00000  Uiso   1.00
C978   C     0.35626   0.63111   0.71189   0.00000  Uiso   1.00
C979   C     0.49096   0.59802   0.87640   0.00000  Uiso   1.00
C980   C     0.24774   0.34356   0.80915   0.00000  Uiso   1.00
C981   C     0.25226   0.65644   0.85752   0.00000  Uiso   1.00
C982   C     0.16476   0.49898   0.83355   0.00000  Uiso   1.00
C983   C     0.33524   0.50102   0.83311   0.00000  Uiso   1.00
C984   C     0.41188   0.55142   0.85256   0.00000  Uiso   1.00
Cu985  Cu    0.25501   0.50579   0.89479   0.00000  Uiso   1.00
Cu986  Cu    0.24500   0.49421   0.77187   0.00000  Uiso   1.00
H987   H     0.37795   0.41858   0.79717   0.00000  Uiso   1.00
H988   H     0.21255   0.38006   0.99482   0.00000  Uiso   1.00
H989   H     0.17278   0.41089   0.71015   0.00000  Uiso   1.00
H990   H     0.16770   0.48077   0.98685   0.00000  Uiso   1.00
H991   H     0.19851   0.44194   0.93175   0.00000  Uiso   1.00
H992   H     0.34666   0.64364   0.75872   0.00000  Uiso   1.00
H993   H     0.38597   0.60873   0.71233   0.00000  Uiso   1.00
H994   H     0.36565   0.33404   0.69602   0.00000  Uiso   1.00
H995   H     0.32722   0.58911   0.95651   0.00000  Uiso   1.00
H996   H     0.28745   0.61994   0.67185   0.00000  Uiso   1.00
H997   H     0.30149   0.55806   0.73491   0.00000  Uiso   1.00
H998   H     0.12205   0.58142   0.86950   0.00000  Uiso   1.00
H999   H     0.33230   0.51923   0.67982   0.00000  Uiso   1.00
H1000  H     0.43955   0.36945   0.77503   0.00000  Uiso   1.00
H1001  H     0.06045   0.63055   0.89164   0.00000  Uiso   1.00
H1002  H     0.24336   0.65217   0.76294   0.00000  Uiso   1.00
H1003  H     0.25664   0.34783   0.90373   0.00000  Uiso   1.00
H1004  H     0.11403   0.39127   0.95434   0.00000  Uiso   1.00
H1005  H     0.15334   0.35636   0.90795   0.00000  Uiso   1.00
H1006  H     0.13435   0.66596   0.97064   0.00000  Uiso   1.00
N1007  N     0.23745   0.48547   0.67951   0.00000  Uiso   1.00
N1008  N     0.26256   0.51453   0.98716   0.00000  Uiso   1.00
N1009  N     0.37315   0.63829   0.87963   0.00000  Uiso   1.00
N1010  N     0.12685   0.36171   0.78704   0.00000  Uiso   1.00
N1011  N     0.03008   0.64065   0.74327   0.00000  Uiso   1.00
N1012  N     0.46992   0.35935   0.92340   0.00000  Uiso   1.00
O1013  O     0.25326   0.42871   0.87326   0.00000  Uiso   1.00
O1014  O     0.24675   0.57129   0.79341   0.00000  Uiso   1.00
O1015  O     0.24480   0.41892   0.76945   0.00000  Uiso   1.00
O1016  O     0.25520   0.58108   0.89721   0.00000  Uiso   1.00
O1017  O     0.18936   0.50488   0.88524   0.00000  Uiso   1.00
O1018  O     0.31065   0.49512   0.78143   0.00000  Uiso   1.00
O1019  O     0.18090   0.49510   0.78143   0.00000  Uiso   1.00
O1020  O     0.31910   0.50490   0.88523   0.00000  Uiso   1.00
C1021  C     0.74851   0.39993   0.81753   0.00000  Uiso   1.00
C1022  C     0.58812   0.44858   0.81410   0.00000  Uiso   1.00
C1023  C     0.88359   0.50298   0.83264   0.00000  Uiso   1.00
C1024  C     0.61641   0.49702   0.83403   0.00000  Uiso   1.00
C1025  C     0.90082   0.45518   0.81256   0.00000  Uiso   1.00
C1026  C     0.59918   0.54482   0.85410   0.00000  Uiso   1.00
C1027  C     0.94688   0.45398   0.81245   0.00000  Uiso   1.00
C1028  C     0.55312   0.54602   0.85422   0.00000  Uiso   1.00
C1029  C     0.97659   0.50139   0.83343   0.00000  Uiso   1.00
C1030  C     0.52341   0.49861   0.83324   0.00000  Uiso   1.00
C1031  C     0.95949   0.55127   0.85449   0.00000  Uiso   1.00
C1032  C     0.75149   0.60007   0.84913   0.00000  Uiso   1.00
C1033  C     0.54051   0.44873   0.81217   0.00000  Uiso   1.00
C1034  C     0.96312   0.40538   0.79133   0.00000  Uiso   1.00
C1035  C     0.53688   0.59462   0.87533   0.00000  Uiso   1.00
C1036  C     0.89060   0.59992   0.86781   0.00000  Uiso   1.00
C1037  C     0.60940   0.40008   0.79885   0.00000  Uiso   1.00
C1038  C     0.52108   0.34955   0.76432   0.00000  Uiso   1.00
C1039  C     0.97892   0.65045   0.90235   0.00000  Uiso   1.00
C1040  C     0.69560   0.45555   0.97959   0.00000  Uiso   1.00
C1041  C     0.68320   0.40320   0.99729   0.00000  Uiso   1.00
C1042  C     0.64374   0.36889   0.95478   0.00000  Uiso   1.00
C1043  C     0.50904   0.40198   0.79026   0.00000  Uiso   1.00
C1044  C     0.80440   0.54445   0.68707   0.00000  Uiso   1.00
C1045  C     0.81680   0.59680   0.66938   0.00000  Uiso   1.00
C1046  C     0.85626   0.63111   0.71189   0.00000  Uiso   1.00
C1047  C     0.99096   0.59802   0.87640   0.00000  Uiso   1.00
C1048  C     0.74774   0.34356   0.80915   0.00000  Uiso   1.00
C1049  C     0.75226   0.65644   0.85752   0.00000  Uiso   1.00
C1050  C     0.66476   0.49898   0.83355   0.00000  Uiso   1.00
C1051  C     0.83524   0.50102   0.83311   0.00000  Uiso   1.00
C1052  C     0.91188   0.55142   0.85256   0.00000  Uiso   1.00
Cu1053 Cu    0.75501   0.50579   0.89479   0.00000  Uiso   1.00
Cu1054 Cu    0.74500   0.49421   0.77187   0.00000  Uiso   1.00
H1055  H     0.87795   0.41858   0.79717   0.00000  Uiso   1.00
H1056  H     0.71255   0.38006   0.99482   0.00000  Uiso   1.00
H1057  H     0.67278   0.41089   0.71015   0.00000  Uiso   1.00
H1058  H     0.66770   0.48077   0.98685   0.00000  Uiso   1.00
H1059  H     0.69851   0.44194   0.93175   0.00000  Uiso   1.00
H1060  H     0.84666   0.64364   0.75872   0.00000  Uiso   1.00
H1061  H     0.88597   0.60873   0.71233   0.00000  Uiso   1.00
H1062  H     0.86565   0.33404   0.69602   0.00000  Uiso   1.00
H1063  H     0.82722   0.58911   0.95651   0.00000  Uiso   1.00
H1064  H     0.78745   0.61994   0.67185   0.00000  Uiso   1.00
H1065  H     0.80149   0.55806   0.73491   0.00000  Uiso   1.00
H1066  H     0.62205   0.58142   0.86950   0.00000  Uiso   1.00
H1067  H     0.83230   0.51923   0.67982   0.00000  Uiso   1.00
H1068  H     0.93955   0.36945   0.77503   0.00000  Uiso   1.00
H1069  H     0.56045   0.63055   0.89164   0.00000  Uiso   1.00
H1070  H     0.74336   0.65217   0.76294   0.00000  Uiso   1.00
H1071  H     0.75664   0.34783   0.90373   0.00000  Uiso   1.00
H1072  H     0.61403   0.39127   0.95434   0.00000  Uiso   1.00
H1073  H     0.65334   0.35636   0.90795   0.00000  Uiso   1.00
H1074  H     0.63435   0.66596   0.97064   0.00000  Uiso   1.00
N1075  N     0.73745   0.48547   0.67951   0.00000  Uiso   1.00
N1076  N     0.76256   0.51453   0.98716   0.00000  Uiso   1.00
N1077  N     0.87315   0.63829   0.87963   0.00000  Uiso   1.00
N1078  N     0.62685   0.36171   0.78704   0.00000  Uiso   1.00
N1079  N     0.53008   0.64065   0.74327   0.00000  Uiso   1.00
N1080  N     0.96992   0.35935   0.92340   0.00000  Uiso   1.00
O1081  O     0.75326   0.42871   0.87326   0.00000  Uiso   1.00
O1082  O     0.74675   0.57129   0.79341   0.00000  Uiso   1.00
O1083  O     0.74480   0.41892   0.76945   0.00000  Uiso   1.00
O1084  O     0.75520   0.58108   0.89721   0.00000  Uiso   1.00
O1085  O     0.68936   0.50488   0.88524   0.00000  Uiso   1.00
O1086  O     0.81065   0.49512   0.78143   0.00000  Uiso   1.00
O1087  O     0.68090   0.49510   0.78143   0.00000  Uiso   1.00
O1088  O     0.81910   0.50490   0.88523   0.00000  Uiso   1.00
C1089  C     0.24851   0.73327   0.81753   0.00000  Uiso   1.00
C1090  C     0.08812   0.78191   0.81410   0.00000  Uiso   1.00
C1091  C     0.38359   0.83631   0.83264   0.00000  Uiso   1.00
C1092  C     0.11641   0.83036   0.83403   0.00000  Uiso   1.00
C1093  C     0.40082   0.78851   0.81256   0.00000  Uiso   1.00
C1094  C     0.09918   0.87816   0.85410   0.00000  Uiso   1.00
C1095  C     0.44688   0.78731   0.81245   0.00000  Uiso   1.00
C1096  C     0.05312   0.87935   0.85422   0.00000  Uiso   1.00
C1097  C     0.47659   0.83472   0.83343   0.00000  Uiso   1.00
C1098  C     0.02341   0.83195   0.83324   0.00000  Uiso   1.00
C1099  C     0.45949   0.88460   0.85449   0.00000  Uiso   1.00
C1100  C     0.25149   0.93340   0.84913   0.00000  Uiso   1.00
C1101  C     0.04051   0.78207   0.81217   0.00000  Uiso   1.00
C1102  C     0.46312   0.73871   0.79133   0.00000  Uiso   1.00
C1103  C     0.03688   0.92796   0.87533   0.00000  Uiso   1.00
C1104  C     0.39060   0.93325   0.86781   0.00000  Uiso   1.00
C1105  C     0.10940   0.73341   0.79885   0.00000  Uiso   1.00
C1106  C     0.02108   0.68288   0.76432   0.00000  Uiso   1.00
C1107  C     0.47892   0.98379   0.90235   0.00000  Uiso   1.00
C1108  C     0.19560   0.78888   0.97959   0.00000  Uiso   1.00
C1109  C     0.18320   0.73653   0.99729   0.00000  Uiso   1.00
C1110  C     0.14374   0.70222   0.95478   0.00000  Uiso   1.00
C1111  C     0.00904   0.73531   0.79026   0.00000  Uiso   1.00
C1112  C     0.30440   0.87779   0.68707   0.00000  Uiso   1.00
C1113  C     0.31680   0.93014   0.66938   0.00000  Uiso   1.00
C1114  C     0.35626   0.96444   0.71189   0.00000  Uiso   1.00
C1115  C     0.49096   0.93135   0.87640   0.00000  Uiso   1.00
C1116  C     0.24774   0.67689   0.80915   0.00000  Uiso   1.00
C1117  C     0.25226   0.98977   0.85752   0.00000  Uiso   1.00
C1118  C     0.16476   0.83231   0.83355   0.00000  Uiso   1.00
C1119  C     0.33524   0.83436   0.83311   0.00000  Uiso   1.00
C1120  C     0.41188   0.88476   0.85256   0.00000  Uiso   1.00
Cu1121 Cu    0.25501   0.83913   0.89479   0.00000  Uiso   1.00
Cu1122 Cu    0.24500   0.82754   0.77187   0.00000  Uiso   1.00
H1123  H     0.37795   0.75191   0.79717   0.00000  Uiso   1.00
H1124  H     0.21255   0.71339   0.99482   0.00000  Uiso   1.00
H1125  H     0.17278   0.74423   0.71015   0.00000  Uiso   1.00
H1126  H     0.16770   0.81410   0.98685   0.00000  Uiso   1.00
H1127  H     0.19851   0.77527   0.93175   0.00000  Uiso   1.00
H1128  H     0.34666   0.97697   0.75872   0.00000  Uiso   1.00
H1129  H     0.38597   0.94207   0.71233   0.00000  Uiso   1.00
H1130  H     0.36565   0.66738   0.69602   0.00000  Uiso   1.00
H1131  H     0.32722   0.92244   0.95651   0.00000  Uiso   1.00
H1132  H     0.28745   0.95328   0.67185   0.00000  Uiso   1.00
H1133  H     0.30149   0.89139   0.73491   0.00000  Uiso   1.00
H1134  H     0.12205   0.91476   0.86950   0.00000  Uiso   1.00
H1135  H     0.33230   0.85257   0.67982   0.00000  Uiso   1.00
H1136  H     0.43955   0.70278   0.77503   0.00000  Uiso   1.00
H1137  H     0.06045   0.96388   0.89164   0.00000  Uiso   1.00
H1138  H     0.24336   0.98550   0.76294   0.00000  Uiso   1.00
H1139  H     0.25664   0.68116   0.90373   0.00000  Uiso   1.00
H1140  H     0.11403   0.72460   0.95434   0.00000  Uiso   1.00
H1141  H     0.15334   0.68970   0.90795   0.00000  Uiso   1.00
H1142  H     0.13435   0.99929   0.97064   0.00000  Uiso   1.00
N1143  N     0.23745   0.81881   0.67951   0.00000  Uiso   1.00
N1144  N     0.26256   0.84786   0.98716   0.00000  Uiso   1.00
N1145  N     0.37315   0.97162   0.87963   0.00000  Uiso   1.00
N1146  N     0.12685   0.69505   0.78704   0.00000  Uiso   1.00
N1147  N     0.03008   0.97398   0.74327   0.00000  Uiso   1.00
N1148  N     0.46992   0.69268   0.92340   0.00000  Uiso   1.00
O1149  O     0.25326   0.76204   0.87326   0.00000  Uiso   1.00
O1150  O     0.24675   0.90462   0.79341   0.00000  Uiso   1.00
O1151  O     0.24480   0.75226   0.76945   0.00000  Uiso   1.00
O1152  O     0.25520   0.91441   0.89721   0.00000  Uiso   1.00
O1153  O     0.18936   0.83821   0.88524   0.00000  Uiso   1.00
O1154  O     0.31065   0.82845   0.78143   0.00000  Uiso   1.00
O1155  O     0.18090   0.82843   0.78143   0.00000  Uiso   1.00
O1156  O     0.31910   0.83824   0.88523   0.00000  Uiso   1.00
C1157  C     0.74851   0.73327   0.81753   0.00000  Uiso   1.00
C1158  C     0.58812   0.78191   0.81410   0.00000  Uiso   1.00
C1159  C     0.88359   0.83631   0.83264   0.00000  Uiso   1.00
C1160  C     0.61641   0.83036   0.83403   0.00000  Uiso   1.00
C1161  C     0.90082   0.78851   0.81256   0.00000  Uiso   1.00
C1162  C     0.59918   0.87816   0.85410   0.00000  Uiso   1.00
C1163  C     0.94688   0.78731   0.81245   0.00000  Uiso   1.00
C1164  C     0.55312   0.87935   0.85422   0.00000  Uiso   1.00
C1165  C     0.97659   0.83472   0.83343   0.00000  Uiso   1.00
C1166  C     0.52341   0.83195   0.83324   0.00000  Uiso   1.00
C1167  C     0.95949   0.88460   0.85449   0.00000  Uiso   1.00
C1168  C     0.75149   0.93340   0.84913   0.00000  Uiso   1.00
C1169  C     0.54051   0.78207   0.81217   0.00000  Uiso   1.00
C1170  C     0.96312   0.73871   0.79133   0.00000  Uiso   1.00
C1171  C     0.53688   0.92796   0.87533   0.00000  Uiso   1.00
C1172  C     0.89060   0.93325   0.86781   0.00000  Uiso   1.00
C1173  C     0.60940   0.73341   0.79885   0.00000  Uiso   1.00
C1174  C     0.52108   0.68288   0.76432   0.00000  Uiso   1.00
C1175  C     0.97892   0.98379   0.90235   0.00000  Uiso   1.00
C1176  C     0.69560   0.78888   0.97959   0.00000  Uiso   1.00
C1177  C     0.68320   0.73653   0.99729   0.00000  Uiso   1.00
C1178  C     0.64374   0.70222   0.95478   0.00000  Uiso   1.00
C1179  C     0.50904   0.73531   0.79026   0.00000  Uiso   1.00
C1180  C     0.80440   0.87779   0.68707   0.00000  Uiso   1.00
C1181  C     0.81680   0.93014   0.66938   0.00000  Uiso   1.00
C1182  C     0.85626   0.96444   0.71189   0.00000  Uiso   1.00
C1183  C     0.99096   0.93135   0.87640   0.00000  Uiso   1.00
C1184  C     0.74774   0.67689   0.80915   0.00000  Uiso   1.00
C1185  C     0.75226   0.98977   0.85752   0.00000  Uiso   1.00
C1186  C     0.66476   0.83231   0.83355   0.00000  Uiso   1.00
C1187  C     0.83524   0.83436   0.83311   0.00000  Uiso   1.00
C1188  C     0.91188   0.88476   0.85256   0.00000  Uiso   1.00
Cu1189 Cu    0.75501   0.83913   0.89479   0.00000  Uiso   1.00
Cu1190 Cu    0.74500   0.82754   0.77187   0.00000  Uiso   1.00
H1191  H     0.87795   0.75191   0.79717   0.00000  Uiso   1.00
H1192  H     0.71255   0.71339   0.99482   0.00000  Uiso   1.00
H1193  H     0.67278   0.74423   0.71015   0.00000  Uiso   1.00
H1194  H     0.66770   0.81410   0.98685   0.00000  Uiso   1.00
H1195  H     0.69851   0.77527   0.93175   0.00000  Uiso   1.00
H1196  H     0.84666   0.97697   0.75872   0.00000  Uiso   1.00
H1197  H     0.88597   0.94207   0.71233   0.00000  Uiso   1.00
H1198  H     0.86565   0.66738   0.69602   0.00000  Uiso   1.00
H1199  H     0.82722   0.92244   0.95651   0.00000  Uiso   1.00
H1200  H     0.78745   0.95328   0.67185   0.00000  Uiso   1.00
H1201  H     0.80149   0.89139   0.73491   0.00000  Uiso   1.00
H1202  H     0.62205   0.91476   0.86950   0.00000  Uiso   1.00
H1203  H     0.83230   0.85257   0.67982   0.00000  Uiso   1.00
H1204  H     0.93955   0.70278   0.77503   0.00000  Uiso   1.00
H1205  H     0.56045   0.96388   0.89164   0.00000  Uiso   1.00
H1206  H     0.74336   0.98550   0.76294   0.00000  Uiso   1.00
H1207  H     0.75664   0.68116   0.90373   0.00000  Uiso   1.00
H1208  H     0.61403   0.72460   0.95434   0.00000  Uiso   1.00
H1209  H     0.65334   0.68970   0.90795   0.00000  Uiso   1.00
H1210  H     0.63435   0.99929   0.97064   0.00000  Uiso   1.00
N1211  N     0.73745   0.81881   0.67951   0.00000  Uiso   1.00
N1212  N     0.76256   0.84786   0.98716   0.00000  Uiso   1.00
N1213  N     0.87315   0.97162   0.87963   0.00000  Uiso   1.00
N1214  N     0.62685   0.69505   0.78704   0.00000  Uiso   1.00
N1215  N     0.53008   0.97398   0.74327   0.00000  Uiso   1.00
N1216  N     0.96992   0.69268   0.92340   0.00000  Uiso   1.00
O1217  O     0.75326   0.76204   0.87326   0.00000  Uiso   1.00
O1218  O     0.74675   0.90462   0.79341   0.00000  Uiso   1.00
O1219  O     0.74480   0.75226   0.76945   0.00000  Uiso   1.00
O1220  O     0.75520   0.91441   0.89721   0.00000  Uiso   1.00
O1221  O     0.68936   0.83821   0.88524   0.00000  Uiso   1.00
O1222  O     0.81065   0.82845   0.78143   0.00000  Uiso   1.00
O1223  O     0.68090   0.82843   0.78143   0.00000  Uiso   1.00
O1224  O     0.81910   0.83824   0.88523   0.00000  Uiso   1.00
loop_
_geom_bond_atom_site_label_1
_geom_bond_atom_site_label_2
_geom_bond_distance
_geom_bond_site_symmetry_2
_ccdc_geom_bond_type
C1     C28     1.433   .     S
C1     O63     1.308   .     A
C1     O61     1.302   .     A
C2     C4      1.407   .     A
C2     C17     1.451   .     S
C2     C13     1.425   .     A
C3     C31     1.447   .     S
C3     C32     1.407   .     A
C3     C5      1.385   .     A
C4     C6      1.385   .     A
C4     C30     1.447   .     S
C5     H35     1.086   .     S
C5     C7      1.385   .     A
C6     C8      1.385   .     A
C6     H46     1.086   .     S
C7     C9      1.410   .     A
C7     C14     1.392   .     A
C8     C10     1.410   .     A
C8     C15     1.392   .     A
C9     C11     1.433   .     A
C9     C78     1.413   .     S
C10    C13     1.433   .     A
C10    C77     1.413   1_455 S
C11    C27     1.428   .     A
C11    C32     1.425   .     A
C12    C29     1.433   .     S
C12    O64     1.308   .     A
C12    O62     1.302   .     A
C13    C23     1.428   .     A
C14    H48     1.086   .     S
C14    C91     1.390   .     S
C15    H49     1.086   .     S
C15    C95     1.390   1_455 S
C16    C32     1.451   .     S
C16    N57     1.158   .     T
C17    N58     1.158   .     T
C18    C23     1.446   .     S
C18    N331    1.158   1_545 S
C19    C27     1.446   .     S
C19    N196    1.158   .     S
C20    H39     1.078   .     S
C20    H38     1.111   .     S
C20    C21     1.534   .     S
C20    N463    1.461   .     S
C21    H36     1.111   .     S
C21    C22     1.529   .     S
C21    H445    1.102   .     S
C22    H53     1.110   .     S
C22    H52     1.111   .     S
C22    H326    1.111   1_545 S
C23    C82     1.390   1_455 S
C24    C25     1.534   .     S
C24    H45     1.078   .     S
C24    H47     1.111   .     S
C24    N872    1.461   1_554 S
C25    H44     1.111   .     S
C25    C26     1.529   .     S
C25    H859    1.102   1_554 S
C26    H40     1.110   .     S
C26    H41     1.111   .     S
C26    H178    1.111   .     S
C27    C83     1.390   .     S
C28    C301    1.339   1_545 S
C28    H322    1.087   1_545 S
C29    C164    1.339   .     S
C29    H187    1.087   .     S
C30    O67     1.306   .     A
C30    O65     1.307   .     A
C31    O68     1.306   .     A
C31    O66     1.307   .     A
Cu33   N56     2.056   .     S
Cu33   Cu34    2.737   .     S
Cu33   O65     1.960   .     S
Cu33   O61     1.946   .     S
Cu33   O68     1.954   .     S
Cu33   O64     1.949   .     S
Cu34   O67     1.954   .     S
Cu34   N55     2.056   .     S
Cu34   O66     1.960   .     S
Cu34   O63     1.949   .     S
Cu34   O62     1.946   .     S
H37    C837    1.102   1_554 S
H42    C298    1.111   1_545 S
H43    C433    1.102   .     S
H50    C164    1.087   .     S
H51    C301    1.087   1_545 S
H54    C158    1.111   .     S
N55    C836    1.461   1_554 S
N55    N872    1.288   1_554 S
N56    N463    1.288   .     S
N56    C432    1.461   .     S
N59    C154    1.158   .     S
N60    C291    1.158   1_545 S
C69    C96     1.433   .     S
C69    O131    1.308   .     A
C69    O129    1.302   .     A
C70    C72     1.407   .     A
C70    C85     1.451   .     S
C70    C81     1.425   .     A
C71    C99     1.447   .     S
C71    C100    1.407   .     A
C71    C73     1.385   .     A
C72    C74     1.385   .     A
C72    C98     1.447   .     S
C73    H103    1.086   .     S
C73    C75     1.385   .     A
C74    C76     1.385   .     A
C74    H114    1.086   .     S
C75    C77     1.410   .     A
C75    C82     1.392   .     A
C76    C78     1.410   .     A
C76    C83     1.392   .     A
C77    C79     1.433   .     A
C77    C10     1.413   1_655 S
C78    C81     1.433   .     A
C79    C95     1.428   .     A
C79    C100    1.425   .     A
C80    C97     1.433   .     S
C80    O132    1.308   .     A
C80    O130    1.302   .     A
C81    C91     1.428   .     A
C82    H116    1.086   .     S
C82    C23     1.390   1_655 S
C83    H117    1.086   .     S
C84    C100    1.451   .     S
C84    N125    1.158   .     T
C85    N126    1.158   .     T
C86    C91     1.446   .     S
C86    N399    1.158   1_545 S
C87    C95     1.446   .     S
C87    N264    1.158   .     S
C88    H107    1.078   .     S
C88    H106    1.111   .     S
C88    C89     1.534   .     S
C88    N531    1.461   .     S
C89    H104    1.111   .     S
C89    C90     1.529   .     S
C89    H513    1.102   .     S
C90    H121    1.110   .     S
C90    H120    1.111   .     S
C90    H394    1.111   1_545 S
C92    C93     1.534   .     S
C92    H113    1.078   .     S
C92    H115    1.111   .     S
C92    N940    1.461   1_554 S
C93    H112    1.111   .     S
C93    C94     1.529   .     S
C93    H927    1.102   1_554 S
C94    H108    1.110   .     S
C94    H109    1.111   .     S
C94    H246    1.111   .     S
C95    C15     1.390   1_655 S
C96    C369    1.339   1_545 S
C96    H390    1.087   1_545 S
C97    C232    1.339   .     S
C97    H255    1.087   .     S
C98    O135    1.306   .     A
C98    O133    1.307   .     A
C99    O136    1.306   .     A
C99    O134    1.307   .     A
Cu101  N124    2.056   .     S
Cu101  Cu102   2.737   .     S
Cu101  O133    1.960   .     S
Cu101  O129    1.946   .     S
Cu101  O136    1.954   .     S
Cu101  O132    1.949   .     S
Cu102  O135    1.954   .     S
Cu102  N123    2.056   .     S
Cu102  O134    1.960   .     S
Cu102  O131    1.949   .     S
Cu102  O130    1.946   .     S
H105   C905    1.102   1_554 S
H110   C366    1.111   1_545 S
H111   C501    1.102   .     S
H118   C232    1.087   .     S
H119   C369    1.087   1_545 S
H122   C226    1.111   .     S
N123   C904    1.461   1_554 S
N123   N940    1.288   1_554 S
N124   N531    1.288   .     S
N124   C500    1.461   .     S
N127   C222    1.158   .     S
N128   C359    1.158   1_545 S
C137   C164    1.433   .     S
C137   O199    1.308   .     A
C137   O197    1.302   .     A
C138   C140    1.407   .     A
C138   C153    1.451   .     S
C138   C149    1.425   .     A
C139   C167    1.447   .     S
C139   C168    1.407   .     A
C139   C141    1.385   .     A
C140   C142    1.385   .     A
C140   C166    1.447   .     S
C141   H171    1.086   .     S
C141   C143    1.385   .     A
C142   C144    1.385   .     A
C142   H182    1.086   .     S
C143   C145    1.410   .     A
C143   C150    1.392   .     A
C144   C146    1.410   .     A
C144   C151    1.392   .     A
C145   C147    1.433   .     A
C145   C214    1.413   .     S
C146   C149    1.433   .     A
C146   C213    1.413   1_455 S
C147   C163    1.428   .     A
C147   C168    1.425   .     A
C148   C165    1.433   .     S
C148   O200    1.308   .     A
C148   O198    1.302   .     A
C149   C159    1.428   .     A
C150   H184    1.086   .     S
C150   C227    1.390   .     S
C151   H185    1.086   .     S
C151   C231    1.390   1_455 S
C152   C168    1.451   .     S
C152   N193    1.158   .     T
C153   N194    1.158   .     T
C154   C159    1.446   .     S
C155   C163    1.446   .     S
C155   N332    1.158   .     S
C156   H175    1.078   .     S
C156   H174    1.111   .     S
C156   C157    1.534   .     S
C156   N599    1.461   .     S
C157   H172    1.111   .     S
C157   C158    1.529   .     S
C157   H581    1.102   .     S
C158   H189    1.110   .     S
C158   H188    1.111   .     S
C159   C218    1.390   1_455 S
C160   C161    1.534   .     S
C160   H181    1.078   .     S
C160   H183    1.111   .     S
C160   N1008   1.461   1_554 S
C161   H180    1.111   .     S
C161   C162    1.529   .     S
C161   H995    1.102   1_554 S
C162   H176    1.110   .     S
C162   H177    1.111   .     S
C162   H314    1.111   .     S
C163   C219    1.390   .     S
C165   C300    1.339   .     S
C165   H323    1.087   .     S
C166   O203    1.306   .     A
C166   O201    1.307   .     A
C167   O204    1.306   .     A
C167   O202    1.307   .     A
Cu169  N192    2.056   .     S
Cu169  Cu170   2.737   .     S
Cu169  O201    1.960   .     S
Cu169  O197    1.946   .     S
Cu169  O204    1.954   .     S
Cu169  O200    1.949   .     S
Cu170  O203    1.954   .     S
Cu170  N191    2.056   .     S
Cu170  O202    1.960   .     S
Cu170  O199    1.949   .     S
Cu170  O198    1.946   .     S
H173   C973    1.102   1_554 S
H179   C569    1.102   .     S
H186   C300    1.087   .     S
H190   C294    1.111   .     S
N191   C972    1.461   1_554 S
N191   N1008   1.288   1_554 S
N192   N599    1.288   .     S
N192   C568    1.461   .     S
N195   C290    1.158   .     S
C205   C232    1.433   .     S
C205   O267    1.308   .     A
C205   O265    1.302   .     A
C206   C208    1.407   .     A
C206   C221    1.451   .     S
C206   C217    1.425   .     A
C207   C235    1.447   .     S
C207   C236    1.407   .     A
C207   C209    1.385   .     A
C208   C210    1.385   .     A
C208   C234    1.447   .     S
C209   H239    1.086   .     S
C209   C211    1.385   .     A
C210   C212    1.385   .     A
C210   H250    1.086   .     S
C211   C213    1.410   .     A
C211   C218    1.392   .     A
C212   C214    1.410   .     A
C212   C219    1.392   .     A
C213   C215    1.433   .     A
C213   C146    1.413   1_655 S
C214   C217    1.433   .     A
C215   C231    1.428   .     A
C215   C236    1.425   .     A
C216   C233    1.433   .     S
C216   O268    1.308   .     A
C216   O266    1.302   .     A
C217   C227    1.428   .     A
C218   H252    1.086   .     S
C218   C159    1.390   1_655 S
C219   H253    1.086   .     S
C220   C236    1.451   .     S
C220   N261    1.158   .     T
C221   N262    1.158   .     T
C222   C227    1.446   .     S
C223   C231    1.446   .     S
C223   N400    1.158   .     S
C224   H243    1.078   .     S
C224   H242    1.111   .     S
C224   C225    1.534   .     S
C224   N667    1.461   .     S
C225   H240    1.111   .     S
C225   C226    1.529   .     S
C225   H649    1.102   .     S
C226   H257    1.110   .     S
C226   H256    1.111   .     S
C228   C229    1.534   .     S
C228   H249    1.078   .     S
C228   H251    1.111   .     S
C228   N1076   1.461   1_554 S
C229   H248    1.111   .     S
C229   C230    1.529   .     S
C229   H1063   1.102   1_554 S
C230   H244    1.110   .     S
C230   H245    1.111   .     S
C230   H382    1.111   .     S
C231   C151    1.390   1_655 S
C233   C368    1.339   .     S
C233   H391    1.087   .     S
C234   O271    1.306   .     A
C234   O269    1.307   .     A
C235   O272    1.306   .     A
C235   O270    1.307   .     A
Cu237  N260    2.056   .     S
Cu237  Cu238   2.737   .     S
Cu237  O269    1.960   .     S
Cu237  O265    1.946   .     S
Cu237  O272    1.954   .     S
Cu237  O268    1.949   .     S
Cu238  O271    1.954   .     S
Cu238  N259    2.056   .     S
Cu238  O270    1.960   .     S
Cu238  O267    1.949   .     S
Cu238  O266    1.946   .     S
H241   C1041   1.102   1_554 S
H247   C637    1.102   .     S
H254   C368    1.087   .     S
H258   C362    1.111   .     S
N259   C1040   1.461   1_554 S
N259   N1076   1.288   1_554 S
N260   N667    1.288   .     S
N260   C636    1.461   .     S
N263   C358    1.158   .     S
C273   C300    1.433   .     S
C273   O335    1.308   .     A
C273   O333    1.302   .     A
C274   C276    1.407   .     A
C274   C289    1.451   .     S
C274   C285    1.425   .     A
C275   C303    1.447   .     S
C275   C304    1.407   .     A
C275   C277    1.385   .     A
C276   C278    1.385   .     A
C276   C302    1.447   .     S
C277   H307    1.086   .     S
C277   C279    1.385   .     A
C278   C280    1.385   .     A
C278   H318    1.086   .     S
C279   C281    1.410   .     A
C279   C286    1.392   .     A
C280   C282    1.410   .     A
C280   C287    1.392   .     A
C281   C283    1.433   .     A
C281   C350    1.413   .     S
C282   C285    1.433   .     A
C282   C349    1.413   1_455 S
C283   C299    1.428   .     A
C283   C304    1.425   .     A
C284   C301    1.433   .     S
C284   O336    1.308   .     A
C284   O334    1.302   .     A
C285   C295    1.428   .     A
C286   H320    1.086   .     S
C286   C363    1.390   .     S
C287   H321    1.086   .     S
C287   C367    1.390   1_455 S
C288   C304    1.451   .     S
C288   N329    1.158   .     T
C289   N330    1.158   .     T
C290   C295    1.446   .     S
C291   C299    1.446   .     S
C291   N60     1.158   1_565 S
C292   H311    1.078   .     S
C292   H310    1.111   .     S
C292   C293    1.534   .     S
C292   N735    1.461   .     S
C293   H308    1.111   .     S
C293   C294    1.529   .     S
C293   H717    1.102   .     S
C294   H325    1.110   .     S
C294   H324    1.111   .     S
C295   C354    1.390   1_455 S
C296   C297    1.534   .     S
C296   H317    1.078   .     S
C296   H319    1.111   .     S
C296   N1144   1.461   1_554 S
C297   H316    1.111   .     S
C297   C298    1.529   .     S
C297   H1131   1.102   1_554 S
C298   H312    1.110   .     S
C298   H313    1.111   .     S
C298   H42     1.111   1_565 S
C299   C355    1.390   .     S
C301   C28     1.339   1_565 S
C301   H51     1.087   1_565 S
C302   O339    1.306   .     A
C302   O337    1.307   .     A
C303   O340    1.306   .     A
C303   O338    1.307   .     A
Cu305  N328    2.056   .     S
Cu305  Cu306   2.737   .     S
Cu305  O337    1.960   .     S
Cu305  O333    1.946   .     S
Cu305  O340    1.954   .     S
Cu305  O336    1.949   .     S
Cu306  O339    1.954   .     S
Cu306  N327    2.056   .     S
Cu306  O338    1.960   .     S
Cu306  O335    1.949   .     S
Cu306  O334    1.946   .     S
H309   C1109   1.102   1_554 S
H315   C705    1.102   .     S
H322   C28     1.087   1_565 S
H326   C22     1.111   1_565 S
N327   C1108   1.461   1_554 S
N327   N1144   1.288   1_554 S
N328   N735    1.288   .     S
N328   C704    1.461   .     S
N331   C18     1.158   1_565 S
C341   C368    1.433   .     S
C341   O403    1.308   .     A
C341   O401    1.302   .     A
C342   C344    1.407   .     A
C342   C357    1.451   .     S
C342   C353    1.425   .     A
C343   C371    1.447   .     S
C343   C372    1.407   .     A
C343   C345    1.385   .     A
C344   C346    1.385   .     A
C344   C370    1.447   .     S
C345   H375    1.086   .     S
C345   C347    1.385   .     A
C346   C348    1.385   .     A
C346   H386    1.086   .     S
C347   C349    1.410   .     A
C347   C354    1.392   .     A
C348   C350    1.410   .     A
C348   C355    1.392   .     A
C349   C351    1.433   .     A
C349   C282    1.413   1_655 S
C350   C353    1.433   .     A
C351   C367    1.428   .     A
C351   C372    1.425   .     A
C352   C369    1.433   .     S
C352   O404    1.308   .     A
C352   O402    1.302   .     A
C353   C363    1.428   .     A
C354   H388    1.086   .     S
C354   C295    1.390   1_655 S
C355   H389    1.086   .     S
C356   C372    1.451   .     S
C356   N397    1.158   .     T
C357   N398    1.158   .     T
C358   C363    1.446   .     S
C359   C367    1.446   .     S
C359   N128    1.158   1_565 S
C360   H379    1.078   .     S
C360   H378    1.111   .     S
C360   C361    1.534   .     S
C360   N803    1.461   .     S
C361   H376    1.111   .     S
C361   C362    1.529   .     S
C361   H785    1.102   .     S
C362   H393    1.110   .     S
C362   H392    1.111   .     S
C364   C365    1.534   .     S
C364   H385    1.078   .     S
C364   H387    1.111   .     S
C364   N1212   1.461   1_554 S
C365   H384    1.111   .     S
C365   C366    1.529   .     S
C365   H1199   1.102   1_554 S
C366   H380    1.110   .     S
C366   H381    1.111   .     S
C366   H110    1.111   1_565 S
C367   C287    1.390   1_655 S
C369   C96     1.339   1_565 S
C369   H119    1.087   1_565 S
C370   O407    1.306   .     A
C370   O405    1.307   .     A
C371   O408    1.306   .     A
C371   O406    1.307   .     A
Cu373  N396    2.056   .     S
Cu373  Cu374   2.737   .     S
Cu373  O405    1.960   .     S
Cu373  O401    1.946   .     S
Cu373  O408    1.954   .     S
Cu373  O404    1.949   .     S
Cu374  O407    1.954   .     S
Cu374  N395    2.056   .     S
Cu374  O406    1.960   .     S
Cu374  O403    1.949   .     S
Cu374  O402    1.946   .     S
H377   C1177   1.102   1_554 S
H383   C773    1.102   .     S
H390   C96     1.087   1_565 S
H394   C90     1.111   1_565 S
N395   C1176   1.461   1_554 S
N395   N1212   1.288   1_554 S
N396   N803    1.288   .     S
N396   C772    1.461   .     S
N399   C86     1.158   1_565 S
C409   C436    1.433   .     S
C409   O471    1.308   .     A
C409   O469    1.302   .     A
C410   C412    1.407   .     A
C410   C425    1.451   .     S
C410   C421    1.425   .     A
C411   C439    1.447   .     S
C411   C440    1.407   .     A
C411   C413    1.385   .     A
C412   C414    1.385   .     A
C412   C438    1.447   .     S
C413   H443    1.086   .     S
C413   C415    1.385   .     A
C414   C416    1.385   .     A
C414   H454    1.086   .     S
C415   C417    1.410   .     A
C415   C422    1.392   .     A
C416   C418    1.410   .     A
C416   C423    1.392   .     A
C417   C419    1.433   .     A
C417   C486    1.413   .     S
C418   C421    1.433   .     A
C418   C485    1.413   1_455 S
C419   C435    1.428   .     A
C419   C440    1.425   .     A
C420   C437    1.433   .     S
C420   O472    1.308   .     A
C420   O470    1.302   .     A
C421   C431    1.428   .     A
C422   H456    1.086   .     S
C422   C499    1.390   .     S
C423   H457    1.086   .     S
C423   C503    1.390   1_455 S
C424   C440    1.451   .     S
C424   N465    1.158   .     T
C425   N466    1.158   .     T
C426   C431    1.446   .     S
C426   N739    1.158   1_545 S
C427   C435    1.446   .     S
C427   N604    1.158   .     S
C428   H447    1.078   .     S
C428   H446    1.111   .     S
C428   C429    1.534   .     S
C428   N871    1.461   .     S
C429   H444    1.111   .     S
C429   C430    1.529   .     S
C429   H853    1.102   .     S
C430   H461    1.110   .     S
C430   H460    1.111   .     S
C430   H734    1.111   1_545 S
C431   C490    1.390   1_455 S
C432   C433    1.534   .     S
C432   H453    1.078   .     S
C432   H455    1.111   .     S
C433   H452    1.111   .     S
C433   C434    1.529   .     S
C434   H448    1.110   .     S
C434   H449    1.111   .     S
C434   H586    1.111   .     S
C435   C491    1.390   .     S
C436   C709    1.339   1_545 S
C436   H730    1.087   1_545 S
C437   C572    1.339   .     S
C437   H595    1.087   .     S
C438   O475    1.306   .     A
C438   O473    1.307   .     A
C439   O476    1.306   .     A
C439   O474    1.307   .     A
Cu441  N464    2.056   .     S
Cu441  Cu442   2.737   .     S
Cu441  O473    1.960   .     S
Cu441  O469    1.946   .     S
Cu441  O476    1.954   .     S
Cu441  O472    1.949   .     S
Cu442  O475    1.954   .     S
Cu442  N463    2.056   .     S
Cu442  O474    1.960   .     S
Cu442  O471    1.949   .     S
Cu442  O470    1.946   .     S
H450   C706    1.111   1_545 S
H451   C841    1.102   .     S
H458   C572    1.087   .     S
H459   C709    1.087   1_545 S
H462   C566    1.111   .     S
N464   N871    1.288   .     S
N464   C840    1.461   .     S
N467   C562    1.158   .     S
N468   C699    1.158   1_545 S
C477   C504    1.433   .     S
C477   O539    1.308   .     A
C477   O537    1.302   .     A
C478   C480    1.407   .     A
C478   C493    1.451   .     S
C478   C489    1.425   .     A
C479   C507    1.447   .     S
C479   C508    1.407   .     A
C479   C481    1.385   .     A
C480   C482    1.385   .     A
C480   C506    1.447   .     S
C481   H511    1.086   .     S
C481   C483    1.385   .     A
C482   C484    1.385   .     A
C482   H522    1.086   .     S
C483   C485    1.410   .     A
C483   C490    1.392   .     A
C484   C486    1.410   .     A
C484   C491    1.392   .     A
C485   C487    1.433   .     A
C485   C418    1.413   1_655 S
C486   C489    1.433   .     A
C487   C503    1.428   .     A
C487   C508    1.425   .     A
C488   C505    1.433   .     S
C488   O540    1.308   .     A
C488   O538    1.302   .     A
C489   C499    1.428   .     A
C490   H524    1.086   .     S
C490   C431    1.390   1_655 S
C491   H525    1.086   .     S
C492   C508    1.451   .     S
C492   N533    1.158   .     T
C493   N534    1.158   .     T
C494   C499    1.446   .     S
C494   N807    1.158   1_545 S
C495   C503    1.446   .     S
C495   N672    1.158   .     S
C496   H515    1.078   .     S
C496   H514    1.111   .     S
C496   C497    1.534   .     S
C496   N939    1.461   .     S
C497   H512    1.111   .     S
C497   C498    1.529   .     S
C497   H921    1.102   .     S
C498   H529    1.110   .     S
C498   H528    1.111   .     S
C498   H802    1.111   1_545 S
C500   C501    1.534   .     S
C500   H521    1.078   .     S
C500   H523    1.111   .     S
C501   H520    1.111   .     S
C501   C502    1.529   .     S
C502   H516    1.110   .     S
C502   H517    1.111   .     S
C502   H654    1.111   .     S
C503   C423    1.390   1_655 S
C504   C777    1.339   1_545 S
C504   H798    1.087   1_545 S
C505   C640    1.339   .     S
C505   H663    1.087   .     S
C506   O543    1.306   .     A
C506   O541    1.307   .     A
C507   O544    1.306   .     A
C507   O542    1.307   .     A
Cu509  N532    2.056   .     S
Cu509  Cu510   2.737   .     S
Cu509  O541    1.960   .     S
Cu509  O537    1.946   .     S
Cu509  O544    1.954   .     S
Cu509  O540    1.949   .     S
Cu510  O543    1.954   .     S
Cu510  N531    2.056   .     S
Cu510  O542    1.960   .     S
Cu510  O539    1.949   .     S
Cu510  O538    1.946   .     S
H518   C774    1.111   1_545 S
H519   C909    1.102   .     S
H526   C640    1.087   .     S
H527   C777    1.087   1_545 S
H530   C634    1.111   .     S
N532   N939    1.288   .     S
N532   C908    1.461   .     S
N535   C630    1.158   .     S
N536   C767    1.158   1_545 S
C545   C572    1.433   .     S
C545   O607    1.308   .     A
C545   O605    1.302   .     A
C546   C548    1.407   .     A
C546   C561    1.451   .     S
C546   C557    1.425   .     A
C547   C575    1.447   .     S
C547   C576    1.407   .     A
C547   C549    1.385   .     A
C548   C550    1.385   .     A
C548   C574    1.447   .     S
C549   H579    1.086   .     S
C549   C551    1.385   .     A
C550   C552    1.385   .     A
C550   H590    1.086   .     S
C551   C553    1.410   .     A
C551   C558    1.392   .     A
C552   C554    1.410   .     A
C552   C559    1.392   .     A
C553   C555    1.433   .     A
C553   C622    1.413   .     S
C554   C557    1.433   .     A
C554   C621    1.413   1_455 S
C555   C571    1.428   .     A
C555   C576    1.425   .     A
C556   C573    1.433   .     S
C556   O608    1.308   .     A
C556   O606    1.302   .     A
C557   C567    1.428   .     A
C558   H592    1.086   .     S
C558   C635    1.390   .     S
C559   H593    1.086   .     S
C559   C639    1.390   1_455 S
C560   C576    1.451   .     S
C560   N601    1.158   .     T
C561   N602    1.158   .     T
C562   C567    1.446   .     S
C563   C571    1.446   .     S
C563   N740    1.158   .     S
C564   H583    1.078   .     S
C564   H582    1.111   .     S
C564   C565    1.534   .     S
C564   N1007   1.461   .     S
C565   H580    1.111   .     S
C565   C566    1.529   .     S
C565   H989    1.102   .     S
C566   H597    1.110   .     S
C566   H596    1.111   .     S
C567   C626    1.390   1_455 S
C568   C569    1.534   .     S
C568   H589    1.078   .     S
C568   H591    1.111   .     S
C569   H588    1.111   .     S
C569   C570    1.529   .     S
C570   H584    1.110   .     S
C570   H585    1.111   .     S
C570   H722    1.111   .     S
C571   C627    1.390   .     S
C573   C708    1.339   .     S
C573   H731    1.087   .     S
C574   O611    1.306   .     A
C574   O609    1.307   .     A
C575   O612    1.306   .     A
C575   O610    1.307   .     A
Cu577  N600    2.056   .     S
Cu577  Cu578   2.737   .     S
Cu577  O609    1.960   .     S
Cu577  O605    1.946   .     S
Cu577  O612    1.954   .     S
Cu577  O608    1.949   .     S
Cu578  O611    1.954   .     S
Cu578  N599    2.056   .     S
Cu578  O610    1.960   .     S
Cu578  O607    1.949   .     S
Cu578  O606    1.946   .     S
H587   C977    1.102   .     S
H594   C708    1.087   .     S
H598   C702    1.111   .     S
N600   N1007   1.288   .     S
N600   C976    1.461   .     S
N603   C698    1.158   .     S
C613   C640    1.433   .     S
C613   O675    1.308   .     A
C613   O673    1.302   .     A
C614   C616    1.407   .     A
C614   C629    1.451   .     S
C614   C625    1.425   .     A
C615   C643    1.447   .     S
C615   C644    1.407   .     A
C615   C617    1.385   .     A
C616   C618    1.385   .     A
C616   C642    1.447   .     S
C617   H647    1.086   .     S
C617   C619    1.385   .     A
C618   C620    1.385   .     A
C618   H658    1.086   .     S
C619   C621    1.410   .     A
C619   C626    1.392   .     A
C620   C622    1.410   .     A
C620   C627    1.392   .     A
C621   C623    1.433   .     A
C621   C554    1.413   1_655 S
C622   C625    1.433   .     A
C623   C639    1.428   .     A
C623   C644    1.425   .     A
C624   C641    1.433   .     S
C624   O676    1.308   .     A
C624   O674    1.302   .     A
C625   C635    1.428   .     A
C626   H660    1.086   .     S
C626   C567    1.390   1_655 S
C627   H661    1.086   .     S
C628   C644    1.451   .     S
C628   N669    1.158   .     T
C629   N670    1.158   .     T
C630   C635    1.446   .     S
C631   C639    1.446   .     S
C631   N808    1.158   .     S
C632   H651    1.078   .     S
C632   H650    1.111   .     S
C632   C633    1.534   .     S
C632   N1075   1.461   .     S
C633   H648    1.111   .     S
C633   C634    1.529   .     S
C633   H1057   1.102   .     S
C634   H665    1.110   .     S
C634   H664    1.111   .     S
C636   C637    1.534   .     S
C636   H657    1.078   .     S
C636   H659    1.111   .     S
C637   H656    1.111   .     S
C637   C638    1.529   .     S
C638   H652    1.110   .     S
C638   H653    1.111   .     S
C638   H790    1.111   .     S
C639   C559    1.390   1_655 S
C641   C776    1.339   .     S
C641   H799    1.087   .     S
C642   O679    1.306   .     A
C642   O677    1.307   .     A
C643   O680    1.306   .     A
C643   O678    1.307   .     A
Cu645  N668    2.056   .     S
Cu645  Cu646   2.737   .     S
Cu645  O677    1.960   .     S
Cu645  O673    1.946   .     S
Cu645  O680    1.954   .     S
Cu645  O676    1.949   .     S
Cu646  O679    1.954   .     S
Cu646  N667    2.056   .     S
Cu646  O678    1.960   .     S
Cu646  O675    1.949   .     S
Cu646  O674    1.946   .     S
H655   C1045   1.102   .     S
H662   C776    1.087   .     S
H666   C770    1.111   .     S
N668   N1075   1.288   .     S
N668   C1044   1.461   .     S
N671   C766    1.158   .     S
C681   C708    1.433   .     S
C681   O743    1.308   .     A
C681   O741    1.302   .     A
C682   C684    1.407   .     A
C682   C697    1.451   .     S
C682   C693    1.425   .     A
C683   C711    1.447   .     S
C683   C712    1.407   .     A
C683   C685    1.385   .     A
C684   C686    1.385   .     A
C684   C710    1.447   .     S
C685   H715    1.086   .     S
C685   C687    1.385   .     A
C686   C688    1.385   .     A
C686   H726    1.086   .     S
C687   C689    1.410   .     A
C687   C694    1.392   .     A
C688   C690    1.410   .     A
C688   C695    1.392   .     A
C689   C691    1.433   .     A
C689   C758    1.413   .     S
C690   C693    1.433   .     A
C690   C757    1.413   1_455 S
C691   C707    1.428   .     A
C691   C712    1.425   .     A
C692   C709    1.433   .     S
C692   O744    1.308   .     A
C692   O742    1.302   .     A
C693   C703    1.428   .     A
C694   H728    1.086   .     S
C694   C771    1.390   .     S
C695   H729    1.086   .     S
C695   C775    1.390   1_455 S
C696   C712    1.451   .     S
C696   N737    1.158   .     T
C697   N738    1.158   .     T
C698   C703    1.446   .     S
C699   C707    1.446   .     S
C699   N468    1.158   1_565 S
C700   H719    1.078   .     S
C700   H718    1.111   .     S
C700   C701    1.534   .     S
C700   N1143   1.461   .     S
C701   H716    1.111   .     S
C701   C702    1.529   .     S
C701   H1125   1.102   .     S
C702   H733    1.110   .     S
C702   H732    1.111   .     S
C703   C762    1.390   1_455 S
C704   C705    1.534   .     S
C704   H725    1.078   .     S
C704   H727    1.111   .     S
C705   H724    1.111   .     S
C705   C706    1.529   .     S
C706   H720    1.110   .     S
C706   H721    1.111   .     S
C706   H450    1.111   1_565 S
C707   C763    1.390   .     S
C709   C436    1.339   1_565 S
C709   H459    1.087   1_565 S
C710   O747    1.306   .     A
C710   O745    1.307   .     A
C711   O748    1.306   .     A
C711   O746    1.307   .     A
Cu713  N736    2.056   .     S
Cu713  Cu714   2.737   .     S
Cu713  O745    1.960   .     S
Cu713  O741    1.946   .     S
Cu713  O748    1.954   .     S
Cu713  O744    1.949   .     S
Cu714  O747    1.954   .     S
Cu714  N735    2.056   .     S
Cu714  O746    1.960   .     S
Cu714  O743    1.949   .     S
Cu714  O742    1.946   .     S
H723   C1113   1.102   .     S
H730   C436    1.087   1_565 S
H734   C430    1.111   1_565 S
N736   N1143   1.288   .     S
N736   C1112   1.461   .     S
N739   C426    1.158   1_565 S
C749   C776    1.433   .     S
C749   O811    1.308   .     A
C749   O809    1.302   .     A
C750   C752    1.407   .     A
C750   C765    1.451   .     S
C750   C761    1.425   .     A
C751   C779    1.447   .     S
C751   C780    1.407   .     A
C751   C753    1.385   .     A
C752   C754    1.385   .     A
C752   C778    1.447   .     S
C753   H783    1.086   .     S
C753   C755    1.385   .     A
C754   C756    1.385   .     A
C754   H794    1.086   .     S
C755   C757    1.410   .     A
C755   C762    1.392   .     A
C756   C758    1.410   .     A
C756   C763    1.392   .     A
C757   C759    1.433   .     A
C757   C690    1.413   1_655 S
C758   C761    1.433   .     A
C759   C775    1.428   .     A
C759   C780    1.425   .     A
C760   C777    1.433   .     S
C760   O812    1.308   .     A
C760   O810    1.302   .     A
C761   C771    1.428   .     A
C762   H796    1.086   .     S
C762   C703    1.390   1_655 S
C763   H797    1.086   .     S
C764   C780    1.451   .     S
C764   N805    1.158   .     T
C765   N806    1.158   .     T
C766   C771    1.446   .     S
C767   C775    1.446   .     S
C767   N536    1.158   1_565 S
C768   H787    1.078   .     S
C768   H786    1.111   .     S
C768   C769    1.534   .     S
C768   N1211   1.461   .     S
C769   H784    1.111   .     S
C769   C770    1.529   .     S
C769   H1193   1.102   .     S
C770   H801    1.110   .     S
C770   H800    1.111   .     S
C772   C773    1.534   .     S
C772   H793    1.078   .     S
C772   H795    1.111   .     S
C773   H792    1.111   .     S
C773   C774    1.529   .     S
C774   H788    1.110   .     S
C774   H789    1.111   .     S
C774   H518    1.111   1_565 S
C775   C695    1.390   1_655 S
C777   C504    1.339   1_565 S
C777   H527    1.087   1_565 S
C778   O815    1.306   .     A
C778   O813    1.307   .     A
C779   O816    1.306   .     A
C779   O814    1.307   .     A
Cu781  N804    2.056   .     S
Cu781  Cu782   2.737   .     S
Cu781  O813    1.960   .     S
Cu781  O809    1.946   .     S
Cu781  O816    1.954   .     S
Cu781  O812    1.949   .     S
Cu782  O815    1.954   .     S
Cu782  N803    2.056   .     S
Cu782  O814    1.960   .     S
Cu782  O811    1.949   .     S
Cu782  O810    1.946   .     S
H791   C1181   1.102   .     S
H798   C504    1.087   1_565 S
H802   C498    1.111   1_565 S
N804   N1211   1.288   .     S
N804   C1180   1.461   .     S
N807   C494    1.158   1_565 S
C817   C844    1.433   .     S
C817   O879    1.308   .     A
C817   O877    1.302   .     A
C818   C820    1.407   .     A
C818   C833    1.451   .     S
C818   C829    1.425   .     A
C819   C847    1.447   .     S
C819   C848    1.407   .     A
C819   C821    1.385   .     A
C820   C822    1.385   .     A
C820   C846    1.447   .     S
C821   H851    1.086   .     S
C821   C823    1.385   .     A
C822   C824    1.385   .     A
C822   H862    1.086   .     S
C823   C825    1.410   .     A
C823   C830    1.392   .     A
C824   C826    1.410   .     A
C824   C831    1.392   .     A
C825   C827    1.433   .     A
C825   C894    1.413   .     S
C826   C829    1.433   .     A
C826   C893    1.413   1_455 S
C827   C843    1.428   .     A
C827   C848    1.425   .     A
C828   C845    1.433   .     S
C828   O880    1.308   .     A
C828   O878    1.302   .     A
C829   C839    1.428   .     A
C830   H864    1.086   .     S
C830   C907    1.390   .     S
C831   H865    1.086   .     S
C831   C911    1.390   1_455 S
C832   C848    1.451   .     S
C832   N873    1.158   .     T
C833   N874    1.158   .     T
C834   C839    1.446   .     S
C834   N1147   1.158   1_545 S
C835   C843    1.446   .     S
C835   N1012   1.158   .     S
C836   H855    1.078   .     S
C836   H854    1.111   .     S
C836   C837    1.534   .     S
C836   N55     1.461   1_556 S
C837   H852    1.111   .     S
C837   C838    1.529   .     S
C837   H37     1.102   1_556 S
C838   H869    1.110   .     S
C838   H868    1.111   .     S
C838   H1142   1.111   1_545 S
C839   C898    1.390   1_455 S
C840   C841    1.534   .     S
C840   H861    1.078   .     S
C840   H863    1.111   .     S
C841   H860    1.111   .     S
C841   C842    1.529   .     S
C842   H856    1.110   .     S
C842   H857    1.111   .     S
C842   H994    1.111   .     S
C843   C899    1.390   .     S
C844   C1117   1.339   1_545 S
C844   H1138   1.087   1_545 S
C845   C980    1.339   .     S
C845   H1003   1.087   .     S
C846   O883    1.306   .     A
C846   O881    1.307   .     A
C847   O884    1.306   .     A
C847   O882    1.307   .     A
Cu849  N872    2.056   .     S
Cu849  Cu850   2.737   .     S
Cu849  O881    1.960   .     S
Cu849  O877    1.946   .     S
Cu849  O884    1.954   .     S
Cu849  O880    1.949   .     S
Cu850  O883    1.954   .     S
Cu850  N871    2.056   .     S
Cu850  O882    1.960   .     S
Cu850  O879    1.949   .     S
Cu850  O878    1.946   .     S
H858   C1114   1.111   1_545 S
H859   C25     1.102   1_556 S
H866   C980    1.087   .     S
H867   C1117   1.087   1_545 S
H870   C974    1.111   .     S
N872   N55     1.288   1_556 S
N872   C24     1.461   1_556 S
N875   C970    1.158   .     S
N876   C1107   1.158   1_545 S
C885   C912    1.433   .     S
C885   O947    1.308   .     A
C885   O945    1.302   .     A
C886   C888    1.407   .     A
C886   C901    1.451   .     S
C886   C897    1.425   .     A
C887   C915    1.447   .     S
C887   C916    1.407   .     A
C887   C889    1.385   .     A
C888   C890    1.385   .     A
C888   C914    1.447   .     S
C889   H919    1.086   .     S
C889   C891    1.385   .     A
C890   C892    1.385   .     A
C890   H930    1.086   .     S
C891   C893    1.410   .     A
C891   C898    1.392   .     A
C892   C894    1.410   .     A
C892   C899    1.392   .     A
C893   C895    1.433   .     A
C893   C826    1.413   1_655 S
C894   C897    1.433   .     A
C895   C911    1.428   .     A
C895   C916    1.425   .     A
C896   C913    1.433   .     S
C896   O948    1.308   .     A
C896   O946    1.302   .     A
C897   C907    1.428   .     A
C898   H932    1.086   .     S
C898   C839    1.390   1_655 S
C899   H933    1.086   .     S
C900   C916    1.451   .     S
C900   N941    1.158   .     T
C901   N942    1.158   .     T
C902   C907    1.446   .     S
C902   N1215   1.158   1_545 S
C903   C911    1.446   .     S
C903   N1080   1.158   .     S
C904   H923    1.078   .     S
C904   H922    1.111   .     S
C904   C905    1.534   .     S
C904   N123    1.461   1_556 S
C905   H920    1.111   .     S
C905   C906    1.529   .     S
C905   H105    1.102   1_556 S
C906   H937    1.110   .     S
C906   H936    1.111   .     S
C906   H1210   1.111   1_545 S
C908   C909    1.534   .     S
C908   H929    1.078   .     S
C908   H931    1.111   .     S
C909   H928    1.111   .     S
C909   C910    1.529   .     S
C910   H924    1.110   .     S
C910   H925    1.111   .     S
C910   H1062   1.111   .     S
C911   C831    1.390   1_655 S
C912   C1185   1.339   1_545 S
C912   H1206   1.087   1_545 S
C913   C1048   1.339   .     S
C913   H1071   1.087   .     S
C914   O951    1.306   .     A
C914   O949    1.307   .     A
C915   O952    1.306   .     A
C915   O950    1.307   .     A
Cu917  N940    2.056   .     S
Cu917  Cu918   2.737   .     S
Cu917  O949    1.960   .     S
Cu917  O945    1.946   .     S
Cu917  O952    1.954   .     S
Cu917  O948    1.949   .     S
Cu918  O951    1.954   .     S
Cu918  N939    2.056   .     S
Cu918  O950    1.960   .     S
Cu918  O947    1.949   .     S
Cu918  O946    1.946   .     S
H926   C1182   1.111   1_545 S
H927   C93     1.102   1_556 S
H934   C1048   1.087   .     S
H935   C1185   1.087   1_545 S
H938   C1042   1.111   .     S
N940   N123    1.288   1_556 S
N940   C92     1.461   1_556 S
N943   C1038   1.158   .     S
N944   C1175   1.158   1_545 S
C953   C980    1.433   .     S
C953   O1015   1.308   .     A
C953   O1013   1.302   .     A
C954   C956    1.407   .     A
C954   C969    1.451   .     S
C954   C965    1.425   .     A
C955   C983    1.447   .     S
C955   C984    1.407   .     A
C955   C957    1.385   .     A
C956   C958    1.385   .     A
C956   C982    1.447   .     S
C957   H987    1.086   .     S
C957   C959    1.385   .     A
C958   C960    1.385   .     A
C958   H998    1.086   .     S
C959   C961    1.410   .     A
C959   C966    1.392   .     A
C960   C962    1.410   .     A
C960   C967    1.392   .     A
C961   C963    1.433   .     A
C961   C1030   1.413   .     S
C962   C965    1.433   .     A
C962   C1029   1.413   1_455 S
C963   C979    1.428   .     A
C963   C984    1.425   .     A
C964   C981    1.433   .     S
C964   O1016   1.308   .     A
C964   O1014   1.302   .     A
C965   C975    1.428   .     A
C966   H1000   1.086   .     S
C966   C1043   1.390   .     S
C967   H1001   1.086   .     S
C967   C1047   1.390   1_455 S
C968   C984    1.451   .     S
C968   N1009   1.158   .     T
C969   N1010   1.158   .     T
C970   C975    1.446   .     S
C971   C979    1.446   .     S
C971   N1148   1.158   .     S
C972   H991    1.078   .     S
C972   H990    1.111   .     S
C972   C973    1.534   .     S
C972   N191    1.461   1_556 S
C973   H988    1.111   .     S
C973   C974    1.529   .     S
C973   H173    1.102   1_556 S
C974   H1005   1.110   .     S
C974   H1004   1.111   .     S
C975   C1034   1.390   1_455 S
C976   C977    1.534   .     S
C976   H997    1.078   .     S
C976   H999    1.111   .     S
C977   H996    1.111   .     S
C977   C978    1.529   .     S
C978   H992    1.110   .     S
C978   H993    1.111   .     S
C978   H1130   1.111   .     S
C979   C1035   1.390   .     S
C981   C1116   1.339   .     S
C981   H1139   1.087   .     S
C982   O1019   1.306   .     A
C982   O1017   1.307   .     A
C983   O1020   1.306   .     A
C983   O1018   1.307   .     A
Cu985  N1008   2.056   .     S
Cu985  Cu986   2.737   .     S
Cu985  O1017   1.960   .     S
Cu985  O1013   1.946   .     S
Cu985  O1020   1.954   .     S
Cu985  O1016   1.949   .     S
Cu986  O1019   1.954   .     S
Cu986  N1007   2.056   .     S
Cu986  O1018   1.960   .     S
Cu986  O1015   1.949   .     S
Cu986  O1014   1.946   .     S
H995   C161    1.102   1_556 S
H1002  C1116   1.087   .     S
H1006  C1110   1.111   .     S
N1008  N191    1.288   1_556 S
N1008  C160    1.461   1_556 S
N1011  C1106   1.158   .     S
C1021  C1048   1.433   .     S
C1021  O1083   1.308   .     A
C1021  O1081   1.302   .     A
C1022  C1024   1.407   .     A
C1022  C1037   1.451   .     S
C1022  C1033   1.425   .     A
C1023  C1051   1.447   .     S
C1023  C1052   1.407   .     A
C1023  C1025   1.385   .     A
C1024  C1026   1.385   .     A
C1024  C1050   1.447   .     S
C1025  H1055   1.086   .     S
C1025  C1027   1.385   .     A
C1026  C1028   1.385   .     A
C1026  H1066   1.086   .     S
C1027  C1029   1.410   .     A
C1027  C1034   1.392   .     A
C1028  C1030   1.410   .     A
C1028  C1035   1.392   .     A
C1029  C1031   1.433   .     A
C1029  C962    1.413   1_655 S
C1030  C1033   1.433   .     A
C1031  C1047   1.428   .     A
C1031  C1052   1.425   .     A
C1032  C1049   1.433   .     S
C1032  O1084   1.308   .     A
C1032  O1082   1.302   .     A
C1033  C1043   1.428   .     A
C1034  H1068   1.086   .     S
C1034  C975    1.390   1_655 S
C1035  H1069   1.086   .     S
C1036  C1052   1.451   .     S
C1036  N1077   1.158   .     T
C1037  N1078   1.158   .     T
C1038  C1043   1.446   .     S
C1039  C1047   1.446   .     S
C1039  N1216   1.158   .     S
C1040  H1059   1.078   .     S
C1040  H1058   1.111   .     S
C1040  C1041   1.534   .     S
C1040  N259    1.461   1_556 S
C1041  H1056   1.111   .     S
C1041  C1042   1.529   .     S
C1041  H241    1.102   1_556 S
C1042  H1073   1.110   .     S
C1042  H1072   1.111   .     S
C1044  C1045   1.534   .     S
C1044  H1065   1.078   .     S
C1044  H1067   1.111   .     S
C1045  H1064   1.111   .     S
C1045  C1046   1.529   .     S
C1046  H1060   1.110   .     S
C1046  H1061   1.111   .     S
C1046  H1198   1.111   .     S
C1047  C967    1.390   1_655 S
C1049  C1184   1.339   .     S
C1049  H1207   1.087   .     S
C1050  O1087   1.306   .     A
C1050  O1085   1.307   .     A
C1051  O1088   1.306   .     A
C1051  O1086   1.307   .     A
Cu1053 N1076   2.056   .     S
Cu1053 Cu1054  2.737   .     S
Cu1053 O1085   1.960   .     S
Cu1053 O1081   1.946   .     S
Cu1053 O1088   1.954   .     S
Cu1053 O1084   1.949   .     S
Cu1054 O1087   1.954   .     S
Cu1054 N1075   2.056   .     S
Cu1054 O1086   1.960   .     S
Cu1054 O1083   1.949   .     S
Cu1054 O1082   1.946   .     S
H1063  C229    1.102   1_556 S
H1070  C1184   1.087   .     S
H1074  C1178   1.111   .     S
N1076  N259    1.288   1_556 S
N1076  C228    1.461   1_556 S
N1079  C1174   1.158   .     S
C1089  C1116   1.433   .     S
C1089  O1151   1.308   .     A
C1089  O1149   1.302   .     A
C1090  C1092   1.407   .     A
C1090  C1105   1.451   .     S
C1090  C1101   1.425   .     A
C1091  C1119   1.447   .     S
C1091  C1120   1.407   .     A
C1091  C1093   1.385   .     A
C1092  C1094   1.385   .     A
C1092  C1118   1.447   .     S
C1093  H1123   1.086   .     S
C1093  C1095   1.385   .     A
C1094  C1096   1.385   .     A
C1094  H1134   1.086   .     S
C1095  C1097   1.410   .     A
C1095  C1102   1.392   .     A
C1096  C1098   1.410   .     A
C1096  C1103   1.392   .     A
C1097  C1099   1.433   .     A
C1097  C1166   1.413   .     S
C1098  C1101   1.433   .     A
C1098  C1165   1.413   1_455 S
C1099  C1115   1.428   .     A
C1099  C1120   1.425   .     A
C1100  C1117   1.433   .     S
C1100  O1152   1.308   .     A
C1100  O1150   1.302   .     A
C1101  C1111   1.428   .     A
C1102  H1136   1.086   .     S
C1102  C1179   1.390   .     S
C1103  H1137   1.086   .     S
C1103  C1183   1.390   1_455 S
C1104  C1120   1.451   .     S
C1104  N1145   1.158   .     T
C1105  N1146   1.158   .     T
C1106  C1111   1.446   .     S
C1107  C1115   1.446   .     S
C1107  N876    1.158   1_565 S
C1108  H1127   1.078   .     S
C1108  H1126   1.111   .     S
C1108  C1109   1.534   .     S
C1108  N327    1.461   1_556 S
C1109  H1124   1.111   .     S
C1109  C1110   1.529   .     S
C1109  H309    1.102   1_556 S
C1110  H1141   1.110   .     S
C1110  H1140   1.111   .     S
C1111  C1170   1.390   1_455 S
C1112  C1113   1.534   .     S
C1112  H1133   1.078   .     S
C1112  H1135   1.111   .     S
C1113  H1132   1.111   .     S
C1113  C1114   1.529   .     S
C1114  H1128   1.110   .     S
C1114  H1129   1.111   .     S
C1114  H858    1.111   1_565 S
C1115  C1171   1.390   .     S
C1117  C844    1.339   1_565 S
C1117  H867    1.087   1_565 S
C1118  O1155   1.306   .     A
C1118  O1153   1.307   .     A
C1119  O1156   1.306   .     A
C1119  O1154   1.307   .     A
Cu1121 N1144   2.056   .     S
Cu1121 Cu1122  2.737   .     S
Cu1121 O1153   1.960   .     S
Cu1121 O1149   1.946   .     S
Cu1121 O1156   1.954   .     S
Cu1121 O1152   1.949   .     S
Cu1122 O1155   1.954   .     S
Cu1122 N1143   2.056   .     S
Cu1122 O1154   1.960   .     S
Cu1122 O1151   1.949   .     S
Cu1122 O1150   1.946   .     S
H1131  C297    1.102   1_556 S
H1138  C844    1.087   1_565 S
H1142  C838    1.111   1_565 S
N1144  N327    1.288   1_556 S
N1144  C296    1.461   1_556 S
N1147  C834    1.158   1_565 S
C1157  C1184   1.433   .     S
C1157  O1219   1.308   .     A
C1157  O1217   1.302   .     A
C1158  C1160   1.407   .     A
C1158  C1173   1.451   .     S
C1158  C1169   1.425   .     A
C1159  C1187   1.447   .     S
C1159  C1188   1.407   .     A
C1159  C1161   1.385   .     A
C1160  C1162   1.385   .     A
C1160  C1186   1.447   .     S
C1161  H1191   1.086   .     S
C1161  C1163   1.385   .     A
C1162  C1164   1.385   .     A
C1162  H1202   1.086   .     S
C1163  C1165   1.410   .     A
C1163  C1170   1.392   .     A
C1164  C1166   1.410   .     A
C1164  C1171   1.392   .     A
C1165  C1167   1.433   .     A
C1165  C1098   1.413   1_655 S
C1166  C1169   1.433   .     A
C1167  C1183   1.428   .     A
C1167  C1188   1.425   .     A
C1168  C1185   1.433   .     S
C1168  O1220   1.308   .     A
C1168  O1218   1.302   .     A
C1169  C1179   1.428   .     A
C1170  H1204   1.086   .     S
C1170  C1111   1.390   1_655 S
C1171  H1205   1.086   .     S
C1172  C1188   1.451   .     S
C1172  N1213   1.158   .     T
C1173  N1214   1.158   .     T
C1174  C1179   1.446   .     S
C1175  C1183   1.446   .     S
C1175  N944    1.158   1_565 S
C1176  H1195   1.078   .     S
C1176  H1194   1.111   .     S
C1176  C1177   1.534   .     S
C1176  N395    1.461   1_556 S
C1177  H1192   1.111   .     S
C1177  C1178   1.529   .     S
C1177  H377    1.102   1_556 S
C1178  H1209   1.110   .     S
C1178  H1208   1.111   .     S
C1180  C1181   1.534   .     S
C1180  H1201   1.078   .     S
C1180  H1203   1.111   .     S
C1181  H1200   1.111   .     S
C1181  C1182   1.529   .     S
C1182  H1196   1.110   .     S
C1182  H1197   1.111   .     S
C1182  H926    1.111   1_565 S
C1183  C1103   1.390   1_655 S
C1185  C912    1.339   1_565 S
C1185  H935    1.087   1_565 S
C1186  O1223   1.306   .     A
C1186  O1221   1.307   .     A
C1187  O1224   1.306   .     A
C1187  O1222   1.307   .     A
Cu1189 N1212   2.056   .     S
Cu1189 Cu1190  2.737   .     S
Cu1189 O1221   1.960   .     S
Cu1189 O1217   1.946   .     S
Cu1189 O1224   1.954   .     S
Cu1189 O1220   1.949   .     S
Cu1190 O1223   1.954   .     S
Cu1190 N1211   2.056   .     S
Cu1190 O1222   1.960   .     S
Cu1190 O1219   1.949   .     S
Cu1190 O1218   1.946   .     S
H1199  C365    1.102   1_556 S
H1206  C912    1.087   1_565 S
H1210  C906    1.111   1_565 S
N1212  N395    1.288   1_556 S
N1212  C364    1.461   1_556 S
N1215  C902    1.158   1_565 S
