data_str_m2_o1_o1_pcu_sym.5
_audit_creation_date              2020-01-03
_audit_creation_method            'Materials Studio'
_symmetry_space_group_name_H-M    'P1'
_symmetry_Int_Tables_number       1
_symmetry_cell_setting            triclinic
loop_
_symmetry_equiv_pos_as_xyz
  x,y,z
_cell_length_a                    31.3419
_cell_length_b                    29.8110
_cell_length_c                    28.9100
_cell_angle_alpha                 88.6975
_cell_angle_beta                  89.2337
_cell_angle_gamma                 89.3551
loop_
_atom_site_label
_atom_site_type_symbol
_atom_site_fract_x
_atom_site_fract_y
_atom_site_fract_z
_atom_site_U_iso_or_equiv
_atom_site_adp_type
_atom_site_occupancy
C1     C     0.05919   0.19057   0.16678   0.00000  Uiso   1.00
C2     C     0.49962   0.28953   0.30771   0.00000  Uiso   1.00
C3     C     0.49668   0.28944   0.02378   0.00000  Uiso   1.00
C4     C     0.00313   0.21046   0.30958   0.00000  Uiso   1.00
C5     C     0.25039   0.46048   0.02563   0.00000  Uiso   1.00
C6     C     0.24765   0.03944   0.30756   0.00000  Uiso   1.00
C7     C     0.24687   0.03954   0.02376   0.00000  Uiso   1.00
C8     C     0.25332   0.46056   0.30955   0.00000  Uiso   1.00
C9     C     0.38024   0.15363   0.12771   0.00000  Uiso   1.00
C10    C     0.12534   0.33978   0.20004   0.00000  Uiso   1.00
C11    C     0.09632   0.37506   0.12991   0.00000  Uiso   1.00
C12    C     0.44075   0.30937   0.16657   0.00000  Uiso   1.00
C13    C     0.39574   0.13348   0.20827   0.00000  Uiso   1.00
C14    C     0.08476   0.11464   0.18657   0.00000  Uiso   1.00
C15    C     0.36613   0.33085   0.15313   0.00000  Uiso   1.00
C16    C     0.41692   0.38676   0.17876   0.00000  Uiso   1.00
C17    C     0.13211   0.16767   0.14578   0.00000  Uiso   1.00
C18    C     0.12466   0.41022   0.13330   0.00000  Uiso   1.00
C19    C     0.36976   0.09637   0.20562   0.00000  Uiso   1.00
C20    C     0.35427   0.11652   0.12506   0.00000  Uiso   1.00
C21    C     0.15368   0.37494   0.20343   0.00000  Uiso   1.00
C22    C     0.38387   0.41915   0.18021   0.00000  Uiso   1.00
C23    C     0.43905   0.19233   0.16726   0.00000  Uiso   1.00
C24    C     0.16524   0.13536   0.14676   0.00000  Uiso   1.00
C25    C     0.11789   0.08233   0.18755   0.00000  Uiso   1.00
C26    C     0.33308   0.36324   0.15458   0.00000  Uiso   1.00
C27    C     0.09498   0.34073   0.16443   0.00000  Uiso   1.00
C28    C     0.40347   0.16080   0.16845   0.00000  Uiso   1.00
C29    C     0.40718   0.34286   0.16654   0.00000  Uiso   1.00
C30    C     0.09288   0.15721   0.16703   0.00000  Uiso   1.00
C31    C     0.34653   0.08920   0.16488   0.00000  Uiso   1.00
C32    C     0.15502   0.40927   0.16891   0.00000  Uiso   1.00
C33    C     0.15712   0.09279   0.16630   0.00000  Uiso   1.00
C34    C     0.05998   0.30874   0.16597   0.00000  Uiso   1.00
C35    C     0.34282   0.40714   0.16680   0.00000  Uiso   1.00
C36    C     0.00104   0.16733   0.05161   0.00000  Uiso   1.00
C37    C     0.00737   0.33271   0.28280   0.00000  Uiso   1.00
C38    C     0.48690   0.33226   0.04704   0.00000  Uiso   1.00
C39    C     0.01074   0.16734   0.28607   0.00000  Uiso   1.00
C40    C     0.24266   0.41729   0.05053   0.00000  Uiso   1.00
C41    C     0.24895   0.08267   0.28173   0.00000  Uiso   1.00
C42    C     0.23925   0.08265   0.04726   0.00000  Uiso   1.00
C43    C     0.26309   0.41773   0.28630   0.00000  Uiso   1.00
C44    C     0.30925   0.44063   0.16677   0.00000  Uiso   1.00
C45    C     0.19081   0.05943   0.16655   0.00000  Uiso   1.00
C46    C     0.19002   0.44126   0.16736   0.00000  Uiso   1.00
C47    C     0.31095   0.05767   0.16607   0.00000  Uiso   1.00
C48    C     0.00235   0.21056   0.02577   0.00000  Uiso   1.00
Cu49   Cu    0.00000   0.25000   0.21355   0.00000  Uiso   1.00
Cu50   Cu    0.00000   0.25000   0.11978   0.00000  Uiso   1.00
Cu51   Cu    0.25000   0.00000   0.21355   0.00000  Uiso   1.00
Cu52   Cu    0.25000   0.00000   0.11978   0.00000  Uiso   1.00
H53    H     0.02941   0.15377   0.06792   0.00000  Uiso   1.00
H54    H     0.11996   0.27684   0.21741   0.00000  Uiso   1.00
H55    H     0.07659   0.35000   0.07450   0.00000  Uiso   1.00
H56    H     0.40578   0.17192   0.25881   0.00000  Uiso   1.00
H57    H     0.03876   0.07265   0.19939   0.00000  Uiso   1.00
H58    H     0.33601   0.28798   0.11633   0.00000  Uiso   1.00
H59    H     0.46369   0.42909   0.17901   0.00000  Uiso   1.00
H60    H     0.15787   0.20679   0.09883   0.00000  Uiso   1.00
H61    H     0.13004   0.47316   0.11592   0.00000  Uiso   1.00
H62    H     0.36565   0.03692   0.23311   0.00000  Uiso   1.00
H63    H     0.34422   0.07808   0.07452   0.00000  Uiso   1.00
H64    H     0.48886   0.34336   0.25348   0.00000  Uiso   1.00
H65    H     0.17340   0.40001   0.25884   0.00000  Uiso   1.00
H66    H     0.41401   0.46203   0.21698   0.00000  Uiso   1.00
H67    H     0.21124   0.17735   0.13393   0.00000  Uiso   1.00
H68    H     0.09212   0.04321   0.23450   0.00000  Uiso   1.00
H69    H     0.28631   0.32090   0.15430   0.00000  Uiso   1.00
H70    H     0.00020   0.33975   0.07990   0.00000  Uiso   1.00
H71    H     0.49423   0.15921   0.25516   0.00000  Uiso   1.00
H72    H     0.26126   0.40660   0.07977   0.00000  Uiso   1.00
H73    H     0.22057   0.09623   0.26542   0.00000  Uiso   1.00
H74    H     0.25578   0.09080   0.07817   0.00000  Uiso   1.00
H75    H     0.24979   0.41025   0.25342   0.00000  Uiso   1.00
H76    H     0.38435   0.21308   0.10023   0.00000  Uiso   1.00
N77    N     0.00000   0.25000   0.28402   0.00000  Uiso   1.00
N78    N     0.00000   0.25000   0.04931   0.00000  Uiso   1.00
N79    N     0.25000   0.00000   0.28402   0.00000  Uiso   1.00
N80    N     0.25000   0.00000   0.04931   0.00000  Uiso   1.00
O81    O     0.04509   0.20491   0.20625   0.00000  Uiso   1.00
O82    O     0.20492   0.04509   0.12709   0.00000  Uiso   1.00
O83    O     0.20492   0.04509   0.20625   0.00000  Uiso   1.00
O84    O     0.29509   0.45491   0.12709   0.00000  Uiso   1.00
O85    O     0.20492   0.45491   0.12709   0.00000  Uiso   1.00
O86    O     0.29509   0.04509   0.20625   0.00000  Uiso   1.00
O87    O     0.29509   0.04509   0.12709   0.00000  Uiso   1.00
O88    O     0.20492   0.45491   0.20625   0.00000  Uiso   1.00
O89    O     0.46862   0.14501   0.05200   0.00000  Uiso   1.00
O90    O     0.03538   0.35754   0.29562   0.00000  Uiso   1.00
O91    O     0.46233   0.35976   0.02976   0.00000  Uiso   1.00
O92    O     0.45492   0.29509   0.12709   0.00000  Uiso   1.00
O93    O     0.03696   0.14021   0.30090   0.00000  Uiso   1.00
O94    O     0.21458   0.39251   0.03780   0.00000  Uiso   1.00
O95    O     0.28137   0.10499   0.28132   0.00000  Uiso   1.00
O96    O     0.21303   0.10978   0.03244   0.00000  Uiso   1.00
O97    O     0.28765   0.39022   0.30358   0.00000  Uiso   1.00
O98    O     0.38230   0.18195   0.08933   0.00000  Uiso   1.00
O99    O     0.12852   0.30495   0.23220   0.00000  Uiso   1.00
O100   O     0.06882   0.37629   0.09338   0.00000  Uiso   1.00
O101   O     0.41428   0.14105   0.25019   0.00000  Uiso   1.00
O102   O     0.04381   0.10522   0.20194   0.00000  Uiso   1.00
O103   O     0.45492   0.29509   0.20625   0.00000  Uiso   1.00
O104   O     0.35963   0.28762   0.13874   0.00000  Uiso   1.00
O105   O     0.45900   0.39704   0.18700   0.00000  Uiso   1.00
O106   O     0.13679   0.20934   0.12448   0.00000  Uiso   1.00
O107   O     0.12148   0.44505   0.10113   0.00000  Uiso   1.00
O108   O     0.36770   0.06805   0.24400   0.00000  Uiso   1.00
O109   O     0.33572   0.10895   0.08315   0.00000  Uiso   1.00
O110   O     0.18118   0.37371   0.23995   0.00000  Uiso   1.00
O111   O     0.39037   0.46238   0.19459   0.00000  Uiso   1.00
O112   O     0.20619   0.14478   0.13139   0.00000  Uiso   1.00
O113   O     0.11321   0.04066   0.20885   0.00000  Uiso   1.00
O114   O     0.04509   0.20491   0.12709   0.00000  Uiso   1.00
O115   O     0.29100   0.35296   0.14634   0.00000  Uiso   1.00
O116   O     0.45492   0.20491   0.12709   0.00000  Uiso   1.00
O117   O     0.04509   0.29509   0.20625   0.00000  Uiso   1.00
O118   O     0.04509   0.29509   0.12709   0.00000  Uiso   1.00
O119   O     0.45492   0.20491   0.20625   0.00000  Uiso   1.00
O120   O     0.29509   0.45491   0.20625   0.00000  Uiso   1.00
C121   C     0.55919   0.19057   0.16678   0.00000  Uiso   1.00
C122   C     0.99962   0.28953   0.30771   0.00000  Uiso   1.00
C123   C     0.99668   0.28944   0.02378   0.00000  Uiso   1.00
C124   C     0.50313   0.21046   0.30958   0.00000  Uiso   1.00
C125   C     0.75039   0.46048   0.02563   0.00000  Uiso   1.00
C126   C     0.74765   0.03944   0.30756   0.00000  Uiso   1.00
C127   C     0.74687   0.03954   0.02376   0.00000  Uiso   1.00
C128   C     0.75332   0.46056   0.30955   0.00000  Uiso   1.00
C129   C     0.88024   0.15363   0.12771   0.00000  Uiso   1.00
C130   C     0.62534   0.33978   0.20004   0.00000  Uiso   1.00
C131   C     0.59632   0.37506   0.12991   0.00000  Uiso   1.00
C132   C     0.94075   0.30937   0.16657   0.00000  Uiso   1.00
C133   C     0.89574   0.13348   0.20827   0.00000  Uiso   1.00
C134   C     0.58476   0.11464   0.18657   0.00000  Uiso   1.00
C135   C     0.86613   0.33085   0.15313   0.00000  Uiso   1.00
C136   C     0.91692   0.38676   0.17876   0.00000  Uiso   1.00
C137   C     0.63211   0.16767   0.14578   0.00000  Uiso   1.00
C138   C     0.62466   0.41022   0.13330   0.00000  Uiso   1.00
C139   C     0.86976   0.09637   0.20562   0.00000  Uiso   1.00
C140   C     0.85427   0.11652   0.12506   0.00000  Uiso   1.00
C141   C     0.65368   0.37494   0.20343   0.00000  Uiso   1.00
C142   C     0.88387   0.41915   0.18021   0.00000  Uiso   1.00
C143   C     0.93905   0.19233   0.16726   0.00000  Uiso   1.00
C144   C     0.66524   0.13536   0.14676   0.00000  Uiso   1.00
C145   C     0.61789   0.08233   0.18755   0.00000  Uiso   1.00
C146   C     0.83308   0.36324   0.15458   0.00000  Uiso   1.00
C147   C     0.59498   0.34073   0.16443   0.00000  Uiso   1.00
C148   C     0.90347   0.16080   0.16845   0.00000  Uiso   1.00
C149   C     0.90718   0.34286   0.16654   0.00000  Uiso   1.00
C150   C     0.59288   0.15721   0.16703   0.00000  Uiso   1.00
C151   C     0.84653   0.08920   0.16488   0.00000  Uiso   1.00
C152   C     0.65502   0.40927   0.16891   0.00000  Uiso   1.00
C153   C     0.65712   0.09279   0.16630   0.00000  Uiso   1.00
C154   C     0.55998   0.30874   0.16597   0.00000  Uiso   1.00
C155   C     0.84282   0.40714   0.16680   0.00000  Uiso   1.00
C156   C     0.50104   0.16733   0.05161   0.00000  Uiso   1.00
C157   C     0.50737   0.33271   0.28280   0.00000  Uiso   1.00
C158   C     0.98690   0.33226   0.04704   0.00000  Uiso   1.00
C159   C     0.51074   0.16734   0.28607   0.00000  Uiso   1.00
C160   C     0.74266   0.41729   0.05053   0.00000  Uiso   1.00
C161   C     0.74895   0.08267   0.28173   0.00000  Uiso   1.00
C162   C     0.73925   0.08265   0.04726   0.00000  Uiso   1.00
C163   C     0.76309   0.41773   0.28630   0.00000  Uiso   1.00
C164   C     0.80925   0.44063   0.16677   0.00000  Uiso   1.00
C165   C     0.69081   0.05943   0.16655   0.00000  Uiso   1.00
C166   C     0.69002   0.44126   0.16736   0.00000  Uiso   1.00
C167   C     0.81095   0.05767   0.16607   0.00000  Uiso   1.00
C168   C     0.50235   0.21056   0.02577   0.00000  Uiso   1.00
Cu169  Cu    0.50000   0.25000   0.21355   0.00000  Uiso   1.00
Cu170  Cu    0.50000   0.25000   0.11978   0.00000  Uiso   1.00
Cu171  Cu    0.75000   0.00000   0.21355   0.00000  Uiso   1.00
Cu172  Cu    0.75000   0.00000   0.11978   0.00000  Uiso   1.00
H173   H     0.52941   0.15377   0.06792   0.00000  Uiso   1.00
H174   H     0.61996   0.27684   0.21741   0.00000  Uiso   1.00
H175   H     0.57659   0.35000   0.07450   0.00000  Uiso   1.00
H176   H     0.90578   0.17192   0.25881   0.00000  Uiso   1.00
H177   H     0.53876   0.07265   0.19939   0.00000  Uiso   1.00
H178   H     0.83601   0.28798   0.11633   0.00000  Uiso   1.00
H179   H     0.96369   0.42909   0.17901   0.00000  Uiso   1.00
H180   H     0.65787   0.20679   0.09883   0.00000  Uiso   1.00
H181   H     0.63004   0.47316   0.11592   0.00000  Uiso   1.00
H182   H     0.86565   0.03692   0.23311   0.00000  Uiso   1.00
H183   H     0.84422   0.07808   0.07452   0.00000  Uiso   1.00
H184   H     0.98886   0.34336   0.25348   0.00000  Uiso   1.00
H185   H     0.67340   0.40001   0.25884   0.00000  Uiso   1.00
H186   H     0.91401   0.46203   0.21698   0.00000  Uiso   1.00
H187   H     0.71124   0.17735   0.13393   0.00000  Uiso   1.00
H188   H     0.59212   0.04321   0.23450   0.00000  Uiso   1.00
H189   H     0.78631   0.32090   0.15430   0.00000  Uiso   1.00
H190   H     0.50020   0.33975   0.07990   0.00000  Uiso   1.00
H191   H     0.99423   0.15921   0.25516   0.00000  Uiso   1.00
H192   H     0.76126   0.40660   0.07977   0.00000  Uiso   1.00
H193   H     0.72057   0.09623   0.26542   0.00000  Uiso   1.00
H194   H     0.75578   0.09080   0.07817   0.00000  Uiso   1.00
H195   H     0.74979   0.41025   0.25342   0.00000  Uiso   1.00
H196   H     0.88435   0.21308   0.10023   0.00000  Uiso   1.00
N197   N     0.50000   0.25000   0.28402   0.00000  Uiso   1.00
N198   N     0.50000   0.25000   0.04931   0.00000  Uiso   1.00
N199   N     0.75000   0.00000   0.28402   0.00000  Uiso   1.00
N200   N     0.75000   0.00000   0.04931   0.00000  Uiso   1.00
O201   O     0.54509   0.20491   0.20625   0.00000  Uiso   1.00
O202   O     0.70492   0.04509   0.12709   0.00000  Uiso   1.00
O203   O     0.70492   0.04509   0.20625   0.00000  Uiso   1.00
O204   O     0.79509   0.45491   0.12709   0.00000  Uiso   1.00
O205   O     0.70492   0.45491   0.12709   0.00000  Uiso   1.00
O206   O     0.79509   0.04509   0.20625   0.00000  Uiso   1.00
O207   O     0.79509   0.04509   0.12709   0.00000  Uiso   1.00
O208   O     0.70492   0.45491   0.20625   0.00000  Uiso   1.00
O209   O     0.96862   0.14501   0.05200   0.00000  Uiso   1.00
O210   O     0.53538   0.35754   0.29562   0.00000  Uiso   1.00
O211   O     0.96233   0.35976   0.02976   0.00000  Uiso   1.00
O212   O     0.95492   0.29509   0.12709   0.00000  Uiso   1.00
O213   O     0.53696   0.14021   0.30090   0.00000  Uiso   1.00
O214   O     0.71458   0.39251   0.03780   0.00000  Uiso   1.00
O215   O     0.78137   0.10499   0.28132   0.00000  Uiso   1.00
O216   O     0.71303   0.10978   0.03244   0.00000  Uiso   1.00
O217   O     0.78765   0.39022   0.30358   0.00000  Uiso   1.00
O218   O     0.88230   0.18195   0.08933   0.00000  Uiso   1.00
O219   O     0.62852   0.30495   0.23220   0.00000  Uiso   1.00
O220   O     0.56882   0.37629   0.09338   0.00000  Uiso   1.00
O221   O     0.91428   0.14105   0.25019   0.00000  Uiso   1.00
O222   O     0.54381   0.10522   0.20194   0.00000  Uiso   1.00
O223   O     0.95492   0.29509   0.20625   0.00000  Uiso   1.00
O224   O     0.85963   0.28762   0.13874   0.00000  Uiso   1.00
O225   O     0.95900   0.39704   0.18700   0.00000  Uiso   1.00
O226   O     0.63679   0.20934   0.12448   0.00000  Uiso   1.00
O227   O     0.62148   0.44505   0.10113   0.00000  Uiso   1.00
O228   O     0.86770   0.06805   0.24400   0.00000  Uiso   1.00
O229   O     0.83572   0.10895   0.08315   0.00000  Uiso   1.00
O230   O     0.68118   0.37371   0.23995   0.00000  Uiso   1.00
O231   O     0.89037   0.46238   0.19459   0.00000  Uiso   1.00
O232   O     0.70619   0.14478   0.13139   0.00000  Uiso   1.00
O233   O     0.61321   0.04066   0.20885   0.00000  Uiso   1.00
O234   O     0.54509   0.20491   0.12709   0.00000  Uiso   1.00
O235   O     0.79100   0.35296   0.14634   0.00000  Uiso   1.00
O236   O     0.95492   0.20491   0.12709   0.00000  Uiso   1.00
O237   O     0.54509   0.29509   0.20625   0.00000  Uiso   1.00
O238   O     0.54509   0.29509   0.12709   0.00000  Uiso   1.00
O239   O     0.95492   0.20491   0.20625   0.00000  Uiso   1.00
O240   O     0.79509   0.45491   0.20625   0.00000  Uiso   1.00
C241   C     0.05919   0.69057   0.16678   0.00000  Uiso   1.00
C242   C     0.49962   0.78953   0.30771   0.00000  Uiso   1.00
C243   C     0.49668   0.78944   0.02378   0.00000  Uiso   1.00
C244   C     0.00313   0.71046   0.30958   0.00000  Uiso   1.00
C245   C     0.25039   0.96048   0.02563   0.00000  Uiso   1.00
C246   C     0.24765   0.53944   0.30756   0.00000  Uiso   1.00
C247   C     0.24687   0.53954   0.02376   0.00000  Uiso   1.00
C248   C     0.25332   0.96056   0.30955   0.00000  Uiso   1.00
C249   C     0.38024   0.65363   0.12771   0.00000  Uiso   1.00
C250   C     0.12534   0.83978   0.20004   0.00000  Uiso   1.00
C251   C     0.09632   0.87506   0.12991   0.00000  Uiso   1.00
C252   C     0.44075   0.80937   0.16657   0.00000  Uiso   1.00
C253   C     0.39574   0.63348   0.20827   0.00000  Uiso   1.00
C254   C     0.08476   0.61464   0.18657   0.00000  Uiso   1.00
C255   C     0.36613   0.83085   0.15313   0.00000  Uiso   1.00
C256   C     0.41692   0.88676   0.17876   0.00000  Uiso   1.00
C257   C     0.13211   0.66767   0.14578   0.00000  Uiso   1.00
C258   C     0.12466   0.91022   0.13330   0.00000  Uiso   1.00
C259   C     0.36976   0.59637   0.20562   0.00000  Uiso   1.00
C260   C     0.35427   0.61652   0.12506   0.00000  Uiso   1.00
C261   C     0.15368   0.87494   0.20343   0.00000  Uiso   1.00
C262   C     0.38387   0.91915   0.18021   0.00000  Uiso   1.00
C263   C     0.43905   0.69233   0.16726   0.00000  Uiso   1.00
C264   C     0.16524   0.63536   0.14676   0.00000  Uiso   1.00
C265   C     0.11789   0.58233   0.18755   0.00000  Uiso   1.00
C266   C     0.33308   0.86324   0.15458   0.00000  Uiso   1.00
C267   C     0.09498   0.84073   0.16443   0.00000  Uiso   1.00
C268   C     0.40347   0.66080   0.16845   0.00000  Uiso   1.00
C269   C     0.40718   0.84286   0.16654   0.00000  Uiso   1.00
C270   C     0.09288   0.65721   0.16703   0.00000  Uiso   1.00
C271   C     0.34653   0.58920   0.16488   0.00000  Uiso   1.00
C272   C     0.15502   0.90927   0.16891   0.00000  Uiso   1.00
C273   C     0.15712   0.59279   0.16630   0.00000  Uiso   1.00
C274   C     0.05998   0.80874   0.16597   0.00000  Uiso   1.00
C275   C     0.34282   0.90714   0.16680   0.00000  Uiso   1.00
C276   C     0.00104   0.66733   0.05161   0.00000  Uiso   1.00
C277   C     0.00737   0.83271   0.28280   0.00000  Uiso   1.00
C278   C     0.48690   0.83226   0.04704   0.00000  Uiso   1.00
C279   C     0.01074   0.66734   0.28607   0.00000  Uiso   1.00
C280   C     0.24266   0.91729   0.05053   0.00000  Uiso   1.00
C281   C     0.24895   0.58267   0.28173   0.00000  Uiso   1.00
C282   C     0.23925   0.58265   0.04726   0.00000  Uiso   1.00
C283   C     0.26309   0.91773   0.28630   0.00000  Uiso   1.00
C284   C     0.30925   0.94063   0.16677   0.00000  Uiso   1.00
C285   C     0.19081   0.55943   0.16655   0.00000  Uiso   1.00
C286   C     0.19002   0.94126   0.16736   0.00000  Uiso   1.00
C287   C     0.31095   0.55767   0.16607   0.00000  Uiso   1.00
C288   C     0.00235   0.71056   0.02577   0.00000  Uiso   1.00
Cu289  Cu    0.00000   0.75000   0.21355   0.00000  Uiso   1.00
Cu290  Cu    0.00000   0.75000   0.11978   0.00000  Uiso   1.00
Cu291  Cu    0.25000   0.50000   0.21355   0.00000  Uiso   1.00
Cu292  Cu    0.25000   0.50000   0.11978   0.00000  Uiso   1.00
H293   H     0.02941   0.65377   0.06792   0.00000  Uiso   1.00
H294   H     0.11996   0.77684   0.21741   0.00000  Uiso   1.00
H295   H     0.07659   0.85000   0.07450   0.00000  Uiso   1.00
H296   H     0.40578   0.67192   0.25881   0.00000  Uiso   1.00
H297   H     0.03876   0.57265   0.19939   0.00000  Uiso   1.00
H298   H     0.33601   0.78798   0.11633   0.00000  Uiso   1.00
H299   H     0.46369   0.92909   0.17901   0.00000  Uiso   1.00
H300   H     0.15787   0.70679   0.09883   0.00000  Uiso   1.00
H301   H     0.13004   0.97316   0.11592   0.00000  Uiso   1.00
H302   H     0.36565   0.53692   0.23311   0.00000  Uiso   1.00
H303   H     0.34422   0.57808   0.07452   0.00000  Uiso   1.00
H304   H     0.48886   0.84336   0.25348   0.00000  Uiso   1.00
H305   H     0.17340   0.90001   0.25884   0.00000  Uiso   1.00
H306   H     0.41401   0.96203   0.21698   0.00000  Uiso   1.00
H307   H     0.21124   0.67735   0.13393   0.00000  Uiso   1.00
H308   H     0.09212   0.54321   0.23450   0.00000  Uiso   1.00
H309   H     0.28631   0.82090   0.15430   0.00000  Uiso   1.00
H310   H     0.00020   0.83975   0.07990   0.00000  Uiso   1.00
H311   H     0.49423   0.65921   0.25516   0.00000  Uiso   1.00
H312   H     0.26126   0.90660   0.07977   0.00000  Uiso   1.00
H313   H     0.22057   0.59623   0.26542   0.00000  Uiso   1.00
H314   H     0.25578   0.59080   0.07817   0.00000  Uiso   1.00
H315   H     0.24979   0.91025   0.25342   0.00000  Uiso   1.00
H316   H     0.38435   0.71308   0.10023   0.00000  Uiso   1.00
N317   N     0.00000   0.75000   0.28402   0.00000  Uiso   1.00
N318   N     0.00000   0.75000   0.04931   0.00000  Uiso   1.00
N319   N     0.25000   0.50000   0.28402   0.00000  Uiso   1.00
N320   N     0.25000   0.50000   0.04931   0.00000  Uiso   1.00
O321   O     0.04509   0.70491   0.20625   0.00000  Uiso   1.00
O322   O     0.20492   0.54509   0.12709   0.00000  Uiso   1.00
O323   O     0.20492   0.54509   0.20625   0.00000  Uiso   1.00
O324   O     0.29509   0.95491   0.12709   0.00000  Uiso   1.00
O325   O     0.20492   0.95491   0.12709   0.00000  Uiso   1.00
O326   O     0.29509   0.54509   0.20625   0.00000  Uiso   1.00
O327   O     0.29509   0.54509   0.12709   0.00000  Uiso   1.00
O328   O     0.20492   0.95491   0.20625   0.00000  Uiso   1.00
O329   O     0.46862   0.64501   0.05200   0.00000  Uiso   1.00
O330   O     0.03538   0.85754   0.29562   0.00000  Uiso   1.00
O331   O     0.46233   0.85976   0.02976   0.00000  Uiso   1.00
O332   O     0.45492   0.79509   0.12709   0.00000  Uiso   1.00
O333   O     0.03696   0.64021   0.30090   0.00000  Uiso   1.00
O334   O     0.21458   0.89251   0.03780   0.00000  Uiso   1.00
O335   O     0.28137   0.60499   0.28132   0.00000  Uiso   1.00
O336   O     0.21303   0.60978   0.03244   0.00000  Uiso   1.00
O337   O     0.28765   0.89022   0.30358   0.00000  Uiso   1.00
O338   O     0.38230   0.68195   0.08933   0.00000  Uiso   1.00
O339   O     0.12852   0.80495   0.23220   0.00000  Uiso   1.00
O340   O     0.06882   0.87629   0.09338   0.00000  Uiso   1.00
O341   O     0.41428   0.64105   0.25019   0.00000  Uiso   1.00
O342   O     0.04381   0.60522   0.20194   0.00000  Uiso   1.00
O343   O     0.45492   0.79509   0.20625   0.00000  Uiso   1.00
O344   O     0.35963   0.78762   0.13874   0.00000  Uiso   1.00
O345   O     0.45900   0.89704   0.18700   0.00000  Uiso   1.00
O346   O     0.13679   0.70934   0.12448   0.00000  Uiso   1.00
O347   O     0.12148   0.94505   0.10113   0.00000  Uiso   1.00
O348   O     0.36770   0.56805   0.24400   0.00000  Uiso   1.00
O349   O     0.33572   0.60895   0.08315   0.00000  Uiso   1.00
O350   O     0.18118   0.87371   0.23995   0.00000  Uiso   1.00
O351   O     0.39037   0.96238   0.19459   0.00000  Uiso   1.00
O352   O     0.20619   0.64478   0.13139   0.00000  Uiso   1.00
O353   O     0.11321   0.54066   0.20885   0.00000  Uiso   1.00
O354   O     0.04509   0.70491   0.12709   0.00000  Uiso   1.00
O355   O     0.29100   0.85296   0.14634   0.00000  Uiso   1.00
O356   O     0.45492   0.70491   0.12709   0.00000  Uiso   1.00
O357   O     0.04509   0.79509   0.20625   0.00000  Uiso   1.00
O358   O     0.04509   0.79509   0.12709   0.00000  Uiso   1.00
O359   O     0.45492   0.70491   0.20625   0.00000  Uiso   1.00
O360   O     0.29509   0.95491   0.20625   0.00000  Uiso   1.00
C361   C     0.55919   0.69057   0.16678   0.00000  Uiso   1.00
C362   C     0.99962   0.78953   0.30771   0.00000  Uiso   1.00
C363   C     0.99668   0.78944   0.02378   0.00000  Uiso   1.00
C364   C     0.50313   0.71046   0.30958   0.00000  Uiso   1.00
C365   C     0.75039   0.96048   0.02563   0.00000  Uiso   1.00
C366   C     0.74765   0.53944   0.30756   0.00000  Uiso   1.00
C367   C     0.74687   0.53954   0.02376   0.00000  Uiso   1.00
C368   C     0.75332   0.96056   0.30955   0.00000  Uiso   1.00
C369   C     0.88024   0.65363   0.12771   0.00000  Uiso   1.00
C370   C     0.62534   0.83978   0.20004   0.00000  Uiso   1.00
C371   C     0.59632   0.87506   0.12991   0.00000  Uiso   1.00
C372   C     0.94075   0.80937   0.16657   0.00000  Uiso   1.00
C373   C     0.89574   0.63348   0.20827   0.00000  Uiso   1.00
C374   C     0.58476   0.61464   0.18657   0.00000  Uiso   1.00
C375   C     0.86613   0.83085   0.15313   0.00000  Uiso   1.00
C376   C     0.91692   0.88676   0.17876   0.00000  Uiso   1.00
C377   C     0.63211   0.66767   0.14578   0.00000  Uiso   1.00
C378   C     0.62466   0.91022   0.13330   0.00000  Uiso   1.00
C379   C     0.86976   0.59637   0.20562   0.00000  Uiso   1.00
C380   C     0.85427   0.61652   0.12506   0.00000  Uiso   1.00
C381   C     0.65368   0.87494   0.20343   0.00000  Uiso   1.00
C382   C     0.88387   0.91915   0.18021   0.00000  Uiso   1.00
C383   C     0.93905   0.69233   0.16726   0.00000  Uiso   1.00
C384   C     0.66524   0.63536   0.14676   0.00000  Uiso   1.00
C385   C     0.61789   0.58233   0.18755   0.00000  Uiso   1.00
C386   C     0.83308   0.86324   0.15458   0.00000  Uiso   1.00
C387   C     0.59498   0.84073   0.16443   0.00000  Uiso   1.00
C388   C     0.90347   0.66080   0.16845   0.00000  Uiso   1.00
C389   C     0.90718   0.84286   0.16654   0.00000  Uiso   1.00
C390   C     0.59288   0.65721   0.16703   0.00000  Uiso   1.00
C391   C     0.84653   0.58920   0.16488   0.00000  Uiso   1.00
C392   C     0.65502   0.90927   0.16891   0.00000  Uiso   1.00
C393   C     0.65712   0.59279   0.16630   0.00000  Uiso   1.00
C394   C     0.55998   0.80874   0.16597   0.00000  Uiso   1.00
C395   C     0.84282   0.90714   0.16680   0.00000  Uiso   1.00
C396   C     0.50104   0.66733   0.05161   0.00000  Uiso   1.00
C397   C     0.50737   0.83271   0.28280   0.00000  Uiso   1.00
C398   C     0.98690   0.83226   0.04704   0.00000  Uiso   1.00
C399   C     0.51074   0.66734   0.28607   0.00000  Uiso   1.00
C400   C     0.74266   0.91729   0.05053   0.00000  Uiso   1.00
C401   C     0.74895   0.58267   0.28173   0.00000  Uiso   1.00
C402   C     0.73925   0.58265   0.04726   0.00000  Uiso   1.00
C403   C     0.76309   0.91773   0.28630   0.00000  Uiso   1.00
C404   C     0.80925   0.94063   0.16677   0.00000  Uiso   1.00
C405   C     0.69081   0.55943   0.16655   0.00000  Uiso   1.00
C406   C     0.69002   0.94126   0.16736   0.00000  Uiso   1.00
C407   C     0.81095   0.55767   0.16607   0.00000  Uiso   1.00
C408   C     0.50235   0.71056   0.02577   0.00000  Uiso   1.00
Cu409  Cu    0.50000   0.75000   0.21355   0.00000  Uiso   1.00
Cu410  Cu    0.50000   0.75000   0.11978   0.00000  Uiso   1.00
Cu411  Cu    0.75000   0.50000   0.21355   0.00000  Uiso   1.00
Cu412  Cu    0.75000   0.50000   0.11978   0.00000  Uiso   1.00
H413   H     0.52941   0.65377   0.06792   0.00000  Uiso   1.00
H414   H     0.61996   0.77684   0.21741   0.00000  Uiso   1.00
H415   H     0.57659   0.85000   0.07450   0.00000  Uiso   1.00
H416   H     0.90578   0.67192   0.25881   0.00000  Uiso   1.00
H417   H     0.53876   0.57265   0.19939   0.00000  Uiso   1.00
H418   H     0.83601   0.78798   0.11633   0.00000  Uiso   1.00
H419   H     0.96369   0.92909   0.17901   0.00000  Uiso   1.00
H420   H     0.65787   0.70679   0.09883   0.00000  Uiso   1.00
H421   H     0.63004   0.97316   0.11592   0.00000  Uiso   1.00
H422   H     0.86565   0.53692   0.23311   0.00000  Uiso   1.00
H423   H     0.84422   0.57808   0.07452   0.00000  Uiso   1.00
H424   H     0.98886   0.84336   0.25348   0.00000  Uiso   1.00
H425   H     0.67340   0.90001   0.25884   0.00000  Uiso   1.00
H426   H     0.91401   0.96203   0.21698   0.00000  Uiso   1.00
H427   H     0.71124   0.67735   0.13393   0.00000  Uiso   1.00
H428   H     0.59212   0.54321   0.23450   0.00000  Uiso   1.00
H429   H     0.78631   0.82090   0.15430   0.00000  Uiso   1.00
H430   H     0.50020   0.83975   0.07990   0.00000  Uiso   1.00
H431   H     0.99423   0.65921   0.25516   0.00000  Uiso   1.00
H432   H     0.76126   0.90660   0.07977   0.00000  Uiso   1.00
H433   H     0.72057   0.59623   0.26542   0.00000  Uiso   1.00
H434   H     0.75578   0.59080   0.07817   0.00000  Uiso   1.00
H435   H     0.74979   0.91025   0.25342   0.00000  Uiso   1.00
H436   H     0.88435   0.71308   0.10023   0.00000  Uiso   1.00
N437   N     0.50000   0.75000   0.28402   0.00000  Uiso   1.00
N438   N     0.50000   0.75000   0.04931   0.00000  Uiso   1.00
N439   N     0.75000   0.50000   0.28402   0.00000  Uiso   1.00
N440   N     0.75000   0.50000   0.04931   0.00000  Uiso   1.00
O441   O     0.54509   0.70491   0.20625   0.00000  Uiso   1.00
O442   O     0.70492   0.54509   0.12709   0.00000  Uiso   1.00
O443   O     0.70492   0.54509   0.20625   0.00000  Uiso   1.00
O444   O     0.79509   0.95491   0.12709   0.00000  Uiso   1.00
O445   O     0.70492   0.95491   0.12709   0.00000  Uiso   1.00
O446   O     0.79509   0.54509   0.20625   0.00000  Uiso   1.00
O447   O     0.79509   0.54509   0.12709   0.00000  Uiso   1.00
O448   O     0.70492   0.95491   0.20625   0.00000  Uiso   1.00
O449   O     0.96862   0.64501   0.05200   0.00000  Uiso   1.00
O450   O     0.53538   0.85754   0.29562   0.00000  Uiso   1.00
O451   O     0.96233   0.85976   0.02976   0.00000  Uiso   1.00
O452   O     0.95492   0.79509   0.12709   0.00000  Uiso   1.00
O453   O     0.53696   0.64021   0.30090   0.00000  Uiso   1.00
O454   O     0.71458   0.89251   0.03780   0.00000  Uiso   1.00
O455   O     0.78137   0.60499   0.28132   0.00000  Uiso   1.00
O456   O     0.71303   0.60978   0.03244   0.00000  Uiso   1.00
O457   O     0.78765   0.89022   0.30358   0.00000  Uiso   1.00
O458   O     0.88230   0.68195   0.08933   0.00000  Uiso   1.00
O459   O     0.62852   0.80495   0.23220   0.00000  Uiso   1.00
O460   O     0.56882   0.87629   0.09338   0.00000  Uiso   1.00
O461   O     0.91428   0.64105   0.25019   0.00000  Uiso   1.00
O462   O     0.54381   0.60522   0.20194   0.00000  Uiso   1.00
O463   O     0.95492   0.79509   0.20625   0.00000  Uiso   1.00
O464   O     0.85963   0.78762   0.13874   0.00000  Uiso   1.00
O465   O     0.95900   0.89704   0.18700   0.00000  Uiso   1.00
O466   O     0.63679   0.70934   0.12448   0.00000  Uiso   1.00
O467   O     0.62148   0.94505   0.10113   0.00000  Uiso   1.00
O468   O     0.86770   0.56805   0.24400   0.00000  Uiso   1.00
O469   O     0.83572   0.60895   0.08315   0.00000  Uiso   1.00
O470   O     0.68118   0.87371   0.23995   0.00000  Uiso   1.00
O471   O     0.89037   0.96238   0.19459   0.00000  Uiso   1.00
O472   O     0.70619   0.64478   0.13139   0.00000  Uiso   1.00
O473   O     0.61321   0.54066   0.20885   0.00000  Uiso   1.00
O474   O     0.54509   0.70491   0.12709   0.00000  Uiso   1.00
O475   O     0.79100   0.85296   0.14634   0.00000  Uiso   1.00
O476   O     0.95492   0.70491   0.12709   0.00000  Uiso   1.00
O477   O     0.54509   0.79509   0.20625   0.00000  Uiso   1.00
O478   O     0.54509   0.79509   0.12709   0.00000  Uiso   1.00
O479   O     0.95492   0.70491   0.20625   0.00000  Uiso   1.00
O480   O     0.79509   0.95491   0.20625   0.00000  Uiso   1.00
C481   C     0.05919   0.19057   0.50011   0.00000  Uiso   1.00
C482   C     0.49962   0.28953   0.64104   0.00000  Uiso   1.00
C483   C     0.49668   0.28944   0.35712   0.00000  Uiso   1.00
C484   C     0.00313   0.21046   0.64291   0.00000  Uiso   1.00
C485   C     0.25039   0.46048   0.35896   0.00000  Uiso   1.00
C486   C     0.24765   0.03944   0.64090   0.00000  Uiso   1.00
C487   C     0.24687   0.03954   0.35709   0.00000  Uiso   1.00
C488   C     0.25332   0.46056   0.64288   0.00000  Uiso   1.00
C489   C     0.38024   0.15363   0.46104   0.00000  Uiso   1.00
C490   C     0.12534   0.33978   0.53337   0.00000  Uiso   1.00
C491   C     0.09632   0.37506   0.46324   0.00000  Uiso   1.00
C492   C     0.44075   0.30937   0.49990   0.00000  Uiso   1.00
C493   C     0.39574   0.13348   0.54161   0.00000  Uiso   1.00
C494   C     0.08476   0.11464   0.51991   0.00000  Uiso   1.00
C495   C     0.36613   0.33085   0.48646   0.00000  Uiso   1.00
C496   C     0.41692   0.38676   0.51209   0.00000  Uiso   1.00
C497   C     0.13211   0.16767   0.47912   0.00000  Uiso   1.00
C498   C     0.12466   0.41022   0.46663   0.00000  Uiso   1.00
C499   C     0.36976   0.09637   0.53896   0.00000  Uiso   1.00
C500   C     0.35427   0.11652   0.45839   0.00000  Uiso   1.00
C501   C     0.15368   0.37494   0.53676   0.00000  Uiso   1.00
C502   C     0.38387   0.41915   0.51354   0.00000  Uiso   1.00
C503   C     0.43905   0.19233   0.50060   0.00000  Uiso   1.00
C504   C     0.16524   0.13536   0.48009   0.00000  Uiso   1.00
C505   C     0.11789   0.08233   0.52088   0.00000  Uiso   1.00
C506   C     0.33308   0.36324   0.48791   0.00000  Uiso   1.00
C507   C     0.09498   0.34073   0.49776   0.00000  Uiso   1.00
C508   C     0.40347   0.16080   0.50178   0.00000  Uiso   1.00
C509   C     0.40718   0.34286   0.49987   0.00000  Uiso   1.00
C510   C     0.09288   0.15721   0.50036   0.00000  Uiso   1.00
C511   C     0.34653   0.08920   0.49822   0.00000  Uiso   1.00
C512   C     0.15502   0.40927   0.50224   0.00000  Uiso   1.00
C513   C     0.15712   0.09279   0.49964   0.00000  Uiso   1.00
C514   C     0.05998   0.30874   0.49930   0.00000  Uiso   1.00
C515   C     0.34282   0.40714   0.50013   0.00000  Uiso   1.00
C516   C     0.00104   0.16733   0.38494   0.00000  Uiso   1.00
C517   C     0.00737   0.33271   0.61614   0.00000  Uiso   1.00
C518   C     0.48690   0.33226   0.38037   0.00000  Uiso   1.00
C519   C     0.01074   0.16734   0.61940   0.00000  Uiso   1.00
C520   C     0.24266   0.41729   0.38387   0.00000  Uiso   1.00
C521   C     0.24895   0.08267   0.61506   0.00000  Uiso   1.00
C522   C     0.23925   0.08265   0.38060   0.00000  Uiso   1.00
C523   C     0.26309   0.41773   0.61963   0.00000  Uiso   1.00
C524   C     0.30925   0.44063   0.50010   0.00000  Uiso   1.00
C525   C     0.19081   0.05943   0.49989   0.00000  Uiso   1.00
C526   C     0.19002   0.44126   0.50069   0.00000  Uiso   1.00
C527   C     0.31095   0.05767   0.49940   0.00000  Uiso   1.00
C528   C     0.00235   0.21056   0.35910   0.00000  Uiso   1.00
Cu529  Cu    0.00000   0.25000   0.54689   0.00000  Uiso   1.00
Cu530  Cu    0.00000   0.25000   0.45311   0.00000  Uiso   1.00
Cu531  Cu    0.25000   0.00000   0.54689   0.00000  Uiso   1.00
Cu532  Cu    0.25000   0.00000   0.45311   0.00000  Uiso   1.00
H533   H     0.02941   0.15377   0.40125   0.00000  Uiso   1.00
H534   H     0.11996   0.27684   0.55074   0.00000  Uiso   1.00
H535   H     0.07659   0.35000   0.40783   0.00000  Uiso   1.00
H536   H     0.40578   0.17192   0.59214   0.00000  Uiso   1.00
H537   H     0.03876   0.07265   0.53272   0.00000  Uiso   1.00
H538   H     0.33601   0.28798   0.44966   0.00000  Uiso   1.00
H539   H     0.46369   0.42909   0.51234   0.00000  Uiso   1.00
H540   H     0.15787   0.20679   0.43216   0.00000  Uiso   1.00
H541   H     0.13004   0.47316   0.44926   0.00000  Uiso   1.00
H542   H     0.36565   0.03692   0.56644   0.00000  Uiso   1.00
H543   H     0.34422   0.07808   0.40786   0.00000  Uiso   1.00
H544   H     0.48886   0.34336   0.58682   0.00000  Uiso   1.00
H545   H     0.17340   0.40001   0.59217   0.00000  Uiso   1.00
H546   H     0.41401   0.46203   0.55032   0.00000  Uiso   1.00
H547   H     0.21124   0.17735   0.46727   0.00000  Uiso   1.00
H548   H     0.09212   0.04321   0.56783   0.00000  Uiso   1.00
H549   H     0.28631   0.32090   0.48763   0.00000  Uiso   1.00
H550   H     0.00020   0.33975   0.41324   0.00000  Uiso   1.00
H551   H     0.49423   0.15921   0.58850   0.00000  Uiso   1.00
H552   H     0.26126   0.40660   0.41311   0.00000  Uiso   1.00
H553   H     0.22057   0.09623   0.59876   0.00000  Uiso   1.00
H554   H     0.25578   0.09080   0.41150   0.00000  Uiso   1.00
H555   H     0.24979   0.41025   0.58676   0.00000  Uiso   1.00
H556   H     0.38435   0.21308   0.43356   0.00000  Uiso   1.00
N557   N     0.00000   0.25000   0.61736   0.00000  Uiso   1.00
N558   N     0.00000   0.25000   0.38264   0.00000  Uiso   1.00
N559   N     0.25000   0.00000   0.61736   0.00000  Uiso   1.00
N560   N     0.25000   0.00000   0.38264   0.00000  Uiso   1.00
O561   O     0.04509   0.20491   0.53958   0.00000  Uiso   1.00
O562   O     0.20492   0.04509   0.46042   0.00000  Uiso   1.00
O563   O     0.20492   0.04509   0.53958   0.00000  Uiso   1.00
O564   O     0.29509   0.45491   0.46042   0.00000  Uiso   1.00
O565   O     0.20492   0.45491   0.46042   0.00000  Uiso   1.00
O566   O     0.29509   0.04509   0.53958   0.00000  Uiso   1.00
O567   O     0.29509   0.04509   0.46042   0.00000  Uiso   1.00
O568   O     0.20492   0.45491   0.53958   0.00000  Uiso   1.00
O569   O     0.46862   0.14501   0.38534   0.00000  Uiso   1.00
O570   O     0.03538   0.35754   0.62896   0.00000  Uiso   1.00
O571   O     0.46233   0.35976   0.36309   0.00000  Uiso   1.00
O572   O     0.45492   0.29509   0.46042   0.00000  Uiso   1.00
O573   O     0.03696   0.14021   0.63423   0.00000  Uiso   1.00
O574   O     0.21458   0.39251   0.37113   0.00000  Uiso   1.00
O575   O     0.28137   0.10499   0.61466   0.00000  Uiso   1.00
O576   O     0.21303   0.10978   0.36578   0.00000  Uiso   1.00
O577   O     0.28765   0.39022   0.63692   0.00000  Uiso   1.00
O578   O     0.38230   0.18195   0.42266   0.00000  Uiso   1.00
O579   O     0.12852   0.30495   0.56553   0.00000  Uiso   1.00
O580   O     0.06882   0.37629   0.42672   0.00000  Uiso   1.00
O581   O     0.41428   0.14105   0.58352   0.00000  Uiso   1.00
O582   O     0.04381   0.10522   0.53528   0.00000  Uiso   1.00
O583   O     0.45492   0.29509   0.53958   0.00000  Uiso   1.00
O584   O     0.35963   0.28762   0.47207   0.00000  Uiso   1.00
O585   O     0.45900   0.39704   0.52033   0.00000  Uiso   1.00
O586   O     0.13679   0.20934   0.45781   0.00000  Uiso   1.00
O587   O     0.12148   0.44505   0.43447   0.00000  Uiso   1.00
O588   O     0.36770   0.06805   0.57734   0.00000  Uiso   1.00
O589   O     0.33572   0.10895   0.41648   0.00000  Uiso   1.00
O590   O     0.18118   0.37371   0.57329   0.00000  Uiso   1.00
O591   O     0.39037   0.46238   0.52792   0.00000  Uiso   1.00
O592   O     0.20619   0.14478   0.46472   0.00000  Uiso   1.00
O593   O     0.11321   0.04066   0.54219   0.00000  Uiso   1.00
O594   O     0.04509   0.20491   0.46042   0.00000  Uiso   1.00
O595   O     0.29100   0.35296   0.47967   0.00000  Uiso   1.00
O596   O     0.45492   0.20491   0.46042   0.00000  Uiso   1.00
O597   O     0.04509   0.29509   0.53958   0.00000  Uiso   1.00
O598   O     0.04509   0.29509   0.46042   0.00000  Uiso   1.00
O599   O     0.45492   0.20491   0.53958   0.00000  Uiso   1.00
O600   O     0.29509   0.45491   0.53958   0.00000  Uiso   1.00
C601   C     0.55919   0.19057   0.50011   0.00000  Uiso   1.00
C602   C     0.99962   0.28953   0.64104   0.00000  Uiso   1.00
C603   C     0.99668   0.28944   0.35712   0.00000  Uiso   1.00
C604   C     0.50313   0.21046   0.64291   0.00000  Uiso   1.00
C605   C     0.75039   0.46048   0.35896   0.00000  Uiso   1.00
C606   C     0.74765   0.03944   0.64090   0.00000  Uiso   1.00
C607   C     0.74687   0.03954   0.35709   0.00000  Uiso   1.00
C608   C     0.75332   0.46056   0.64288   0.00000  Uiso   1.00
C609   C     0.88024   0.15363   0.46104   0.00000  Uiso   1.00
C610   C     0.62534   0.33978   0.53337   0.00000  Uiso   1.00
C611   C     0.59632   0.37506   0.46324   0.00000  Uiso   1.00
C612   C     0.94075   0.30937   0.49990   0.00000  Uiso   1.00
C613   C     0.89574   0.13348   0.54161   0.00000  Uiso   1.00
C614   C     0.58476   0.11464   0.51991   0.00000  Uiso   1.00
C615   C     0.86613   0.33085   0.48646   0.00000  Uiso   1.00
C616   C     0.91692   0.38676   0.51209   0.00000  Uiso   1.00
C617   C     0.63211   0.16767   0.47912   0.00000  Uiso   1.00
C618   C     0.62466   0.41022   0.46663   0.00000  Uiso   1.00
C619   C     0.86976   0.09637   0.53896   0.00000  Uiso   1.00
C620   C     0.85427   0.11652   0.45839   0.00000  Uiso   1.00
C621   C     0.65368   0.37494   0.53676   0.00000  Uiso   1.00
C622   C     0.88387   0.41915   0.51354   0.00000  Uiso   1.00
C623   C     0.93905   0.19233   0.50060   0.00000  Uiso   1.00
C624   C     0.66524   0.13536   0.48009   0.00000  Uiso   1.00
C625   C     0.61789   0.08233   0.52088   0.00000  Uiso   1.00
C626   C     0.83308   0.36324   0.48791   0.00000  Uiso   1.00
C627   C     0.59498   0.34073   0.49776   0.00000  Uiso   1.00
C628   C     0.90347   0.16080   0.50178   0.00000  Uiso   1.00
C629   C     0.90718   0.34286   0.49987   0.00000  Uiso   1.00
C630   C     0.59288   0.15721   0.50036   0.00000  Uiso   1.00
C631   C     0.84653   0.08920   0.49822   0.00000  Uiso   1.00
C632   C     0.65502   0.40927   0.50224   0.00000  Uiso   1.00
C633   C     0.65712   0.09279   0.49964   0.00000  Uiso   1.00
C634   C     0.55998   0.30874   0.49930   0.00000  Uiso   1.00
C635   C     0.84282   0.40714   0.50013   0.00000  Uiso   1.00
C636   C     0.50104   0.16733   0.38494   0.00000  Uiso   1.00
C637   C     0.50737   0.33271   0.61614   0.00000  Uiso   1.00
C638   C     0.98690   0.33226   0.38037   0.00000  Uiso   1.00
C639   C     0.51074   0.16734   0.61940   0.00000  Uiso   1.00
C640   C     0.74266   0.41729   0.38387   0.00000  Uiso   1.00
C641   C     0.74895   0.08267   0.61506   0.00000  Uiso   1.00
C642   C     0.73925   0.08265   0.38060   0.00000  Uiso   1.00
C643   C     0.76309   0.41773   0.61963   0.00000  Uiso   1.00
C644   C     0.80925   0.44063   0.50010   0.00000  Uiso   1.00
C645   C     0.69081   0.05943   0.49989   0.00000  Uiso   1.00
C646   C     0.69002   0.44126   0.50069   0.00000  Uiso   1.00
C647   C     0.81095   0.05767   0.49940   0.00000  Uiso   1.00
C648   C     0.50235   0.21056   0.35910   0.00000  Uiso   1.00
Cu649  Cu    0.50000   0.25000   0.54689   0.00000  Uiso   1.00
Cu650  Cu    0.50000   0.25000   0.45311   0.00000  Uiso   1.00
Cu651  Cu    0.75000   0.00000   0.54689   0.00000  Uiso   1.00
Cu652  Cu    0.75000   0.00000   0.45311   0.00000  Uiso   1.00
H653   H     0.52941   0.15377   0.40125   0.00000  Uiso   1.00
H654   H     0.61996   0.27684   0.55074   0.00000  Uiso   1.00
H655   H     0.57659   0.35000   0.40783   0.00000  Uiso   1.00
H656   H     0.90578   0.17192   0.59214   0.00000  Uiso   1.00
H657   H     0.53876   0.07265   0.53272   0.00000  Uiso   1.00
H658   H     0.83601   0.28798   0.44966   0.00000  Uiso   1.00
H659   H     0.96369   0.42909   0.51234   0.00000  Uiso   1.00
H660   H     0.65787   0.20679   0.43216   0.00000  Uiso   1.00
H661   H     0.63004   0.47316   0.44926   0.00000  Uiso   1.00
H662   H     0.86565   0.03692   0.56644   0.00000  Uiso   1.00
H663   H     0.84422   0.07808   0.40786   0.00000  Uiso   1.00
H664   H     0.98886   0.34336   0.58682   0.00000  Uiso   1.00
H665   H     0.67340   0.40001   0.59217   0.00000  Uiso   1.00
H666   H     0.91401   0.46203   0.55032   0.00000  Uiso   1.00
H667   H     0.71124   0.17735   0.46727   0.00000  Uiso   1.00
H668   H     0.59212   0.04321   0.56783   0.00000  Uiso   1.00
H669   H     0.78631   0.32090   0.48763   0.00000  Uiso   1.00
H670   H     0.50020   0.33975   0.41324   0.00000  Uiso   1.00
H671   H     0.99423   0.15921   0.58850   0.00000  Uiso   1.00
H672   H     0.76126   0.40660   0.41311   0.00000  Uiso   1.00
H673   H     0.72057   0.09623   0.59876   0.00000  Uiso   1.00
H674   H     0.75578   0.09080   0.41150   0.00000  Uiso   1.00
H675   H     0.74979   0.41025   0.58676   0.00000  Uiso   1.00
H676   H     0.88435   0.21308   0.43356   0.00000  Uiso   1.00
N677   N     0.50000   0.25000   0.61736   0.00000  Uiso   1.00
N678   N     0.50000   0.25000   0.38264   0.00000  Uiso   1.00
N679   N     0.75000   0.00000   0.61736   0.00000  Uiso   1.00
N680   N     0.75000   0.00000   0.38264   0.00000  Uiso   1.00
O681   O     0.54509   0.20491   0.53958   0.00000  Uiso   1.00
O682   O     0.70492   0.04509   0.46042   0.00000  Uiso   1.00
O683   O     0.70492   0.04509   0.53958   0.00000  Uiso   1.00
O684   O     0.79509   0.45491   0.46042   0.00000  Uiso   1.00
O685   O     0.70492   0.45491   0.46042   0.00000  Uiso   1.00
O686   O     0.79509   0.04509   0.53958   0.00000  Uiso   1.00
O687   O     0.79509   0.04509   0.46042   0.00000  Uiso   1.00
O688   O     0.70492   0.45491   0.53958   0.00000  Uiso   1.00
O689   O     0.96862   0.14501   0.38534   0.00000  Uiso   1.00
O690   O     0.53538   0.35754   0.62896   0.00000  Uiso   1.00
O691   O     0.96233   0.35976   0.36309   0.00000  Uiso   1.00
O692   O     0.95492   0.29509   0.46042   0.00000  Uiso   1.00
O693   O     0.53696   0.14021   0.63423   0.00000  Uiso   1.00
O694   O     0.71458   0.39251   0.37113   0.00000  Uiso   1.00
O695   O     0.78137   0.10499   0.61466   0.00000  Uiso   1.00
O696   O     0.71303   0.10978   0.36578   0.00000  Uiso   1.00
O697   O     0.78765   0.39022   0.63692   0.00000  Uiso   1.00
O698   O     0.88230   0.18195   0.42266   0.00000  Uiso   1.00
O699   O     0.62852   0.30495   0.56553   0.00000  Uiso   1.00
O700   O     0.56882   0.37629   0.42672   0.00000  Uiso   1.00
O701   O     0.91428   0.14105   0.58352   0.00000  Uiso   1.00
O702   O     0.54381   0.10522   0.53528   0.00000  Uiso   1.00
O703   O     0.95492   0.29509   0.53958   0.00000  Uiso   1.00
O704   O     0.85963   0.28762   0.47207   0.00000  Uiso   1.00
O705   O     0.95900   0.39704   0.52033   0.00000  Uiso   1.00
O706   O     0.63679   0.20934   0.45781   0.00000  Uiso   1.00
O707   O     0.62148   0.44505   0.43447   0.00000  Uiso   1.00
O708   O     0.86770   0.06805   0.57734   0.00000  Uiso   1.00
O709   O     0.83572   0.10895   0.41648   0.00000  Uiso   1.00
O710   O     0.68118   0.37371   0.57329   0.00000  Uiso   1.00
O711   O     0.89037   0.46238   0.52792   0.00000  Uiso   1.00
O712   O     0.70619   0.14478   0.46472   0.00000  Uiso   1.00
O713   O     0.61321   0.04066   0.54219   0.00000  Uiso   1.00
O714   O     0.54509   0.20491   0.46042   0.00000  Uiso   1.00
O715   O     0.79100   0.35296   0.47967   0.00000  Uiso   1.00
O716   O     0.95492   0.20491   0.46042   0.00000  Uiso   1.00
O717   O     0.54509   0.29509   0.53958   0.00000  Uiso   1.00
O718   O     0.54509   0.29509   0.46042   0.00000  Uiso   1.00
O719   O     0.95492   0.20491   0.53958   0.00000  Uiso   1.00
O720   O     0.79509   0.45491   0.53958   0.00000  Uiso   1.00
C721   C     0.05919   0.69057   0.50011   0.00000  Uiso   1.00
C722   C     0.49962   0.78953   0.64104   0.00000  Uiso   1.00
C723   C     0.49668   0.78944   0.35712   0.00000  Uiso   1.00
C724   C     0.00313   0.71046   0.64291   0.00000  Uiso   1.00
C725   C     0.25039   0.96048   0.35896   0.00000  Uiso   1.00
C726   C     0.24765   0.53944   0.64090   0.00000  Uiso   1.00
C727   C     0.24687   0.53954   0.35709   0.00000  Uiso   1.00
C728   C     0.25332   0.96056   0.64288   0.00000  Uiso   1.00
C729   C     0.38024   0.65363   0.46104   0.00000  Uiso   1.00
C730   C     0.12534   0.83978   0.53337   0.00000  Uiso   1.00
C731   C     0.09632   0.87506   0.46324   0.00000  Uiso   1.00
C732   C     0.44075   0.80937   0.49990   0.00000  Uiso   1.00
C733   C     0.39574   0.63348   0.54161   0.00000  Uiso   1.00
C734   C     0.08476   0.61464   0.51991   0.00000  Uiso   1.00
C735   C     0.36613   0.83085   0.48646   0.00000  Uiso   1.00
C736   C     0.41692   0.88676   0.51209   0.00000  Uiso   1.00
C737   C     0.13211   0.66767   0.47912   0.00000  Uiso   1.00
C738   C     0.12466   0.91022   0.46663   0.00000  Uiso   1.00
C739   C     0.36976   0.59637   0.53896   0.00000  Uiso   1.00
C740   C     0.35427   0.61652   0.45839   0.00000  Uiso   1.00
C741   C     0.15368   0.87494   0.53676   0.00000  Uiso   1.00
C742   C     0.38387   0.91915   0.51354   0.00000  Uiso   1.00
C743   C     0.43905   0.69233   0.50060   0.00000  Uiso   1.00
C744   C     0.16524   0.63536   0.48009   0.00000  Uiso   1.00
C745   C     0.11789   0.58233   0.52088   0.00000  Uiso   1.00
C746   C     0.33308   0.86324   0.48791   0.00000  Uiso   1.00
C747   C     0.09498   0.84073   0.49776   0.00000  Uiso   1.00
C748   C     0.40347   0.66080   0.50178   0.00000  Uiso   1.00
C749   C     0.40718   0.84286   0.49987   0.00000  Uiso   1.00
C750   C     0.09288   0.65721   0.50036   0.00000  Uiso   1.00
C751   C     0.34653   0.58920   0.49822   0.00000  Uiso   1.00
C752   C     0.15502   0.90927   0.50224   0.00000  Uiso   1.00
C753   C     0.15712   0.59279   0.49964   0.00000  Uiso   1.00
C754   C     0.05998   0.80874   0.49930   0.00000  Uiso   1.00
C755   C     0.34282   0.90714   0.50013   0.00000  Uiso   1.00
C756   C     0.00104   0.66733   0.38494   0.00000  Uiso   1.00
C757   C     0.00737   0.83271   0.61614   0.00000  Uiso   1.00
C758   C     0.48690   0.83226   0.38037   0.00000  Uiso   1.00
C759   C     0.01074   0.66734   0.61940   0.00000  Uiso   1.00
C760   C     0.24266   0.91729   0.38387   0.00000  Uiso   1.00
C761   C     0.24895   0.58267   0.61506   0.00000  Uiso   1.00
C762   C     0.23925   0.58265   0.38060   0.00000  Uiso   1.00
C763   C     0.26309   0.91773   0.61963   0.00000  Uiso   1.00
C764   C     0.30925   0.94063   0.50010   0.00000  Uiso   1.00
C765   C     0.19081   0.55943   0.49989   0.00000  Uiso   1.00
C766   C     0.19002   0.94126   0.50069   0.00000  Uiso   1.00
C767   C     0.31095   0.55767   0.49940   0.00000  Uiso   1.00
C768   C     0.00235   0.71056   0.35910   0.00000  Uiso   1.00
Cu769  Cu    0.00000   0.75000   0.54689   0.00000  Uiso   1.00
Cu770  Cu    0.00000   0.75000   0.45311   0.00000  Uiso   1.00
Cu771  Cu    0.25000   0.50000   0.54689   0.00000  Uiso   1.00
Cu772  Cu    0.25000   0.50000   0.45311   0.00000  Uiso   1.00
H773   H     0.02941   0.65377   0.40125   0.00000  Uiso   1.00
H774   H     0.11996   0.77684   0.55074   0.00000  Uiso   1.00
H775   H     0.07659   0.85000   0.40783   0.00000  Uiso   1.00
H776   H     0.40578   0.67192   0.59214   0.00000  Uiso   1.00
H777   H     0.03876   0.57265   0.53272   0.00000  Uiso   1.00
H778   H     0.33601   0.78798   0.44966   0.00000  Uiso   1.00
H779   H     0.46369   0.92909   0.51234   0.00000  Uiso   1.00
H780   H     0.15787   0.70679   0.43216   0.00000  Uiso   1.00
H781   H     0.13004   0.97316   0.44926   0.00000  Uiso   1.00
H782   H     0.36565   0.53692   0.56644   0.00000  Uiso   1.00
H783   H     0.34422   0.57808   0.40786   0.00000  Uiso   1.00
H784   H     0.48886   0.84336   0.58682   0.00000  Uiso   1.00
H785   H     0.17340   0.90001   0.59217   0.00000  Uiso   1.00
H786   H     0.41401   0.96203   0.55032   0.00000  Uiso   1.00
H787   H     0.21124   0.67735   0.46727   0.00000  Uiso   1.00
H788   H     0.09212   0.54321   0.56783   0.00000  Uiso   1.00
H789   H     0.28631   0.82090   0.48763   0.00000  Uiso   1.00
H790   H     0.00020   0.83975   0.41324   0.00000  Uiso   1.00
H791   H     0.49423   0.65921   0.58850   0.00000  Uiso   1.00
H792   H     0.26126   0.90660   0.41311   0.00000  Uiso   1.00
H793   H     0.22057   0.59623   0.59876   0.00000  Uiso   1.00
H794   H     0.25578   0.59080   0.41150   0.00000  Uiso   1.00
H795   H     0.24979   0.91025   0.58676   0.00000  Uiso   1.00
H796   H     0.38435   0.71308   0.43356   0.00000  Uiso   1.00
N797   N     0.00000   0.75000   0.61736   0.00000  Uiso   1.00
N798   N     0.00000   0.75000   0.38264   0.00000  Uiso   1.00
N799   N     0.25000   0.50000   0.61736   0.00000  Uiso   1.00
N800   N     0.25000   0.50000   0.38264   0.00000  Uiso   1.00
O801   O     0.04509   0.70491   0.53958   0.00000  Uiso   1.00
O802   O     0.20492   0.54509   0.46042   0.00000  Uiso   1.00
O803   O     0.20492   0.54509   0.53958   0.00000  Uiso   1.00
O804   O     0.29509   0.95491   0.46042   0.00000  Uiso   1.00
O805   O     0.20492   0.95491   0.46042   0.00000  Uiso   1.00
O806   O     0.29509   0.54509   0.53958   0.00000  Uiso   1.00
O807   O     0.29509   0.54509   0.46042   0.00000  Uiso   1.00
O808   O     0.20492   0.95491   0.53958   0.00000  Uiso   1.00
O809   O     0.46862   0.64501   0.38534   0.00000  Uiso   1.00
O810   O     0.03538   0.85754   0.62896   0.00000  Uiso   1.00
O811   O     0.46233   0.85976   0.36309   0.00000  Uiso   1.00
O812   O     0.45492   0.79509   0.46042   0.00000  Uiso   1.00
O813   O     0.03696   0.64021   0.63423   0.00000  Uiso   1.00
O814   O     0.21458   0.89251   0.37113   0.00000  Uiso   1.00
O815   O     0.28137   0.60499   0.61466   0.00000  Uiso   1.00
O816   O     0.21303   0.60978   0.36578   0.00000  Uiso   1.00
O817   O     0.28765   0.89022   0.63692   0.00000  Uiso   1.00
O818   O     0.38230   0.68195   0.42266   0.00000  Uiso   1.00
O819   O     0.12852   0.80495   0.56553   0.00000  Uiso   1.00
O820   O     0.06882   0.87629   0.42672   0.00000  Uiso   1.00
O821   O     0.41428   0.64105   0.58352   0.00000  Uiso   1.00
O822   O     0.04381   0.60522   0.53528   0.00000  Uiso   1.00
O823   O     0.45492   0.79509   0.53958   0.00000  Uiso   1.00
O824   O     0.35963   0.78762   0.47207   0.00000  Uiso   1.00
O825   O     0.45900   0.89704   0.52033   0.00000  Uiso   1.00
O826   O     0.13679   0.70934   0.45781   0.00000  Uiso   1.00
O827   O     0.12148   0.94505   0.43447   0.00000  Uiso   1.00
O828   O     0.36770   0.56805   0.57734   0.00000  Uiso   1.00
O829   O     0.33572   0.60895   0.41648   0.00000  Uiso   1.00
O830   O     0.18118   0.87371   0.57329   0.00000  Uiso   1.00
O831   O     0.39037   0.96238   0.52792   0.00000  Uiso   1.00
O832   O     0.20619   0.64478   0.46472   0.00000  Uiso   1.00
O833   O     0.11321   0.54066   0.54219   0.00000  Uiso   1.00
O834   O     0.04509   0.70491   0.46042   0.00000  Uiso   1.00
O835   O     0.29100   0.85296   0.47967   0.00000  Uiso   1.00
O836   O     0.45492   0.70491   0.46042   0.00000  Uiso   1.00
O837   O     0.04509   0.79509   0.53958   0.00000  Uiso   1.00
O838   O     0.04509   0.79509   0.46042   0.00000  Uiso   1.00
O839   O     0.45492   0.70491   0.53958   0.00000  Uiso   1.00
O840   O     0.29509   0.95491   0.53958   0.00000  Uiso   1.00
C841   C     0.55919   0.69057   0.50011   0.00000  Uiso   1.00
C842   C     0.99962   0.78953   0.64104   0.00000  Uiso   1.00
C843   C     0.99668   0.78944   0.35712   0.00000  Uiso   1.00
C844   C     0.50313   0.71046   0.64291   0.00000  Uiso   1.00
C845   C     0.75039   0.96048   0.35896   0.00000  Uiso   1.00
C846   C     0.74765   0.53944   0.64090   0.00000  Uiso   1.00
C847   C     0.74687   0.53954   0.35709   0.00000  Uiso   1.00
C848   C     0.75332   0.96056   0.64288   0.00000  Uiso   1.00
C849   C     0.88024   0.65363   0.46104   0.00000  Uiso   1.00
C850   C     0.62534   0.83978   0.53337   0.00000  Uiso   1.00
C851   C     0.59632   0.87506   0.46324   0.00000  Uiso   1.00
C852   C     0.94075   0.80937   0.49990   0.00000  Uiso   1.00
C853   C     0.89574   0.63348   0.54161   0.00000  Uiso   1.00
C854   C     0.58476   0.61464   0.51991   0.00000  Uiso   1.00
C855   C     0.86613   0.83085   0.48646   0.00000  Uiso   1.00
C856   C     0.91692   0.88676   0.51209   0.00000  Uiso   1.00
C857   C     0.63211   0.66767   0.47912   0.00000  Uiso   1.00
C858   C     0.62466   0.91022   0.46663   0.00000  Uiso   1.00
C859   C     0.86976   0.59637   0.53896   0.00000  Uiso   1.00
C860   C     0.85427   0.61652   0.45839   0.00000  Uiso   1.00
C861   C     0.65368   0.87494   0.53676   0.00000  Uiso   1.00
C862   C     0.88387   0.91915   0.51354   0.00000  Uiso   1.00
C863   C     0.93905   0.69233   0.50060   0.00000  Uiso   1.00
C864   C     0.66524   0.63536   0.48009   0.00000  Uiso   1.00
C865   C     0.61789   0.58233   0.52088   0.00000  Uiso   1.00
C866   C     0.83308   0.86324   0.48791   0.00000  Uiso   1.00
C867   C     0.59498   0.84073   0.49776   0.00000  Uiso   1.00
C868   C     0.90347   0.66080   0.50178   0.00000  Uiso   1.00
C869   C     0.90718   0.84286   0.49987   0.00000  Uiso   1.00
C870   C     0.59288   0.65721   0.50036   0.00000  Uiso   1.00
C871   C     0.84653   0.58920   0.49822   0.00000  Uiso   1.00
C872   C     0.65502   0.90927   0.50224   0.00000  Uiso   1.00
C873   C     0.65712   0.59279   0.49964   0.00000  Uiso   1.00
C874   C     0.55998   0.80874   0.49930   0.00000  Uiso   1.00
C875   C     0.84282   0.90714   0.50013   0.00000  Uiso   1.00
C876   C     0.50104   0.66733   0.38494   0.00000  Uiso   1.00
C877   C     0.50737   0.83271   0.61614   0.00000  Uiso   1.00
C878   C     0.98690   0.83226   0.38037   0.00000  Uiso   1.00
C879   C     0.51074   0.66734   0.61940   0.00000  Uiso   1.00
C880   C     0.74266   0.91729   0.38387   0.00000  Uiso   1.00
C881   C     0.74895   0.58267   0.61506   0.00000  Uiso   1.00
C882   C     0.73925   0.58265   0.38060   0.00000  Uiso   1.00
C883   C     0.76309   0.91773   0.61963   0.00000  Uiso   1.00
C884   C     0.80925   0.94063   0.50010   0.00000  Uiso   1.00
C885   C     0.69081   0.55943   0.49989   0.00000  Uiso   1.00
C886   C     0.69002   0.94126   0.50069   0.00000  Uiso   1.00
C887   C     0.81095   0.55767   0.49940   0.00000  Uiso   1.00
C888   C     0.50235   0.71056   0.35910   0.00000  Uiso   1.00
Cu889  Cu    0.50000   0.75000   0.54689   0.00000  Uiso   1.00
Cu890  Cu    0.50000   0.75000   0.45311   0.00000  Uiso   1.00
Cu891  Cu    0.75000   0.50000   0.54689   0.00000  Uiso   1.00
Cu892  Cu    0.75000   0.50000   0.45311   0.00000  Uiso   1.00
H893   H     0.52941   0.65377   0.40125   0.00000  Uiso   1.00
H894   H     0.61996   0.77684   0.55074   0.00000  Uiso   1.00
H895   H     0.57659   0.85000   0.40783   0.00000  Uiso   1.00
H896   H     0.90578   0.67192   0.59214   0.00000  Uiso   1.00
H897   H     0.53876   0.57265   0.53272   0.00000  Uiso   1.00
H898   H     0.83601   0.78798   0.44966   0.00000  Uiso   1.00
H899   H     0.96369   0.92909   0.51234   0.00000  Uiso   1.00
H900   H     0.65787   0.70679   0.43216   0.00000  Uiso   1.00
H901   H     0.63004   0.97316   0.44926   0.00000  Uiso   1.00
H902   H     0.86565   0.53692   0.56644   0.00000  Uiso   1.00
H903   H     0.84422   0.57808   0.40786   0.00000  Uiso   1.00
H904   H     0.98886   0.84336   0.58682   0.00000  Uiso   1.00
H905   H     0.67340   0.90001   0.59217   0.00000  Uiso   1.00
H906   H     0.91401   0.96203   0.55032   0.00000  Uiso   1.00
H907   H     0.71124   0.67735   0.46727   0.00000  Uiso   1.00
H908   H     0.59212   0.54321   0.56783   0.00000  Uiso   1.00
H909   H     0.78631   0.82090   0.48763   0.00000  Uiso   1.00
H910   H     0.50020   0.83975   0.41324   0.00000  Uiso   1.00
H911   H     0.99423   0.65921   0.58850   0.00000  Uiso   1.00
H912   H     0.76126   0.90660   0.41311   0.00000  Uiso   1.00
H913   H     0.72057   0.59623   0.59876   0.00000  Uiso   1.00
H914   H     0.75578   0.59080   0.41150   0.00000  Uiso   1.00
H915   H     0.74979   0.91025   0.58676   0.00000  Uiso   1.00
H916   H     0.88435   0.71308   0.43356   0.00000  Uiso   1.00
N917   N     0.50000   0.75000   0.61736   0.00000  Uiso   1.00
N918   N     0.50000   0.75000   0.38264   0.00000  Uiso   1.00
N919   N     0.75000   0.50000   0.61736   0.00000  Uiso   1.00
N920   N     0.75000   0.50000   0.38264   0.00000  Uiso   1.00
O921   O     0.54509   0.70491   0.53958   0.00000  Uiso   1.00
O922   O     0.70492   0.54509   0.46042   0.00000  Uiso   1.00
O923   O     0.70492   0.54509   0.53958   0.00000  Uiso   1.00
O924   O     0.79509   0.95491   0.46042   0.00000  Uiso   1.00
O925   O     0.70492   0.95491   0.46042   0.00000  Uiso   1.00
O926   O     0.79509   0.54509   0.53958   0.00000  Uiso   1.00
O927   O     0.79509   0.54509   0.46042   0.00000  Uiso   1.00
O928   O     0.70492   0.95491   0.53958   0.00000  Uiso   1.00
O929   O     0.96862   0.64501   0.38534   0.00000  Uiso   1.00
O930   O     0.53538   0.85754   0.62896   0.00000  Uiso   1.00
O931   O     0.96233   0.85976   0.36309   0.00000  Uiso   1.00
O932   O     0.95492   0.79509   0.46042   0.00000  Uiso   1.00
O933   O     0.53696   0.64021   0.63423   0.00000  Uiso   1.00
O934   O     0.71458   0.89251   0.37113   0.00000  Uiso   1.00
O935   O     0.78137   0.60499   0.61466   0.00000  Uiso   1.00
O936   O     0.71303   0.60978   0.36578   0.00000  Uiso   1.00
O937   O     0.78765   0.89022   0.63692   0.00000  Uiso   1.00
O938   O     0.88230   0.68195   0.42266   0.00000  Uiso   1.00
O939   O     0.62852   0.80495   0.56553   0.00000  Uiso   1.00
O940   O     0.56882   0.87629   0.42672   0.00000  Uiso   1.00
O941   O     0.91428   0.64105   0.58352   0.00000  Uiso   1.00
O942   O     0.54381   0.60522   0.53528   0.00000  Uiso   1.00
O943   O     0.95492   0.79509   0.53958   0.00000  Uiso   1.00
O944   O     0.85963   0.78762   0.47207   0.00000  Uiso   1.00
O945   O     0.95900   0.89704   0.52033   0.00000  Uiso   1.00
O946   O     0.63679   0.70934   0.45781   0.00000  Uiso   1.00
O947   O     0.62148   0.94505   0.43447   0.00000  Uiso   1.00
O948   O     0.86770   0.56805   0.57734   0.00000  Uiso   1.00
O949   O     0.83572   0.60895   0.41648   0.00000  Uiso   1.00
O950   O     0.68118   0.87371   0.57329   0.00000  Uiso   1.00
O951   O     0.89037   0.96238   0.52792   0.00000  Uiso   1.00
O952   O     0.70619   0.64478   0.46472   0.00000  Uiso   1.00
O953   O     0.61321   0.54066   0.54219   0.00000  Uiso   1.00
O954   O     0.54509   0.70491   0.46042   0.00000  Uiso   1.00
O955   O     0.79100   0.85296   0.47967   0.00000  Uiso   1.00
O956   O     0.95492   0.70491   0.46042   0.00000  Uiso   1.00
O957   O     0.54509   0.79509   0.53958   0.00000  Uiso   1.00
O958   O     0.54509   0.79509   0.46042   0.00000  Uiso   1.00
O959   O     0.95492   0.70491   0.53958   0.00000  Uiso   1.00
O960   O     0.79509   0.95491   0.53958   0.00000  Uiso   1.00
C961   C     0.05919   0.19057   0.83345   0.00000  Uiso   1.00
C962   C     0.49962   0.28953   0.97437   0.00000  Uiso   1.00
C963   C     0.49668   0.28944   0.69045   0.00000  Uiso   1.00
C964   C     0.00313   0.21046   0.97624   0.00000  Uiso   1.00
C965   C     0.25039   0.46048   0.69230   0.00000  Uiso   1.00
C966   C     0.24765   0.03944   0.97423   0.00000  Uiso   1.00
C967   C     0.24687   0.03954   0.69042   0.00000  Uiso   1.00
C968   C     0.25332   0.46056   0.97622   0.00000  Uiso   1.00
C969   C     0.38024   0.15363   0.79437   0.00000  Uiso   1.00
C970   C     0.12534   0.33978   0.86670   0.00000  Uiso   1.00
C971   C     0.09632   0.37506   0.79657   0.00000  Uiso   1.00
C972   C     0.44075   0.30937   0.83323   0.00000  Uiso   1.00
C973   C     0.39574   0.13348   0.87494   0.00000  Uiso   1.00
C974   C     0.08476   0.11464   0.85324   0.00000  Uiso   1.00
C975   C     0.36613   0.33085   0.81979   0.00000  Uiso   1.00
C976   C     0.41692   0.38676   0.84543   0.00000  Uiso   1.00
C977   C     0.13211   0.16767   0.81245   0.00000  Uiso   1.00
C978   C     0.12466   0.41022   0.79996   0.00000  Uiso   1.00
C979   C     0.36976   0.09637   0.87229   0.00000  Uiso   1.00
C980   C     0.35427   0.11652   0.79173   0.00000  Uiso   1.00
C981   C     0.15368   0.37494   0.87009   0.00000  Uiso   1.00
C982   C     0.38387   0.41915   0.84687   0.00000  Uiso   1.00
C983   C     0.43905   0.19233   0.83393   0.00000  Uiso   1.00
C984   C     0.16524   0.13536   0.81343   0.00000  Uiso   1.00
C985   C     0.11789   0.08233   0.85422   0.00000  Uiso   1.00
C986   C     0.33308   0.36324   0.82124   0.00000  Uiso   1.00
C987   C     0.09498   0.34073   0.83109   0.00000  Uiso   1.00
C988   C     0.40347   0.16080   0.83512   0.00000  Uiso   1.00
C989   C     0.40718   0.34286   0.83321   0.00000  Uiso   1.00
C990   C     0.09288   0.15721   0.83370   0.00000  Uiso   1.00
C991   C     0.34653   0.08920   0.83155   0.00000  Uiso   1.00
C992   C     0.15502   0.40927   0.83557   0.00000  Uiso   1.00
C993   C     0.15712   0.09279   0.83297   0.00000  Uiso   1.00
C994   C     0.05998   0.30874   0.83264   0.00000  Uiso   1.00
C995   C     0.34282   0.40714   0.83346   0.00000  Uiso   1.00
C996   C     0.00104   0.16733   0.71827   0.00000  Uiso   1.00
C997   C     0.00737   0.33271   0.94947   0.00000  Uiso   1.00
C998   C     0.48690   0.33226   0.71371   0.00000  Uiso   1.00
C999   C     0.01074   0.16734   0.95274   0.00000  Uiso   1.00
C1000  C     0.24266   0.41729   0.71720   0.00000  Uiso   1.00
C1001  C     0.24895   0.08267   0.94839   0.00000  Uiso   1.00
C1002  C     0.23925   0.08265   0.71393   0.00000  Uiso   1.00
C1003  C     0.26309   0.41773   0.95296   0.00000  Uiso   1.00
C1004  C     0.30925   0.44063   0.83343   0.00000  Uiso   1.00
C1005  C     0.19081   0.05943   0.83322   0.00000  Uiso   1.00
C1006  C     0.19002   0.44126   0.83403   0.00000  Uiso   1.00
C1007  C     0.31095   0.05767   0.83274   0.00000  Uiso   1.00
C1008  C     0.00235   0.21056   0.69244   0.00000  Uiso   1.00
Cu1009 Cu    0.00000   0.25000   0.88022   0.00000  Uiso   1.00
Cu1010 Cu    0.00000   0.25000   0.78645   0.00000  Uiso   1.00
Cu1011 Cu    0.25000   0.00000   0.88022   0.00000  Uiso   1.00
Cu1012 Cu    0.25000   0.00000   0.78645   0.00000  Uiso   1.00
H1013  H     0.02941   0.15377   0.73459   0.00000  Uiso   1.00
H1014  H     0.11996   0.27684   0.88408   0.00000  Uiso   1.00
H1015  H     0.07659   0.35000   0.74117   0.00000  Uiso   1.00
H1016  H     0.40578   0.17192   0.92548   0.00000  Uiso   1.00
H1017  H     0.03876   0.07265   0.86605   0.00000  Uiso   1.00
H1018  H     0.33601   0.28798   0.78300   0.00000  Uiso   1.00
H1019  H     0.46369   0.42909   0.84568   0.00000  Uiso   1.00
H1020  H     0.15787   0.20679   0.76550   0.00000  Uiso   1.00
H1021  H     0.13004   0.47316   0.78259   0.00000  Uiso   1.00
H1022  H     0.36565   0.03692   0.89977   0.00000  Uiso   1.00
H1023  H     0.34422   0.07808   0.74119   0.00000  Uiso   1.00
H1024  H     0.48886   0.34336   0.92015   0.00000  Uiso   1.00
H1025  H     0.17340   0.40001   0.92550   0.00000  Uiso   1.00
H1026  H     0.41401   0.46203   0.88365   0.00000  Uiso   1.00
H1027  H     0.21124   0.17735   0.80060   0.00000  Uiso   1.00
H1028  H     0.09212   0.04321   0.90117   0.00000  Uiso   1.00
H1029  H     0.28631   0.32090   0.82097   0.00000  Uiso   1.00
H1030  H     0.00020   0.33975   0.74657   0.00000  Uiso   1.00
H1031  H     0.49423   0.15921   0.92183   0.00000  Uiso   1.00
H1032  H     0.26126   0.40660   0.74644   0.00000  Uiso   1.00
H1033  H     0.22057   0.09623   0.93209   0.00000  Uiso   1.00
H1034  H     0.25578   0.09080   0.74483   0.00000  Uiso   1.00
H1035  H     0.24979   0.41025   0.92009   0.00000  Uiso   1.00
H1036  H     0.38435   0.21308   0.76689   0.00000  Uiso   1.00
N1037  N     0.00000   0.25000   0.95069   0.00000  Uiso   1.00
N1038  N     0.00000   0.25000   0.71598   0.00000  Uiso   1.00
N1039  N     0.25000   0.00000   0.95069   0.00000  Uiso   1.00
N1040  N     0.25000   0.00000   0.71598   0.00000  Uiso   1.00
O1041  O     0.04509   0.20491   0.87291   0.00000  Uiso   1.00
O1042  O     0.20492   0.04509   0.79375   0.00000  Uiso   1.00
O1043  O     0.20492   0.04509   0.87291   0.00000  Uiso   1.00
O1044  O     0.29509   0.45491   0.79375   0.00000  Uiso   1.00
O1045  O     0.20492   0.45491   0.79375   0.00000  Uiso   1.00
O1046  O     0.29509   0.04509   0.87291   0.00000  Uiso   1.00
O1047  O     0.29509   0.04509   0.79375   0.00000  Uiso   1.00
O1048  O     0.20492   0.45491   0.87291   0.00000  Uiso   1.00
O1049  O     0.46862   0.14501   0.71867   0.00000  Uiso   1.00
O1050  O     0.03538   0.35754   0.96229   0.00000  Uiso   1.00
O1051  O     0.46233   0.35976   0.69642   0.00000  Uiso   1.00
O1052  O     0.45492   0.29509   0.79375   0.00000  Uiso   1.00
O1053  O     0.03696   0.14021   0.96756   0.00000  Uiso   1.00
O1054  O     0.21458   0.39251   0.70446   0.00000  Uiso   1.00
O1055  O     0.28137   0.10499   0.94799   0.00000  Uiso   1.00
O1056  O     0.21303   0.10978   0.69911   0.00000  Uiso   1.00
O1057  O     0.28765   0.39022   0.97025   0.00000  Uiso   1.00
O1058  O     0.38230   0.18195   0.75600   0.00000  Uiso   1.00
O1059  O     0.12852   0.30495   0.89887   0.00000  Uiso   1.00
O1060  O     0.06882   0.37629   0.76005   0.00000  Uiso   1.00
O1061  O     0.41428   0.14105   0.91685   0.00000  Uiso   1.00
O1062  O     0.04381   0.10522   0.86861   0.00000  Uiso   1.00
O1063  O     0.45492   0.29509   0.87291   0.00000  Uiso   1.00
O1064  O     0.35963   0.28762   0.80541   0.00000  Uiso   1.00
O1065  O     0.45900   0.39704   0.85367   0.00000  Uiso   1.00
O1066  O     0.13679   0.20934   0.79115   0.00000  Uiso   1.00
O1067  O     0.12148   0.44505   0.76780   0.00000  Uiso   1.00
O1068  O     0.36770   0.06805   0.91067   0.00000  Uiso   1.00
O1069  O     0.33572   0.10895   0.74981   0.00000  Uiso   1.00
O1070  O     0.18118   0.37371   0.90662   0.00000  Uiso   1.00
O1071  O     0.39037   0.46238   0.86126   0.00000  Uiso   1.00
O1072  O     0.20619   0.14478   0.79805   0.00000  Uiso   1.00
O1073  O     0.11321   0.04066   0.87552   0.00000  Uiso   1.00
O1074  O     0.04509   0.20491   0.79375   0.00000  Uiso   1.00
O1075  O     0.29100   0.35296   0.81301   0.00000  Uiso   1.00
O1076  O     0.45492   0.20491   0.79375   0.00000  Uiso   1.00
O1077  O     0.04509   0.29509   0.87291   0.00000  Uiso   1.00
O1078  O     0.04509   0.29509   0.79375   0.00000  Uiso   1.00
O1079  O     0.45492   0.20491   0.87291   0.00000  Uiso   1.00
O1080  O     0.29509   0.45491   0.87291   0.00000  Uiso   1.00
C1081  C     0.55919   0.19057   0.83345   0.00000  Uiso   1.00
C1082  C     0.99962   0.28953   0.97437   0.00000  Uiso   1.00
C1083  C     0.99668   0.28944   0.69045   0.00000  Uiso   1.00
C1084  C     0.50313   0.21046   0.97624   0.00000  Uiso   1.00
C1085  C     0.75039   0.46048   0.69230   0.00000  Uiso   1.00
C1086  C     0.74765   0.03944   0.97423   0.00000  Uiso   1.00
C1087  C     0.74687   0.03954   0.69042   0.00000  Uiso   1.00
C1088  C     0.75332   0.46056   0.97622   0.00000  Uiso   1.00
C1089  C     0.88024   0.15363   0.79437   0.00000  Uiso   1.00
C1090  C     0.62534   0.33978   0.86670   0.00000  Uiso   1.00
C1091  C     0.59632   0.37506   0.79657   0.00000  Uiso   1.00
C1092  C     0.94075   0.30937   0.83323   0.00000  Uiso   1.00
C1093  C     0.89574   0.13348   0.87494   0.00000  Uiso   1.00
C1094  C     0.58476   0.11464   0.85324   0.00000  Uiso   1.00
C1095  C     0.86613   0.33085   0.81979   0.00000  Uiso   1.00
C1096  C     0.91692   0.38676   0.84543   0.00000  Uiso   1.00
C1097  C     0.63211   0.16767   0.81245   0.00000  Uiso   1.00
C1098  C     0.62466   0.41022   0.79996   0.00000  Uiso   1.00
C1099  C     0.86976   0.09637   0.87229   0.00000  Uiso   1.00
C1100  C     0.85427   0.11652   0.79173   0.00000  Uiso   1.00
C1101  C     0.65368   0.37494   0.87009   0.00000  Uiso   1.00
C1102  C     0.88387   0.41915   0.84687   0.00000  Uiso   1.00
C1103  C     0.93905   0.19233   0.83393   0.00000  Uiso   1.00
C1104  C     0.66524   0.13536   0.81343   0.00000  Uiso   1.00
C1105  C     0.61789   0.08233   0.85422   0.00000  Uiso   1.00
C1106  C     0.83308   0.36324   0.82124   0.00000  Uiso   1.00
C1107  C     0.59498   0.34073   0.83109   0.00000  Uiso   1.00
C1108  C     0.90347   0.16080   0.83512   0.00000  Uiso   1.00
C1109  C     0.90718   0.34286   0.83321   0.00000  Uiso   1.00
C1110  C     0.59288   0.15721   0.83370   0.00000  Uiso   1.00
C1111  C     0.84653   0.08920   0.83155   0.00000  Uiso   1.00
C1112  C     0.65502   0.40927   0.83557   0.00000  Uiso   1.00
C1113  C     0.65712   0.09279   0.83297   0.00000  Uiso   1.00
C1114  C     0.55998   0.30874   0.83264   0.00000  Uiso   1.00
C1115  C     0.84282   0.40714   0.83346   0.00000  Uiso   1.00
C1116  C     0.50104   0.16733   0.71827   0.00000  Uiso   1.00
C1117  C     0.50737   0.33271   0.94947   0.00000  Uiso   1.00
C1118  C     0.98690   0.33226   0.71371   0.00000  Uiso   1.00
C1119  C     0.51074   0.16734   0.95274   0.00000  Uiso   1.00
C1120  C     0.74266   0.41729   0.71720   0.00000  Uiso   1.00
C1121  C     0.74895   0.08267   0.94839   0.00000  Uiso   1.00
C1122  C     0.73925   0.08265   0.71393   0.00000  Uiso   1.00
C1123  C     0.76309   0.41773   0.95296   0.00000  Uiso   1.00
C1124  C     0.80925   0.44063   0.83343   0.00000  Uiso   1.00
C1125  C     0.69081   0.05943   0.83322   0.00000  Uiso   1.00
C1126  C     0.69002   0.44126   0.83403   0.00000  Uiso   1.00
C1127  C     0.81095   0.05767   0.83274   0.00000  Uiso   1.00
C1128  C     0.50235   0.21056   0.69244   0.00000  Uiso   1.00
Cu1129 Cu    0.50000   0.25000   0.88022   0.00000  Uiso   1.00
Cu1130 Cu    0.50000   0.25000   0.78645   0.00000  Uiso   1.00
Cu1131 Cu    0.75000   0.00000   0.88022   0.00000  Uiso   1.00
Cu1132 Cu    0.75000   0.00000   0.78645   0.00000  Uiso   1.00
H1133  H     0.52941   0.15377   0.73459   0.00000  Uiso   1.00
H1134  H     0.61996   0.27684   0.88408   0.00000  Uiso   1.00
H1135  H     0.57659   0.35000   0.74117   0.00000  Uiso   1.00
H1136  H     0.90578   0.17192   0.92548   0.00000  Uiso   1.00
H1137  H     0.53876   0.07265   0.86605   0.00000  Uiso   1.00
H1138  H     0.83601   0.28798   0.78300   0.00000  Uiso   1.00
H1139  H     0.96369   0.42909   0.84568   0.00000  Uiso   1.00
H1140  H     0.65787   0.20679   0.76550   0.00000  Uiso   1.00
H1141  H     0.63004   0.47316   0.78259   0.00000  Uiso   1.00
H1142  H     0.86565   0.03692   0.89977   0.00000  Uiso   1.00
H1143  H     0.84422   0.07808   0.74119   0.00000  Uiso   1.00
H1144  H     0.98886   0.34336   0.92015   0.00000  Uiso   1.00
H1145  H     0.67340   0.40001   0.92550   0.00000  Uiso   1.00
H1146  H     0.91401   0.46203   0.88365   0.00000  Uiso   1.00
H1147  H     0.71124   0.17735   0.80060   0.00000  Uiso   1.00
H1148  H     0.59212   0.04321   0.90117   0.00000  Uiso   1.00
H1149  H     0.78631   0.32090   0.82097   0.00000  Uiso   1.00
H1150  H     0.50020   0.33975   0.74657   0.00000  Uiso   1.00
H1151  H     0.99423   0.15921   0.92183   0.00000  Uiso   1.00
H1152  H     0.76126   0.40660   0.74644   0.00000  Uiso   1.00
H1153  H     0.72057   0.09623   0.93209   0.00000  Uiso   1.00
H1154  H     0.75578   0.09080   0.74483   0.00000  Uiso   1.00
H1155  H     0.74979   0.41025   0.92009   0.00000  Uiso   1.00
H1156  H     0.88435   0.21308   0.76689   0.00000  Uiso   1.00
N1157  N     0.50000   0.25000   0.95069   0.00000  Uiso   1.00
N1158  N     0.50000   0.25000   0.71598   0.00000  Uiso   1.00
N1159  N     0.75000   0.00000   0.95069   0.00000  Uiso   1.00
N1160  N     0.75000   0.00000   0.71598   0.00000  Uiso   1.00
O1161  O     0.54509   0.20491   0.87291   0.00000  Uiso   1.00
O1162  O     0.70492   0.04509   0.79375   0.00000  Uiso   1.00
O1163  O     0.70492   0.04509   0.87291   0.00000  Uiso   1.00
O1164  O     0.79509   0.45491   0.79375   0.00000  Uiso   1.00
O1165  O     0.70492   0.45491   0.79375   0.00000  Uiso   1.00
O1166  O     0.79509   0.04509   0.87291   0.00000  Uiso   1.00
O1167  O     0.79509   0.04509   0.79375   0.00000  Uiso   1.00
O1168  O     0.70492   0.45491   0.87291   0.00000  Uiso   1.00
O1169  O     0.96862   0.14501   0.71867   0.00000  Uiso   1.00
O1170  O     0.53538   0.35754   0.96229   0.00000  Uiso   1.00
O1171  O     0.96233   0.35976   0.69642   0.00000  Uiso   1.00
O1172  O     0.95492   0.29509   0.79375   0.00000  Uiso   1.00
O1173  O     0.53696   0.14021   0.96756   0.00000  Uiso   1.00
O1174  O     0.71458   0.39251   0.70446   0.00000  Uiso   1.00
O1175  O     0.78137   0.10499   0.94799   0.00000  Uiso   1.00
O1176  O     0.71303   0.10978   0.69911   0.00000  Uiso   1.00
O1177  O     0.78765   0.39022   0.97025   0.00000  Uiso   1.00
O1178  O     0.88230   0.18195   0.75600   0.00000  Uiso   1.00
O1179  O     0.62852   0.30495   0.89887   0.00000  Uiso   1.00
O1180  O     0.56882   0.37629   0.76005   0.00000  Uiso   1.00
O1181  O     0.91428   0.14105   0.91685   0.00000  Uiso   1.00
O1182  O     0.54381   0.10522   0.86861   0.00000  Uiso   1.00
O1183  O     0.95492   0.29509   0.87291   0.00000  Uiso   1.00
O1184  O     0.85963   0.28762   0.80541   0.00000  Uiso   1.00
O1185  O     0.95900   0.39704   0.85367   0.00000  Uiso   1.00
O1186  O     0.63679   0.20934   0.79115   0.00000  Uiso   1.00
O1187  O     0.62148   0.44505   0.76780   0.00000  Uiso   1.00
O1188  O     0.86770   0.06805   0.91067   0.00000  Uiso   1.00
O1189  O     0.83572   0.10895   0.74981   0.00000  Uiso   1.00
O1190  O     0.68118   0.37371   0.90662   0.00000  Uiso   1.00
O1191  O     0.89037   0.46238   0.86126   0.00000  Uiso   1.00
O1192  O     0.70619   0.14478   0.79805   0.00000  Uiso   1.00
O1193  O     0.61321   0.04066   0.87552   0.00000  Uiso   1.00
O1194  O     0.54509   0.20491   0.79375   0.00000  Uiso   1.00
O1195  O     0.79100   0.35296   0.81301   0.00000  Uiso   1.00
O1196  O     0.95492   0.20491   0.79375   0.00000  Uiso   1.00
O1197  O     0.54509   0.29509   0.87291   0.00000  Uiso   1.00
O1198  O     0.54509   0.29509   0.79375   0.00000  Uiso   1.00
O1199  O     0.95492   0.20491   0.87291   0.00000  Uiso   1.00
O1200  O     0.79509   0.45491   0.87291   0.00000  Uiso   1.00
C1201  C     0.05919   0.69057   0.83345   0.00000  Uiso   1.00
C1202  C     0.49962   0.78953   0.97437   0.00000  Uiso   1.00
C1203  C     0.49668   0.78944   0.69045   0.00000  Uiso   1.00
C1204  C     0.00313   0.71046   0.97624   0.00000  Uiso   1.00
C1205  C     0.25039   0.96048   0.69230   0.00000  Uiso   1.00
C1206  C     0.24765   0.53944   0.97423   0.00000  Uiso   1.00
C1207  C     0.24687   0.53954   0.69042   0.00000  Uiso   1.00
C1208  C     0.25332   0.96056   0.97622   0.00000  Uiso   1.00
C1209  C     0.38024   0.65363   0.79437   0.00000  Uiso   1.00
C1210  C     0.12534   0.83978   0.86670   0.00000  Uiso   1.00
C1211  C     0.09632   0.87506   0.79657   0.00000  Uiso   1.00
C1212  C     0.44075   0.80937   0.83323   0.00000  Uiso   1.00
C1213  C     0.39574   0.63348   0.87494   0.00000  Uiso   1.00
C1214  C     0.08476   0.61464   0.85324   0.00000  Uiso   1.00
C1215  C     0.36613   0.83085   0.81979   0.00000  Uiso   1.00
C1216  C     0.41692   0.88676   0.84543   0.00000  Uiso   1.00
C1217  C     0.13211   0.66767   0.81245   0.00000  Uiso   1.00
C1218  C     0.12466   0.91022   0.79996   0.00000  Uiso   1.00
C1219  C     0.36976   0.59637   0.87229   0.00000  Uiso   1.00
C1220  C     0.35427   0.61652   0.79173   0.00000  Uiso   1.00
C1221  C     0.15368   0.87494   0.87009   0.00000  Uiso   1.00
C1222  C     0.38387   0.91915   0.84687   0.00000  Uiso   1.00
C1223  C     0.43905   0.69233   0.83393   0.00000  Uiso   1.00
C1224  C     0.16524   0.63536   0.81343   0.00000  Uiso   1.00
C1225  C     0.11789   0.58233   0.85422   0.00000  Uiso   1.00
C1226  C     0.33308   0.86324   0.82124   0.00000  Uiso   1.00
C1227  C     0.09498   0.84073   0.83109   0.00000  Uiso   1.00
C1228  C     0.40347   0.66080   0.83512   0.00000  Uiso   1.00
C1229  C     0.40718   0.84286   0.83321   0.00000  Uiso   1.00
C1230  C     0.09288   0.65721   0.83370   0.00000  Uiso   1.00
C1231  C     0.34653   0.58920   0.83155   0.00000  Uiso   1.00
C1232  C     0.15502   0.90927   0.83557   0.00000  Uiso   1.00
C1233  C     0.15712   0.59279   0.83297   0.00000  Uiso   1.00
C1234  C     0.05998   0.80874   0.83264   0.00000  Uiso   1.00
C1235  C     0.34282   0.90714   0.83346   0.00000  Uiso   1.00
C1236  C     0.00104   0.66733   0.71827   0.00000  Uiso   1.00
C1237  C     0.00737   0.83271   0.94947   0.00000  Uiso   1.00
C1238  C     0.48690   0.83226   0.71371   0.00000  Uiso   1.00
C1239  C     0.01074   0.66734   0.95274   0.00000  Uiso   1.00
C1240  C     0.24266   0.91729   0.71720   0.00000  Uiso   1.00
C1241  C     0.24895   0.58267   0.94839   0.00000  Uiso   1.00
C1242  C     0.23925   0.58265   0.71393   0.00000  Uiso   1.00
C1243  C     0.26309   0.91773   0.95296   0.00000  Uiso   1.00
C1244  C     0.30925   0.94063   0.83343   0.00000  Uiso   1.00
C1245  C     0.19081   0.55943   0.83322   0.00000  Uiso   1.00
C1246  C     0.19002   0.94126   0.83403   0.00000  Uiso   1.00
C1247  C     0.31095   0.55767   0.83274   0.00000  Uiso   1.00
C1248  C     0.00235   0.71056   0.69244   0.00000  Uiso   1.00
Cu1249 Cu    0.00000   0.75000   0.88022   0.00000  Uiso   1.00
Cu1250 Cu    0.00000   0.75000   0.78645   0.00000  Uiso   1.00
Cu1251 Cu    0.25000   0.50000   0.88022   0.00000  Uiso   1.00
Cu1252 Cu    0.25000   0.50000   0.78645   0.00000  Uiso   1.00
H1253  H     0.02941   0.65377   0.73459   0.00000  Uiso   1.00
H1254  H     0.11996   0.77684   0.88408   0.00000  Uiso   1.00
H1255  H     0.07659   0.85000   0.74117   0.00000  Uiso   1.00
H1256  H     0.40578   0.67192   0.92548   0.00000  Uiso   1.00
H1257  H     0.03876   0.57265   0.86605   0.00000  Uiso   1.00
H1258  H     0.33601   0.78798   0.78300   0.00000  Uiso   1.00
H1259  H     0.46369   0.92909   0.84568   0.00000  Uiso   1.00
H1260  H     0.15787   0.70679   0.76550   0.00000  Uiso   1.00
H1261  H     0.13004   0.97316   0.78259   0.00000  Uiso   1.00
H1262  H     0.36565   0.53692   0.89977   0.00000  Uiso   1.00
H1263  H     0.34422   0.57808   0.74119   0.00000  Uiso   1.00
H1264  H     0.48886   0.84336   0.92015   0.00000  Uiso   1.00
H1265  H     0.17340   0.90001   0.92550   0.00000  Uiso   1.00
H1266  H     0.41401   0.96203   0.88365   0.00000  Uiso   1.00
H1267  H     0.21124   0.67735   0.80060   0.00000  Uiso   1.00
H1268  H     0.09212   0.54321   0.90117   0.00000  Uiso   1.00
H1269  H     0.28631   0.82090   0.82097   0.00000  Uiso   1.00
H1270  H     0.00020   0.83975   0.74657   0.00000  Uiso   1.00
H1271  H     0.49423   0.65921   0.92183   0.00000  Uiso   1.00
H1272  H     0.26126   0.90660   0.74644   0.00000  Uiso   1.00
H1273  H     0.22057   0.59623   0.93209   0.00000  Uiso   1.00
H1274  H     0.25578   0.59080   0.74483   0.00000  Uiso   1.00
H1275  H     0.24979   0.91025   0.92009   0.00000  Uiso   1.00
H1276  H     0.38435   0.71308   0.76689   0.00000  Uiso   1.00
N1277  N     0.00000   0.75000   0.95069   0.00000  Uiso   1.00
N1278  N     0.00000   0.75000   0.71598   0.00000  Uiso   1.00
N1279  N     0.25000   0.50000   0.95069   0.00000  Uiso   1.00
N1280  N     0.25000   0.50000   0.71598   0.00000  Uiso   1.00
O1281  O     0.04509   0.70491   0.87291   0.00000  Uiso   1.00
O1282  O     0.20492   0.54509   0.79375   0.00000  Uiso   1.00
O1283  O     0.20492   0.54509   0.87291   0.00000  Uiso   1.00
O1284  O     0.29509   0.95491   0.79375   0.00000  Uiso   1.00
O1285  O     0.20492   0.95491   0.79375   0.00000  Uiso   1.00
O1286  O     0.29509   0.54509   0.87291   0.00000  Uiso   1.00
O1287  O     0.29509   0.54509   0.79375   0.00000  Uiso   1.00
O1288  O     0.20492   0.95491   0.87291   0.00000  Uiso   1.00
O1289  O     0.46862   0.64501   0.71867   0.00000  Uiso   1.00
O1290  O     0.03538   0.85754   0.96229   0.00000  Uiso   1.00
O1291  O     0.46233   0.85976   0.69642   0.00000  Uiso   1.00
O1292  O     0.45492   0.79509   0.79375   0.00000  Uiso   1.00
O1293  O     0.03696   0.64021   0.96756   0.00000  Uiso   1.00
O1294  O     0.21458   0.89251   0.70446   0.00000  Uiso   1.00
O1295  O     0.28137   0.60499   0.94799   0.00000  Uiso   1.00
O1296  O     0.21303   0.60978   0.69911   0.00000  Uiso   1.00
O1297  O     0.28765   0.89022   0.97025   0.00000  Uiso   1.00
O1298  O     0.38230   0.68195   0.75600   0.00000  Uiso   1.00
O1299  O     0.12852   0.80495   0.89887   0.00000  Uiso   1.00
O1300  O     0.06882   0.87629   0.76005   0.00000  Uiso   1.00
O1301  O     0.41428   0.64105   0.91685   0.00000  Uiso   1.00
O1302  O     0.04381   0.60522   0.86861   0.00000  Uiso   1.00
O1303  O     0.45492   0.79509   0.87291   0.00000  Uiso   1.00
O1304  O     0.35963   0.78762   0.80541   0.00000  Uiso   1.00
O1305  O     0.45900   0.89704   0.85367   0.00000  Uiso   1.00
O1306  O     0.13679   0.70934   0.79115   0.00000  Uiso   1.00
O1307  O     0.12148   0.94505   0.76780   0.00000  Uiso   1.00
O1308  O     0.36770   0.56805   0.91067   0.00000  Uiso   1.00
O1309  O     0.33572   0.60895   0.74981   0.00000  Uiso   1.00
O1310  O     0.18118   0.87371   0.90662   0.00000  Uiso   1.00
O1311  O     0.39037   0.96238   0.86126   0.00000  Uiso   1.00
O1312  O     0.20619   0.64478   0.79805   0.00000  Uiso   1.00
O1313  O     0.11321   0.54066   0.87552   0.00000  Uiso   1.00
O1314  O     0.04509   0.70491   0.79375   0.00000  Uiso   1.00
O1315  O     0.29100   0.85296   0.81301   0.00000  Uiso   1.00
O1316  O     0.45492   0.70491   0.79375   0.00000  Uiso   1.00
O1317  O     0.04509   0.79509   0.87291   0.00000  Uiso   1.00
O1318  O     0.04509   0.79509   0.79375   0.00000  Uiso   1.00
O1319  O     0.45492   0.70491   0.87291   0.00000  Uiso   1.00
O1320  O     0.29509   0.95491   0.87291   0.00000  Uiso   1.00
C1321  C     0.55919   0.69057   0.83345   0.00000  Uiso   1.00
C1322  C     0.99962   0.78953   0.97437   0.00000  Uiso   1.00
C1323  C     0.99668   0.78944   0.69045   0.00000  Uiso   1.00
C1324  C     0.50313   0.71046   0.97624   0.00000  Uiso   1.00
C1325  C     0.75039   0.96048   0.69230   0.00000  Uiso   1.00
C1326  C     0.74765   0.53944   0.97423   0.00000  Uiso   1.00
C1327  C     0.74687   0.53954   0.69042   0.00000  Uiso   1.00
C1328  C     0.75332   0.96056   0.97622   0.00000  Uiso   1.00
C1329  C     0.88024   0.65363   0.79437   0.00000  Uiso   1.00
C1330  C     0.62534   0.83978   0.86670   0.00000  Uiso   1.00
C1331  C     0.59632   0.87506   0.79657   0.00000  Uiso   1.00
C1332  C     0.94075   0.80937   0.83323   0.00000  Uiso   1.00
C1333  C     0.89574   0.63348   0.87494   0.00000  Uiso   1.00
C1334  C     0.58476   0.61464   0.85324   0.00000  Uiso   1.00
C1335  C     0.86613   0.83085   0.81979   0.00000  Uiso   1.00
C1336  C     0.91692   0.88676   0.84543   0.00000  Uiso   1.00
C1337  C     0.63211   0.66767   0.81245   0.00000  Uiso   1.00
C1338  C     0.62466   0.91022   0.79996   0.00000  Uiso   1.00
C1339  C     0.86976   0.59637   0.87229   0.00000  Uiso   1.00
C1340  C     0.85427   0.61652   0.79173   0.00000  Uiso   1.00
C1341  C     0.65368   0.87494   0.87009   0.00000  Uiso   1.00
C1342  C     0.88387   0.91915   0.84687   0.00000  Uiso   1.00
C1343  C     0.93905   0.69233   0.83393   0.00000  Uiso   1.00
C1344  C     0.66524   0.63536   0.81343   0.00000  Uiso   1.00
C1345  C     0.61789   0.58233   0.85422   0.00000  Uiso   1.00
C1346  C     0.83308   0.86324   0.82124   0.00000  Uiso   1.00
C1347  C     0.59498   0.84073   0.83109   0.00000  Uiso   1.00
C1348  C     0.90347   0.66080   0.83512   0.00000  Uiso   1.00
C1349  C     0.90718   0.84286   0.83321   0.00000  Uiso   1.00
C1350  C     0.59288   0.65721   0.83370   0.00000  Uiso   1.00
C1351  C     0.84653   0.58920   0.83155   0.00000  Uiso   1.00
C1352  C     0.65502   0.90927   0.83557   0.00000  Uiso   1.00
C1353  C     0.65712   0.59279   0.83297   0.00000  Uiso   1.00
C1354  C     0.55998   0.80874   0.83264   0.00000  Uiso   1.00
C1355  C     0.84282   0.90714   0.83346   0.00000  Uiso   1.00
C1356  C     0.50104   0.66733   0.71827   0.00000  Uiso   1.00
C1357  C     0.50737   0.83271   0.94947   0.00000  Uiso   1.00
C1358  C     0.98690   0.83226   0.71371   0.00000  Uiso   1.00
C1359  C     0.51074   0.66734   0.95274   0.00000  Uiso   1.00
C1360  C     0.74266   0.91729   0.71720   0.00000  Uiso   1.00
C1361  C     0.74895   0.58267   0.94839   0.00000  Uiso   1.00
C1362  C     0.73925   0.58265   0.71393   0.00000  Uiso   1.00
C1363  C     0.76309   0.91773   0.95296   0.00000  Uiso   1.00
C1364  C     0.80925   0.94063   0.83343   0.00000  Uiso   1.00
C1365  C     0.69081   0.55943   0.83322   0.00000  Uiso   1.00
C1366  C     0.69002   0.94126   0.83403   0.00000  Uiso   1.00
C1367  C     0.81095   0.55767   0.83274   0.00000  Uiso   1.00
C1368  C     0.50235   0.71056   0.69244   0.00000  Uiso   1.00
Cu1369 Cu    0.50000   0.75000   0.88022   0.00000  Uiso   1.00
Cu1370 Cu    0.50000   0.75000   0.78645   0.00000  Uiso   1.00
Cu1371 Cu    0.75000   0.50000   0.88022   0.00000  Uiso   1.00
Cu1372 Cu    0.75000   0.50000   0.78645   0.00000  Uiso   1.00
H1373  H     0.52941   0.65377   0.73459   0.00000  Uiso   1.00
H1374  H     0.61996   0.77684   0.88408   0.00000  Uiso   1.00
H1375  H     0.57659   0.85000   0.74117   0.00000  Uiso   1.00
H1376  H     0.90578   0.67192   0.92548   0.00000  Uiso   1.00
H1377  H     0.53876   0.57265   0.86605   0.00000  Uiso   1.00
H1378  H     0.83601   0.78798   0.78300   0.00000  Uiso   1.00
H1379  H     0.96369   0.92909   0.84568   0.00000  Uiso   1.00
H1380  H     0.65787   0.70679   0.76550   0.00000  Uiso   1.00
H1381  H     0.63004   0.97316   0.78259   0.00000  Uiso   1.00
H1382  H     0.86565   0.53692   0.89977   0.00000  Uiso   1.00
H1383  H     0.84422   0.57808   0.74119   0.00000  Uiso   1.00
H1384  H     0.98886   0.84336   0.92015   0.00000  Uiso   1.00
H1385  H     0.67340   0.90001   0.92550   0.00000  Uiso   1.00
H1386  H     0.91401   0.96203   0.88365   0.00000  Uiso   1.00
H1387  H     0.71124   0.67735   0.80060   0.00000  Uiso   1.00
H1388  H     0.59212   0.54321   0.90117   0.00000  Uiso   1.00
H1389  H     0.78631   0.82090   0.82097   0.00000  Uiso   1.00
H1390  H     0.50020   0.83975   0.74657   0.00000  Uiso   1.00
H1391  H     0.99423   0.65921   0.92183   0.00000  Uiso   1.00
H1392  H     0.76126   0.90660   0.74644   0.00000  Uiso   1.00
H1393  H     0.72057   0.59623   0.93209   0.00000  Uiso   1.00
H1394  H     0.75578   0.59080   0.74483   0.00000  Uiso   1.00
H1395  H     0.74979   0.91025   0.92009   0.00000  Uiso   1.00
H1396  H     0.88435   0.71308   0.76689   0.00000  Uiso   1.00
N1397  N     0.50000   0.75000   0.95069   0.00000  Uiso   1.00
N1398  N     0.50000   0.75000   0.71598   0.00000  Uiso   1.00
N1399  N     0.75000   0.50000   0.95069   0.00000  Uiso   1.00
N1400  N     0.75000   0.50000   0.71598   0.00000  Uiso   1.00
O1401  O     0.54509   0.70491   0.87291   0.00000  Uiso   1.00
O1402  O     0.70492   0.54509   0.79375   0.00000  Uiso   1.00
O1403  O     0.70492   0.54509   0.87291   0.00000  Uiso   1.00
O1404  O     0.79509   0.95491   0.79375   0.00000  Uiso   1.00
O1405  O     0.70492   0.95491   0.79375   0.00000  Uiso   1.00
O1406  O     0.79509   0.54509   0.87291   0.00000  Uiso   1.00
O1407  O     0.79509   0.54509   0.79375   0.00000  Uiso   1.00
O1408  O     0.70492   0.95491   0.87291   0.00000  Uiso   1.00
O1409  O     0.96862   0.64501   0.71867   0.00000  Uiso   1.00
O1410  O     0.53538   0.85754   0.96229   0.00000  Uiso   1.00
O1411  O     0.96233   0.85976   0.69642   0.00000  Uiso   1.00
O1412  O     0.95492   0.79509   0.79375   0.00000  Uiso   1.00
O1413  O     0.53696   0.64021   0.96756   0.00000  Uiso   1.00
O1414  O     0.71458   0.89251   0.70446   0.00000  Uiso   1.00
O1415  O     0.78137   0.60499   0.94799   0.00000  Uiso   1.00
O1416  O     0.71303   0.60978   0.69911   0.00000  Uiso   1.00
O1417  O     0.78765   0.89022   0.97025   0.00000  Uiso   1.00
O1418  O     0.88230   0.68195   0.75600   0.00000  Uiso   1.00
O1419  O     0.62852   0.80495   0.89887   0.00000  Uiso   1.00
O1420  O     0.56882   0.87629   0.76005   0.00000  Uiso   1.00
O1421  O     0.91428   0.64105   0.91685   0.00000  Uiso   1.00
O1422  O     0.54381   0.60522   0.86861   0.00000  Uiso   1.00
O1423  O     0.95492   0.79509   0.87291   0.00000  Uiso   1.00
O1424  O     0.85963   0.78762   0.80541   0.00000  Uiso   1.00
O1425  O     0.95900   0.89704   0.85367   0.00000  Uiso   1.00
O1426  O     0.63679   0.70934   0.79115   0.00000  Uiso   1.00
O1427  O     0.62148   0.94505   0.76780   0.00000  Uiso   1.00
O1428  O     0.86770   0.56805   0.91067   0.00000  Uiso   1.00
O1429  O     0.83572   0.60895   0.74981   0.00000  Uiso   1.00
O1430  O     0.68118   0.87371   0.90662   0.00000  Uiso   1.00
O1431  O     0.89037   0.96238   0.86126   0.00000  Uiso   1.00
O1432  O     0.70619   0.64478   0.79805   0.00000  Uiso   1.00
O1433  O     0.61321   0.54066   0.87552   0.00000  Uiso   1.00
O1434  O     0.54509   0.70491   0.79375   0.00000  Uiso   1.00
O1435  O     0.79100   0.85296   0.81301   0.00000  Uiso   1.00
O1436  O     0.95492   0.70491   0.79375   0.00000  Uiso   1.00
O1437  O     0.54509   0.79509   0.87291   0.00000  Uiso   1.00
O1438  O     0.54509   0.79509   0.79375   0.00000  Uiso   1.00
O1439  O     0.95492   0.70491   0.87291   0.00000  Uiso   1.00
O1440  O     0.79509   0.95491   0.87291   0.00000  Uiso   1.00
loop_
_geom_bond_atom_site_label_1
_geom_bond_atom_site_label_2
_geom_bond_distance
_geom_bond_site_symmetry_2
_ccdc_geom_bond_type
C1     O81     1.298   .     A
C1     O114    1.297   .     A
C1     C30     1.442   .     S
C2     C483    1.430   .     S
C2     C157    1.482   .     S
C2     N197    1.376   .     S
C3     C38     1.483   .     S
C3     C962    1.430   1_554 S
C3     N198    1.377   .     S
C4     C39     1.483   .     S
C4     N77     1.380   .     A
C4     C528    1.432   .     S
C5     C40     1.481   .     S
C5     C968    1.430   1_554 S
C5     N320    1.376   .     S
C6     C41     1.476   .     S
C6     N79     1.373   .     A
C6     C487    1.432   .     S
C7     C42     1.483   .     S
C7     N80     1.380   .     A
C7     C966    1.432   1_554 S
C8     C43     1.483   .     S
C8     C485    1.430   .     S
C8     N319    1.377   .     S
C9     O98     1.380   .     S
C9     C20     1.385   .     A
C9     C28     1.415   .     A
C10    C27     1.411   .     A
C10    C21     1.387   .     A
C10    O99     1.382   .     S
C11    C18     1.387   .     A
C11    O100    1.371   .     S
C11    C27     1.414   .     A
C12    C29     1.442   .     S
C12    O103    1.297   .     A
C12    O92     1.298   .     A
C13    C28     1.415   .     A
C13    C19     1.385   .     A
C13    O101    1.375   .     S
C14    O102    1.382   .     S
C14    C30     1.402   .     A
C14    C25     1.408   .     A
C15    O104    1.381   .     S
C15    C29     1.402   .     A
C15    C26     1.409   .     A
C16    C29     1.401   .     A
C16    O105    1.382   .     S
C16    C22     1.409   .     A
C17    C30     1.402   .     A
C17    C24     1.408   .     A
C17    O106    1.383   .     S
C18    O107    1.382   .     S
C18    C32     1.411   .     A
C19    C31     1.415   .     A
C19    O108    1.380   .     S
C20    O109    1.375   .     S
C20    C31     1.415   .     A
C21    O110    1.371   .     S
C21    C32     1.414   .     A
C22    C35     1.402   .     A
C22    O111    1.381   .     S
C23    O119    1.302   .     A
C23    O116    1.306   .     A
C23    C28     1.466   .     S
C24    O112    1.382   .     S
C24    C33     1.402   .     A
C25    O113    1.383   .     S
C25    C33     1.402   .     A
C26    O115    1.382   .     S
C26    C35     1.401   .     A
C27    C34     1.461   .     S
C31    C47     1.466   .     S
C32    C46     1.461   .     S
C33    C45     1.442   .     S
C34    O118    1.299   .     A
C34    O117    1.307   .     A
C35    C44     1.442   .     S
C36    H53     1.082   .     S
C36    C48     1.476   .     S
C36    O209    1.221   1_455 S
C37    O90     1.221   .     D
C37    C122    1.482   1_455 S
C37    H184    1.074   1_455 S
C38    O91     1.221   .     D
C38    H190    1.072   .     S
C39    O93     1.221   .     D
C39    H191    1.073   1_455 S
C40    H72     1.074   .     S
C40    O94     1.221   .     D
C41    O95     1.221   .     D
C41    H73     1.082   .     S
C42    O96     1.221   .     D
C42    H74     1.073   .     S
C43    H75     1.072   .     S
C43    O97     1.221   .     D
C44    O120    1.298   .     A
C44    O84     1.297   .     A
C45    O82     1.298   .     A
C45    O83     1.297   .     A
C46    O85     1.307   .     A
C46    O88     1.299   .     A
C47    O86     1.306   .     A
C47    O87     1.302   .     A
C48    N78     1.373   .     A
C48    C964    1.432   1_554 S
Cu49   O117    1.967   .     S
Cu49   Cu50    2.711   .     S
Cu49   N77     2.037   .     S
Cu49   O81     1.952   .     S
Cu49   O223    1.949   1_455 S
Cu49   O239    1.978   1_455 S
Cu50   N78     2.037   .     S
Cu50   O114    1.949   .     S
Cu50   O118    1.978   .     S
Cu50   O212    1.952   1_455 S
Cu50   O236    1.967   1_455 S
Cu51   O86     1.967   .     S
Cu51   Cu52    2.711   .     S
Cu51   O83     1.949   .     S
Cu51   N79     2.037   .     S
Cu51   O328    1.978   1_545 S
Cu51   O360    1.952   1_545 S
Cu52   O82     1.952   .     S
Cu52   O87     1.978   .     S
Cu52   N80     2.037   .     S
Cu52   O324    1.949   1_545 S
Cu52   O325    1.967   1_545 S
H54    O99     0.991   .     S
H55    O100    0.992   .     S
H56    O101    0.992   .     S
H57    O102    0.990   .     S
H58    O104    0.990   .     S
H59    O105    0.990   .     S
H60    O106    0.990   .     S
H61    O107    0.991   .     S
H62    O108    0.990   .     S
H63    O109    0.992   .     S
H64    C157    1.074   .     S
H65    O110    0.992   .     S
H66    O111    0.990   .     S
H67    O112    0.990   .     S
H68    O113    0.990   .     S
H69    O115    0.990   .     S
H70    C158    1.072   1_455 S
H71    C159    1.073   .     S
H76    O98     0.990   .     S
N77    C122    1.376   1_455 S
N78    C123    1.377   1_455 S
N79    C248    1.377   1_545 S
N80    C245    1.376   1_545 S
O84    Cu292   1.949   .     S
O85    Cu292   1.967   .     S
O88    Cu291   1.978   .     S
O89    C156    1.221   .     S
O92    Cu170   1.952   .     S
O103   Cu169   1.949   .     S
O116   Cu170   1.967   .     S
O119   Cu169   1.978   .     S
O120   Cu291   1.952   .     S
C121   O201    1.298   .     A
C121   O234    1.297   .     A
C121   C150    1.442   .     S
C122   C603    1.430   .     S
C122   C37     1.482   1_655 S
C122   N77     1.376   1_655 S
C123   C158    1.483   .     S
C123   C1082   1.430   1_554 S
C123   N78     1.377   1_655 S
C124   C159    1.483   .     S
C124   N197    1.380   .     A
C124   C648    1.432   .     S
C125   C160    1.481   .     S
C125   C1088   1.430   1_554 S
C125   N440    1.376   .     S
C126   C161    1.476   .     S
C126   N199    1.373   .     A
C126   C607    1.432   .     S
C127   C162    1.483   .     S
C127   N200    1.380   .     A
C127   C1086   1.432   1_554 S
C128   C163    1.483   .     S
C128   C605    1.430   .     S
C128   N439    1.377   .     S
C129   O218    1.380   .     S
C129   C140    1.385   .     A
C129   C148    1.415   .     A
C130   C147    1.411   .     A
C130   C141    1.387   .     A
C130   O219    1.382   .     S
C131   C138    1.387   .     A
C131   O220    1.371   .     S
C131   C147    1.414   .     A
C132   C149    1.442   .     S
C132   O223    1.297   .     A
C132   O212    1.298   .     A
C133   C148    1.415   .     A
C133   C139    1.385   .     A
C133   O221    1.375   .     S
C134   O222    1.382   .     S
C134   C150    1.402   .     A
C134   C145    1.408   .     A
C135   O224    1.381   .     S
C135   C149    1.402   .     A
C135   C146    1.409   .     A
C136   C149    1.401   .     A
C136   O225    1.382   .     S
C136   C142    1.409   .     A
C137   C150    1.402   .     A
C137   C144    1.408   .     A
C137   O226    1.383   .     S
C138   O227    1.382   .     S
C138   C152    1.411   .     A
C139   C151    1.415   .     A
C139   O228    1.380   .     S
C140   O229    1.375   .     S
C140   C151    1.415   .     A
C141   O230    1.371   .     S
C141   C152    1.414   .     A
C142   C155    1.402   .     A
C142   O231    1.381   .     S
C143   O239    1.302   .     A
C143   O236    1.306   .     A
C143   C148    1.466   .     S
C144   O232    1.382   .     S
C144   C153    1.402   .     A
C145   O233    1.383   .     S
C145   C153    1.402   .     A
C146   O235    1.382   .     S
C146   C155    1.401   .     A
C147   C154    1.461   .     S
C151   C167    1.466   .     S
C152   C166    1.461   .     S
C153   C165    1.442   .     S
C154   O238    1.299   .     A
C154   O237    1.307   .     A
C155   C164    1.442   .     S
C156   H173    1.082   .     S
C156   C168    1.476   .     S
C157   O210    1.221   .     D
C158   O211    1.221   .     D
C158   H70     1.072   1_655 S
C159   O213    1.221   .     D
C160   H192    1.074   .     S
C160   O214    1.221   .     D
C161   O215    1.221   .     D
C161   H193    1.082   .     S
C162   O216    1.221   .     D
C162   H194    1.073   .     S
C163   H195    1.072   .     S
C163   O217    1.221   .     D
C164   O240    1.298   .     A
C164   O204    1.297   .     A
C165   O202    1.298   .     A
C165   O203    1.297   .     A
C166   O205    1.307   .     A
C166   O208    1.299   .     A
C167   O206    1.306   .     A
C167   O207    1.302   .     A
C168   N198    1.373   .     A
C168   C1084   1.432   1_554 S
Cu169  O237    1.967   .     S
Cu169  Cu170   2.711   .     S
Cu169  N197    2.037   .     S
Cu169  O201    1.952   .     S
Cu170  N198    2.037   .     S
Cu170  O234    1.949   .     S
Cu170  O238    1.978   .     S
Cu171  O206    1.967   .     S
Cu171  Cu172   2.711   .     S
Cu171  O203    1.949   .     S
Cu171  N199    2.037   .     S
Cu171  O448    1.978   1_545 S
Cu171  O480    1.952   1_545 S
Cu172  O202    1.952   .     S
Cu172  O207    1.978   .     S
Cu172  N200    2.037   .     S
Cu172  O444    1.949   1_545 S
Cu172  O445    1.967   1_545 S
H174   O219    0.991   .     S
H175   O220    0.992   .     S
H176   O221    0.992   .     S
H177   O222    0.990   .     S
H178   O224    0.990   .     S
H179   O225    0.990   .     S
H180   O226    0.990   .     S
H181   O227    0.991   .     S
H182   O228    0.990   .     S
H183   O229    0.992   .     S
H184   C37     1.074   1_655 S
H185   O230    0.992   .     S
H186   O231    0.990   .     S
H187   O232    0.990   .     S
H188   O233    0.990   .     S
H189   O235    0.990   .     S
H191   C39     1.073   1_655 S
H196   O218    0.990   .     S
N199   C368    1.377   1_545 S
N200   C365    1.376   1_545 S
O204   Cu412   1.949   .     S
O205   Cu412   1.967   .     S
O208   Cu411   1.978   .     S
O209   C36     1.221   1_655 S
O212   Cu50    1.952   1_655 S
O223   Cu49    1.949   1_655 S
O236   Cu50    1.967   1_655 S
O239   Cu49    1.978   1_655 S
O240   Cu411   1.952   .     S
C241   O321    1.298   .     A
C241   O354    1.297   .     A
C241   C270    1.442   .     S
C242   C723    1.430   .     S
C242   C397    1.482   .     S
C242   N437    1.376   .     S
C243   C278    1.483   .     S
C243   C1202   1.430   1_554 S
C243   N438    1.377   .     S
C244   C279    1.483   .     S
C244   N317    1.380   .     A
C244   C768    1.432   .     S
C245   C280    1.481   .     S
C245   C1208   1.430   1_554 S
C245   N80     1.376   1_565 S
C246   C281    1.476   .     S
C246   N319    1.373   .     A
C246   C727    1.432   .     S
C247   C282    1.483   .     S
C247   N320    1.380   .     A
C247   C1206   1.432   1_554 S
C248   C283    1.483   .     S
C248   C725    1.430   .     S
C248   N79     1.377   1_565 S
C249   O338    1.380   .     S
C249   C260    1.385   .     A
C249   C268    1.415   .     A
C250   C267    1.411   .     A
C250   C261    1.387   .     A
C250   O339    1.382   .     S
C251   C258    1.387   .     A
C251   O340    1.371   .     S
C251   C267    1.414   .     A
C252   C269    1.442   .     S
C252   O343    1.297   .     A
C252   O332    1.298   .     A
C253   C268    1.415   .     A
C253   C259    1.385   .     A
C253   O341    1.375   .     S
C254   O342    1.382   .     S
C254   C270    1.402   .     A
C254   C265    1.408   .     A
C255   O344    1.381   .     S
C255   C269    1.402   .     A
C255   C266    1.409   .     A
C256   C269    1.401   .     A
C256   O345    1.382   .     S
C256   C262    1.409   .     A
C257   C270    1.402   .     A
C257   C264    1.408   .     A
C257   O346    1.383   .     S
C258   O347    1.382   .     S
C258   C272    1.411   .     A
C259   C271    1.415   .     A
C259   O348    1.380   .     S
C260   O349    1.375   .     S
C260   C271    1.415   .     A
C261   O350    1.371   .     S
C261   C272    1.414   .     A
C262   C275    1.402   .     A
C262   O351    1.381   .     S
C263   O359    1.302   .     A
C263   O356    1.306   .     A
C263   C268    1.466   .     S
C264   O352    1.382   .     S
C264   C273    1.402   .     A
C265   O353    1.383   .     S
C265   C273    1.402   .     A
C266   O355    1.382   .     S
C266   C275    1.401   .     A
C267   C274    1.461   .     S
C271   C287    1.466   .     S
C272   C286    1.461   .     S
C273   C285    1.442   .     S
C274   O358    1.299   .     A
C274   O357    1.307   .     A
C275   C284    1.442   .     S
C276   H293    1.082   .     S
C276   C288    1.476   .     S
C276   O449    1.221   1_455 S
C277   O330    1.221   .     D
C277   C362    1.482   1_455 S
C277   H424    1.074   1_455 S
C278   O331    1.221   .     D
C278   H430    1.072   .     S
C279   O333    1.221   .     D
C279   H431    1.073   1_455 S
C280   H312    1.074   .     S
C280   O334    1.221   .     D
C281   O335    1.221   .     D
C281   H313    1.082   .     S
C282   O336    1.221   .     D
C282   H314    1.073   .     S
C283   H315    1.072   .     S
C283   O337    1.221   .     D
C284   O360    1.298   .     A
C284   O324    1.297   .     A
C285   O322    1.298   .     A
C285   O323    1.297   .     A
C286   O325    1.307   .     A
C286   O328    1.299   .     A
C287   O326    1.306   .     A
C287   O327    1.302   .     A
C288   N318    1.373   .     A
C288   C1204   1.432   1_554 S
Cu289  O357    1.967   .     S
Cu289  Cu290   2.711   .     S
Cu289  N317    2.037   .     S
Cu289  O321    1.952   .     S
Cu289  O463    1.949   1_455 S
Cu289  O479    1.978   1_455 S
Cu290  N318    2.037   .     S
Cu290  O354    1.949   .     S
Cu290  O358    1.978   .     S
Cu290  O452    1.952   1_455 S
Cu290  O476    1.967   1_455 S
Cu291  O326    1.967   .     S
Cu291  Cu292   2.711   .     S
Cu291  O323    1.949   .     S
Cu291  N319    2.037   .     S
Cu292  O322    1.952   .     S
Cu292  O327    1.978   .     S
Cu292  N320    2.037   .     S
H294   O339    0.991   .     S
H295   O340    0.992   .     S
H296   O341    0.992   .     S
H297   O342    0.990   .     S
H298   O344    0.990   .     S
H299   O345    0.990   .     S
H300   O346    0.990   .     S
H301   O347    0.991   .     S
H302   O348    0.990   .     S
H303   O349    0.992   .     S
H304   C397    1.074   .     S
H305   O350    0.992   .     S
H306   O351    0.990   .     S
H307   O352    0.990   .     S
H308   O353    0.990   .     S
H309   O355    0.990   .     S
H310   C398    1.072   1_455 S
H311   C399    1.073   .     S
H316   O338    0.990   .     S
N317   C362    1.376   1_455 S
N318   C363    1.377   1_455 S
O324   Cu52    1.949   1_565 S
O325   Cu52    1.967   1_565 S
O328   Cu51    1.978   1_565 S
O329   C396    1.221   .     S
O332   Cu410   1.952   .     S
O343   Cu409   1.949   .     S
O356   Cu410   1.967   .     S
O359   Cu409   1.978   .     S
O360   Cu51    1.952   1_565 S
C361   O441    1.298   .     A
C361   O474    1.297   .     A
C361   C390    1.442   .     S
C362   C843    1.430   .     S
C362   C277    1.482   1_655 S
C362   N317    1.376   1_655 S
C363   C398    1.483   .     S
C363   C1322   1.430   1_554 S
C363   N318    1.377   1_655 S
C364   C399    1.483   .     S
C364   N437    1.380   .     A
C364   C888    1.432   .     S
C365   C400    1.481   .     S
C365   C1328   1.430   1_554 S
C365   N200    1.376   1_565 S
C366   C401    1.476   .     S
C366   N439    1.373   .     A
C366   C847    1.432   .     S
C367   C402    1.483   .     S
C367   N440    1.380   .     A
C367   C1326   1.432   1_554 S
C368   C403    1.483   .     S
C368   C845    1.430   .     S
C368   N199    1.377   1_565 S
C369   O458    1.380   .     S
C369   C380    1.385   .     A
C369   C388    1.415   .     A
C370   C387    1.411   .     A
C370   C381    1.387   .     A
C370   O459    1.382   .     S
C371   C378    1.387   .     A
C371   O460    1.371   .     S
C371   C387    1.414   .     A
C372   C389    1.442   .     S
C372   O463    1.297   .     A
C372   O452    1.298   .     A
C373   C388    1.415   .     A
C373   C379    1.385   .     A
C373   O461    1.375   .     S
C374   O462    1.382   .     S
C374   C390    1.402   .     A
C374   C385    1.408   .     A
C375   O464    1.381   .     S
C375   C389    1.402   .     A
C375   C386    1.409   .     A
C376   C389    1.401   .     A
C376   O465    1.382   .     S
C376   C382    1.409   .     A
C377   C390    1.402   .     A
C377   C384    1.408   .     A
C377   O466    1.383   .     S
C378   O467    1.382   .     S
C378   C392    1.411   .     A
C379   C391    1.415   .     A
C379   O468    1.380   .     S
C380   O469    1.375   .     S
C380   C391    1.415   .     A
C381   O470    1.371   .     S
C381   C392    1.414   .     A
C382   C395    1.402   .     A
C382   O471    1.381   .     S
C383   O479    1.302   .     A
C383   O476    1.306   .     A
C383   C388    1.466   .     S
C384   O472    1.382   .     S
C384   C393    1.402   .     A
C385   O473    1.383   .     S
C385   C393    1.402   .     A
C386   O475    1.382   .     S
C386   C395    1.401   .     A
C387   C394    1.461   .     S
C391   C407    1.466   .     S
C392   C406    1.461   .     S
C393   C405    1.442   .     S
C394   O478    1.299   .     A
C394   O477    1.307   .     A
C395   C404    1.442   .     S
C396   H413    1.082   .     S
C396   C408    1.476   .     S
C397   O450    1.221   .     D
C398   O451    1.221   .     D
C398   H310    1.072   1_655 S
C399   O453    1.221   .     D
C400   H432    1.074   .     S
C400   O454    1.221   .     D
C401   O455    1.221   .     D
C401   H433    1.082   .     S
C402   O456    1.221   .     D
C402   H434    1.073   .     S
C403   H435    1.072   .     S
C403   O457    1.221   .     D
C404   O480    1.298   .     A
C404   O444    1.297   .     A
C405   O442    1.298   .     A
C405   O443    1.297   .     A
C406   O445    1.307   .     A
C406   O448    1.299   .     A
C407   O446    1.306   .     A
C407   O447    1.302   .     A
C408   N438    1.373   .     A
C408   C1324   1.432   1_554 S
Cu409  O477    1.967   .     S
Cu409  Cu410   2.711   .     S
Cu409  N437    2.037   .     S
Cu409  O441    1.952   .     S
Cu410  N438    2.037   .     S
Cu410  O474    1.949   .     S
Cu410  O478    1.978   .     S
Cu411  O446    1.967   .     S
Cu411  Cu412   2.711   .     S
Cu411  O443    1.949   .     S
Cu411  N439    2.037   .     S
Cu412  O442    1.952   .     S
Cu412  O447    1.978   .     S
Cu412  N440    2.037   .     S
H414   O459    0.991   .     S
H415   O460    0.992   .     S
H416   O461    0.992   .     S
H417   O462    0.990   .     S
H418   O464    0.990   .     S
H419   O465    0.990   .     S
H420   O466    0.990   .     S
H421   O467    0.991   .     S
H422   O468    0.990   .     S
H423   O469    0.992   .     S
H424   C277    1.074   1_655 S
H425   O470    0.992   .     S
H426   O471    0.990   .     S
H427   O472    0.990   .     S
H428   O473    0.990   .     S
H429   O475    0.990   .     S
H431   C279    1.073   1_655 S
H436   O458    0.990   .     S
O444   Cu172   1.949   1_565 S
O445   Cu172   1.967   1_565 S
O448   Cu171   1.978   1_565 S
O449   C276    1.221   1_655 S
O452   Cu290   1.952   1_655 S
O463   Cu289   1.949   1_655 S
O476   Cu290   1.967   1_655 S
O479   Cu289   1.978   1_655 S
O480   Cu171   1.952   1_565 S
C481   O561    1.298   .     A
C481   O594    1.297   .     A
C481   C510    1.442   .     S
C482   C963    1.430   .     S
C482   C637    1.482   .     S
C482   N677    1.376   .     S
C483   C518    1.483   .     S
C483   N678    1.377   .     S
C484   C519    1.483   .     S
C484   N557    1.380   .     A
C484   C1008   1.432   .     S
C485   C520    1.481   .     S
C485   N800    1.376   .     S
C486   C521    1.476   .     S
C486   N559    1.373   .     A
C486   C967    1.432   .     S
C487   C522    1.483   .     S
C487   N560    1.380   .     A
C488   C523    1.483   .     S
C488   C965    1.430   .     S
C488   N799    1.377   .     S
C489   O578    1.380   .     S
C489   C500    1.385   .     A
C489   C508    1.415   .     A
C490   C507    1.411   .     A
C490   C501    1.387   .     A
C490   O579    1.382   .     S
C491   C498    1.387   .     A
C491   O580    1.371   .     S
C491   C507    1.414   .     A
C492   C509    1.442   .     S
C492   O583    1.297   .     A
C492   O572    1.298   .     A
C493   C508    1.415   .     A
C493   C499    1.385   .     A
C493   O581    1.375   .     S
C494   O582    1.382   .     S
C494   C510    1.402   .     A
C494   C505    1.408   .     A
C495   O584    1.381   .     S
C495   C509    1.402   .     A
C495   C506    1.409   .     A
C496   C509    1.401   .     A
C496   O585    1.382   .     S
C496   C502    1.409   .     A
C497   C510    1.402   .     A
C497   C504    1.408   .     A
C497   O586    1.383   .     S
C498   O587    1.382   .     S
C498   C512    1.411   .     A
C499   C511    1.415   .     A
C499   O588    1.380   .     S
C500   O589    1.375   .     S
C500   C511    1.415   .     A
C501   O590    1.371   .     S
C501   C512    1.414   .     A
C502   C515    1.402   .     A
C502   O591    1.381   .     S
C503   O599    1.302   .     A
C503   O596    1.306   .     A
C503   C508    1.466   .     S
C504   O592    1.382   .     S
C504   C513    1.402   .     A
C505   O593    1.383   .     S
C505   C513    1.402   .     A
C506   O595    1.382   .     S
C506   C515    1.401   .     A
C507   C514    1.461   .     S
C511   C527    1.466   .     S
C512   C526    1.461   .     S
C513   C525    1.442   .     S
C514   O598    1.299   .     A
C514   O597    1.307   .     A
C515   C524    1.442   .     S
C516   H533    1.082   .     S
C516   C528    1.476   .     S
C516   O689    1.221   1_455 S
C517   O570    1.221   .     D
C517   C602    1.482   1_455 S
C517   H664    1.074   1_455 S
C518   O571    1.221   .     D
C518   H670    1.072   .     S
C519   O573    1.221   .     D
C519   H671    1.073   1_455 S
C520   H552    1.074   .     S
C520   O574    1.221   .     D
C521   O575    1.221   .     D
C521   H553    1.082   .     S
C522   O576    1.221   .     D
C522   H554    1.073   .     S
C523   H555    1.072   .     S
C523   O577    1.221   .     D
C524   O600    1.298   .     A
C524   O564    1.297   .     A
C525   O562    1.298   .     A
C525   O563    1.297   .     A
C526   O565    1.307   .     A
C526   O568    1.299   .     A
C527   O566    1.306   .     A
C527   O567    1.302   .     A
C528   N558    1.373   .     A
Cu529  O597    1.967   .     S
Cu529  Cu530   2.711   .     S
Cu529  N557    2.037   .     S
Cu529  O561    1.952   .     S
Cu529  O703    1.949   1_455 S
Cu529  O719    1.978   1_455 S
Cu530  N558    2.037   .     S
Cu530  O594    1.949   .     S
Cu530  O598    1.978   .     S
Cu530  O692    1.952   1_455 S
Cu530  O716    1.967   1_455 S
Cu531  O566    1.967   .     S
Cu531  Cu532   2.711   .     S
Cu531  O563    1.949   .     S
Cu531  N559    2.037   .     S
Cu531  O808    1.978   1_545 S
Cu531  O840    1.952   1_545 S
Cu532  O562    1.952   .     S
Cu532  O567    1.978   .     S
Cu532  N560    2.037   .     S
Cu532  O804    1.949   1_545 S
Cu532  O805    1.967   1_545 S
H534   O579    0.991   .     S
H535   O580    0.992   .     S
H536   O581    0.992   .     S
H537   O582    0.990   .     S
H538   O584    0.990   .     S
H539   O585    0.990   .     S
H540   O586    0.990   .     S
H541   O587    0.991   .     S
H542   O588    0.990   .     S
H543   O589    0.992   .     S
H544   C637    1.074   .     S
H545   O590    0.992   .     S
H546   O591    0.990   .     S
H547   O592    0.990   .     S
H548   O593    0.990   .     S
H549   O595    0.990   .     S
H550   C638    1.072   1_455 S
H551   C639    1.073   .     S
H556   O578    0.990   .     S
N557   C602    1.376   1_455 S
N558   C603    1.377   1_455 S
N559   C728    1.377   1_545 S
N560   C725    1.376   1_545 S
O564   Cu772   1.949   .     S
O565   Cu772   1.967   .     S
O568   Cu771   1.978   .     S
O569   C636    1.221   .     S
O572   Cu650   1.952   .     S
O583   Cu649   1.949   .     S
O596   Cu650   1.967   .     S
O599   Cu649   1.978   .     S
O600   Cu771   1.952   .     S
C601   O681    1.298   .     A
C601   O714    1.297   .     A
C601   C630    1.442   .     S
C602   C1083   1.430   .     S
C602   C517    1.482   1_655 S
C602   N557    1.376   1_655 S
C603   C638    1.483   .     S
C603   N558    1.377   1_655 S
C604   C639    1.483   .     S
C604   N677    1.380   .     A
C604   C1128   1.432   .     S
C605   C640    1.481   .     S
C605   N920    1.376   .     S
C606   C641    1.476   .     S
C606   N679    1.373   .     A
C606   C1087   1.432   .     S
C607   C642    1.483   .     S
C607   N680    1.380   .     A
C608   C643    1.483   .     S
C608   C1085   1.430   .     S
C608   N919    1.377   .     S
C609   O698    1.380   .     S
C609   C620    1.385   .     A
C609   C628    1.415   .     A
C610   C627    1.411   .     A
C610   C621    1.387   .     A
C610   O699    1.382   .     S
C611   C618    1.387   .     A
C611   O700    1.371   .     S
C611   C627    1.414   .     A
C612   C629    1.442   .     S
C612   O703    1.297   .     A
C612   O692    1.298   .     A
C613   C628    1.415   .     A
C613   C619    1.385   .     A
C613   O701    1.375   .     S
C614   O702    1.382   .     S
C614   C630    1.402   .     A
C614   C625    1.408   .     A
C615   O704    1.381   .     S
C615   C629    1.402   .     A
C615   C626    1.409   .     A
C616   C629    1.401   .     A
C616   O705    1.382   .     S
C616   C622    1.409   .     A
C617   C630    1.402   .     A
C617   C624    1.408   .     A
C617   O706    1.383   .     S
C618   O707    1.382   .     S
C618   C632    1.411   .     A
C619   C631    1.415   .     A
C619   O708    1.380   .     S
C620   O709    1.375   .     S
C620   C631    1.415   .     A
C621   O710    1.371   .     S
C621   C632    1.414   .     A
C622   C635    1.402   .     A
C622   O711    1.381   .     S
C623   O719    1.302   .     A
C623   O716    1.306   .     A
C623   C628    1.466   .     S
C624   O712    1.382   .     S
C624   C633    1.402   .     A
C625   O713    1.383   .     S
C625   C633    1.402   .     A
C626   O715    1.382   .     S
C626   C635    1.401   .     A
C627   C634    1.461   .     S
C631   C647    1.466   .     S
C632   C646    1.461   .     S
C633   C645    1.442   .     S
C634   O718    1.299   .     A
C634   O717    1.307   .     A
C635   C644    1.442   .     S
C636   H653    1.082   .     S
C636   C648    1.476   .     S
C637   O690    1.221   .     D
C638   O691    1.221   .     D
C638   H550    1.072   1_655 S
C639   O693    1.221   .     D
C640   H672    1.074   .     S
C640   O694    1.221   .     D
C641   O695    1.221   .     D
C641   H673    1.082   .     S
C642   O696    1.221   .     D
C642   H674    1.073   .     S
C643   H675    1.072   .     S
C643   O697    1.221   .     D
C644   O720    1.298   .     A
C644   O684    1.297   .     A
C645   O682    1.298   .     A
C645   O683    1.297   .     A
C646   O685    1.307   .     A
C646   O688    1.299   .     A
C647   O686    1.306   .     A
C647   O687    1.302   .     A
C648   N678    1.373   .     A
Cu649  O717    1.967   .     S
Cu649  Cu650   2.711   .     S
Cu649  N677    2.037   .     S
Cu649  O681    1.952   .     S
Cu650  N678    2.037   .     S
Cu650  O714    1.949   .     S
Cu650  O718    1.978   .     S
Cu651  O686    1.967   .     S
Cu651  Cu652   2.711   .     S
Cu651  O683    1.949   .     S
Cu651  N679    2.037   .     S
Cu651  O928    1.978   1_545 S
Cu651  O960    1.952   1_545 S
Cu652  O682    1.952   .     S
Cu652  O687    1.978   .     S
Cu652  N680    2.037   .     S
Cu652  O924    1.949   1_545 S
Cu652  O925    1.967   1_545 S
H654   O699    0.991   .     S
H655   O700    0.992   .     S
H656   O701    0.992   .     S
H657   O702    0.990   .     S
H658   O704    0.990   .     S
H659   O705    0.990   .     S
H660   O706    0.990   .     S
H661   O707    0.991   .     S
H662   O708    0.990   .     S
H663   O709    0.992   .     S
H664   C517    1.074   1_655 S
H665   O710    0.992   .     S
H666   O711    0.990   .     S
H667   O712    0.990   .     S
H668   O713    0.990   .     S
H669   O715    0.990   .     S
H671   C519    1.073   1_655 S
H676   O698    0.990   .     S
N679   C848    1.377   1_545 S
N680   C845    1.376   1_545 S
O684   Cu892   1.949   .     S
O685   Cu892   1.967   .     S
O688   Cu891   1.978   .     S
O689   C516    1.221   1_655 S
O692   Cu530   1.952   1_655 S
O703   Cu529   1.949   1_655 S
O716   Cu530   1.967   1_655 S
O719   Cu529   1.978   1_655 S
O720   Cu891   1.952   .     S
C721   O801    1.298   .     A
C721   O834    1.297   .     A
C721   C750    1.442   .     S
C722   C1203   1.430   .     S
C722   C877    1.482   .     S
C722   N917    1.376   .     S
C723   C758    1.483   .     S
C723   N918    1.377   .     S
C724   C759    1.483   .     S
C724   N797    1.380   .     A
C724   C1248   1.432   .     S
C725   C760    1.481   .     S
C725   N560    1.376   1_565 S
C726   C761    1.476   .     S
C726   N799    1.373   .     A
C726   C1207   1.432   .     S
C727   C762    1.483   .     S
C727   N800    1.380   .     A
C728   C763    1.483   .     S
C728   C1205   1.430   .     S
C728   N559    1.377   1_565 S
C729   O818    1.380   .     S
C729   C740    1.385   .     A
C729   C748    1.415   .     A
C730   C747    1.411   .     A
C730   C741    1.387   .     A
C730   O819    1.382   .     S
C731   C738    1.387   .     A
C731   O820    1.371   .     S
C731   C747    1.414   .     A
C732   C749    1.442   .     S
C732   O823    1.297   .     A
C732   O812    1.298   .     A
C733   C748    1.415   .     A
C733   C739    1.385   .     A
C733   O821    1.375   .     S
C734   O822    1.382   .     S
C734   C750    1.402   .     A
C734   C745    1.408   .     A
C735   O824    1.381   .     S
C735   C749    1.402   .     A
C735   C746    1.409   .     A
C736   C749    1.401   .     A
C736   O825    1.382   .     S
C736   C742    1.409   .     A
C737   C750    1.402   .     A
C737   C744    1.408   .     A
C737   O826    1.383   .     S
C738   O827    1.382   .     S
C738   C752    1.411   .     A
C739   C751    1.415   .     A
C739   O828    1.380   .     S
C740   O829    1.375   .     S
C740   C751    1.415   .     A
C741   O830    1.371   .     S
C741   C752    1.414   .     A
C742   C755    1.402   .     A
C742   O831    1.381   .     S
C743   O839    1.302   .     A
C743   O836    1.306   .     A
C743   C748    1.466   .     S
C744   O832    1.382   .     S
C744   C753    1.402   .     A
C745   O833    1.383   .     S
C745   C753    1.402   .     A
C746   O835    1.382   .     S
C746   C755    1.401   .     A
C747   C754    1.461   .     S
C751   C767    1.466   .     S
C752   C766    1.461   .     S
C753   C765    1.442   .     S
C754   O838    1.299   .     A
C754   O837    1.307   .     A
C755   C764    1.442   .     S
C756   H773    1.082   .     S
C756   C768    1.476   .     S
C756   O929    1.221   1_455 S
C757   O810    1.221   .     D
C757   C842    1.482   1_455 S
C757   H904    1.074   1_455 S
C758   O811    1.221   .     D
C758   H910    1.072   .     S
C759   O813    1.221   .     D
C759   H911    1.073   1_455 S
C760   H792    1.074   .     S
C760   O814    1.221   .     D
C761   O815    1.221   .     D
C761   H793    1.082   .     S
C762   O816    1.221   .     D
C762   H794    1.073   .     S
C763   H795    1.072   .     S
C763   O817    1.221   .     D
C764   O840    1.298   .     A
C764   O804    1.297   .     A
C765   O802    1.298   .     A
C765   O803    1.297   .     A
C766   O805    1.307   .     A
C766   O808    1.299   .     A
C767   O806    1.306   .     A
C767   O807    1.302   .     A
C768   N798    1.373   .     A
Cu769  O837    1.967   .     S
Cu769  Cu770   2.711   .     S
Cu769  N797    2.037   .     S
Cu769  O801    1.952   .     S
Cu769  O943    1.949   1_455 S
Cu769  O959    1.978   1_455 S
Cu770  N798    2.037   .     S
Cu770  O834    1.949   .     S
Cu770  O838    1.978   .     S
Cu770  O932    1.952   1_455 S
Cu770  O956    1.967   1_455 S
Cu771  O806    1.967   .     S
Cu771  Cu772   2.711   .     S
Cu771  O803    1.949   .     S
Cu771  N799    2.037   .     S
Cu772  O802    1.952   .     S
Cu772  O807    1.978   .     S
Cu772  N800    2.037   .     S
H774   O819    0.991   .     S
H775   O820    0.992   .     S
H776   O821    0.992   .     S
H777   O822    0.990   .     S
H778   O824    0.990   .     S
H779   O825    0.990   .     S
H780   O826    0.990   .     S
H781   O827    0.991   .     S
H782   O828    0.990   .     S
H783   O829    0.992   .     S
H784   C877    1.074   .     S
H785   O830    0.992   .     S
H786   O831    0.990   .     S
H787   O832    0.990   .     S
H788   O833    0.990   .     S
H789   O835    0.990   .     S
H790   C878    1.072   1_455 S
H791   C879    1.073   .     S
H796   O818    0.990   .     S
N797   C842    1.376   1_455 S
N798   C843    1.377   1_455 S
O804   Cu532   1.949   1_565 S
O805   Cu532   1.967   1_565 S
O808   Cu531   1.978   1_565 S
O809   C876    1.221   .     S
O812   Cu890   1.952   .     S
O823   Cu889   1.949   .     S
O836   Cu890   1.967   .     S
O839   Cu889   1.978   .     S
O840   Cu531   1.952   1_565 S
C841   O921    1.298   .     A
C841   O954    1.297   .     A
C841   C870    1.442   .     S
C842   C1323   1.430   .     S
C842   C757    1.482   1_655 S
C842   N797    1.376   1_655 S
C843   C878    1.483   .     S
C843   N798    1.377   1_655 S
C844   C879    1.483   .     S
C844   N917    1.380   .     A
C844   C1368   1.432   .     S
C845   C880    1.481   .     S
C845   N680    1.376   1_565 S
C846   C881    1.476   .     S
C846   N919    1.373   .     A
C846   C1327   1.432   .     S
C847   C882    1.483   .     S
C847   N920    1.380   .     A
C848   C883    1.483   .     S
C848   C1325   1.430   .     S
C848   N679    1.377   1_565 S
C849   O938    1.380   .     S
C849   C860    1.385   .     A
C849   C868    1.415   .     A
C850   C867    1.411   .     A
C850   C861    1.387   .     A
C850   O939    1.382   .     S
C851   C858    1.387   .     A
C851   O940    1.371   .     S
C851   C867    1.414   .     A
C852   C869    1.442   .     S
C852   O943    1.297   .     A
C852   O932    1.298   .     A
C853   C868    1.415   .     A
C853   C859    1.385   .     A
C853   O941    1.375   .     S
C854   O942    1.382   .     S
C854   C870    1.402   .     A
C854   C865    1.408   .     A
C855   O944    1.381   .     S
C855   C869    1.402   .     A
C855   C866    1.409   .     A
C856   C869    1.401   .     A
C856   O945    1.382   .     S
C856   C862    1.409   .     A
C857   C870    1.402   .     A
C857   C864    1.408   .     A
C857   O946    1.383   .     S
C858   O947    1.382   .     S
C858   C872    1.411   .     A
C859   C871    1.415   .     A
C859   O948    1.380   .     S
C860   O949    1.375   .     S
C860   C871    1.415   .     A
C861   O950    1.371   .     S
C861   C872    1.414   .     A
C862   C875    1.402   .     A
C862   O951    1.381   .     S
C863   O959    1.302   .     A
C863   O956    1.306   .     A
C863   C868    1.466   .     S
C864   O952    1.382   .     S
C864   C873    1.402   .     A
C865   O953    1.383   .     S
C865   C873    1.402   .     A
C866   O955    1.382   .     S
C866   C875    1.401   .     A
C867   C874    1.461   .     S
C871   C887    1.466   .     S
C872   C886    1.461   .     S
C873   C885    1.442   .     S
C874   O958    1.299   .     A
C874   O957    1.307   .     A
C875   C884    1.442   .     S
C876   H893    1.082   .     S
C876   C888    1.476   .     S
C877   O930    1.221   .     D
C878   O931    1.221   .     D
C878   H790    1.072   1_655 S
C879   O933    1.221   .     D
C880   H912    1.074   .     S
C880   O934    1.221   .     D
C881   O935    1.221   .     D
C881   H913    1.082   .     S
C882   O936    1.221   .     D
C882   H914    1.073   .     S
C883   H915    1.072   .     S
C883   O937    1.221   .     D
C884   O960    1.298   .     A
C884   O924    1.297   .     A
C885   O922    1.298   .     A
C885   O923    1.297   .     A
C886   O925    1.307   .     A
C886   O928    1.299   .     A
C887   O926    1.306   .     A
C887   O927    1.302   .     A
C888   N918    1.373   .     A
Cu889  O957    1.967   .     S
Cu889  Cu890   2.711   .     S
Cu889  N917    2.037   .     S
Cu889  O921    1.952   .     S
Cu890  N918    2.037   .     S
Cu890  O954    1.949   .     S
Cu890  O958    1.978   .     S
Cu891  O926    1.967   .     S
Cu891  Cu892   2.711   .     S
Cu891  O923    1.949   .     S
Cu891  N919    2.037   .     S
Cu892  O922    1.952   .     S
Cu892  O927    1.978   .     S
Cu892  N920    2.037   .     S
H894   O939    0.991   .     S
H895   O940    0.992   .     S
H896   O941    0.992   .     S
H897   O942    0.990   .     S
H898   O944    0.990   .     S
H899   O945    0.990   .     S
H900   O946    0.990   .     S
H901   O947    0.991   .     S
H902   O948    0.990   .     S
H903   O949    0.992   .     S
H904   C757    1.074   1_655 S
H905   O950    0.992   .     S
H906   O951    0.990   .     S
H907   O952    0.990   .     S
H908   O953    0.990   .     S
H909   O955    0.990   .     S
H911   C759    1.073   1_655 S
H916   O938    0.990   .     S
O924   Cu652   1.949   1_565 S
O925   Cu652   1.967   1_565 S
O928   Cu651   1.978   1_565 S
O929   C756    1.221   1_655 S
O932   Cu770   1.952   1_655 S
O943   Cu769   1.949   1_655 S
O956   Cu770   1.967   1_655 S
O959   Cu769   1.978   1_655 S
O960   Cu651   1.952   1_565 S
C961   O1041   1.298   .     A
C961   O1074   1.297   .     A
C961   C990    1.442   .     S
C962   C3      1.430   1_556 S
C962   C1117   1.482   .     S
C962   N1157   1.376   .     S
C963   C998    1.483   .     S
C963   N1158   1.377   .     S
C964   C999    1.483   .     S
C964   N1037   1.380   .     A
C964   C48     1.432   1_556 S
C965   C1000   1.481   .     S
C965   N1280   1.376   .     S
C966   C1001   1.476   .     S
C966   N1039   1.373   .     A
C966   C7      1.432   1_556 S
C967   C1002   1.483   .     S
C967   N1040   1.380   .     A
C968   C1003   1.483   .     S
C968   C5      1.430   1_556 S
C968   N1279   1.377   .     S
C969   O1058   1.380   .     S
C969   C980    1.385   .     A
C969   C988    1.415   .     A
C970   C987    1.411   .     A
C970   C981    1.387   .     A
C970   O1059   1.382   .     S
C971   C978    1.387   .     A
C971   O1060   1.371   .     S
C971   C987    1.414   .     A
C972   C989    1.442   .     S
C972   O1063   1.297   .     A
C972   O1052   1.298   .     A
C973   C988    1.415   .     A
C973   C979    1.385   .     A
C973   O1061   1.375   .     S
C974   O1062   1.382   .     S
C974   C990    1.402   .     A
C974   C985    1.408   .     A
C975   O1064   1.381   .     S
C975   C989    1.402   .     A
C975   C986    1.409   .     A
C976   C989    1.401   .     A
C976   O1065   1.382   .     S
C976   C982    1.409   .     A
C977   C990    1.402   .     A
C977   C984    1.408   .     A
C977   O1066   1.383   .     S
C978   O1067   1.382   .     S
C978   C992    1.411   .     A
C979   C991    1.415   .     A
C979   O1068   1.380   .     S
C980   O1069   1.375   .     S
C980   C991    1.415   .     A
C981   O1070   1.371   .     S
C981   C992    1.414   .     A
C982   C995    1.402   .     A
C982   O1071   1.381   .     S
C983   O1079   1.302   .     A
C983   O1076   1.306   .     A
C983   C988    1.466   .     S
C984   O1072   1.382   .     S
C984   C993    1.402   .     A
C985   O1073   1.383   .     S
C985   C993    1.402   .     A
C986   O1075   1.382   .     S
C986   C995    1.401   .     A
C987   C994    1.461   .     S
C991   C1007   1.466   .     S
C992   C1006   1.461   .     S
C993   C1005   1.442   .     S
C994   O1078   1.299   .     A
C994   O1077   1.307   .     A
C995   C1004   1.442   .     S
C996   H1013   1.082   .     S
C996   C1008   1.476   .     S
C996   O1169   1.221   1_455 S
C997   O1050   1.221   .     D
C997   C1082   1.482   1_455 S
C997   H1144   1.074   1_455 S
C998   O1051   1.221   .     D
C998   H1150   1.072   .     S
C999   O1053   1.221   .     D
C999   H1151   1.073   1_455 S
C1000  H1032   1.074   .     S
C1000  O1054   1.221   .     D
C1001  O1055   1.221   .     D
C1001  H1033   1.082   .     S
C1002  O1056   1.221   .     D
C1002  H1034   1.073   .     S
C1003  H1035   1.072   .     S
C1003  O1057   1.221   .     D
C1004  O1080   1.298   .     A
C1004  O1044   1.297   .     A
C1005  O1042   1.298   .     A
C1005  O1043   1.297   .     A
C1006  O1045   1.307   .     A
C1006  O1048   1.299   .     A
C1007  O1046   1.306   .     A
C1007  O1047   1.302   .     A
C1008  N1038   1.373   .     A
Cu1009 O1077   1.967   .     S
Cu1009 Cu1010  2.711   .     S
Cu1009 N1037   2.037   .     S
Cu1009 O1041   1.952   .     S
Cu1009 O1183   1.949   1_455 S
Cu1009 O1199   1.978   1_455 S
Cu1010 N1038   2.037   .     S
Cu1010 O1074   1.949   .     S
Cu1010 O1078   1.978   .     S
Cu1010 O1172   1.952   1_455 S
Cu1010 O1196   1.967   1_455 S
Cu1011 O1046   1.967   .     S
Cu1011 Cu1012  2.711   .     S
Cu1011 O1043   1.949   .     S
Cu1011 N1039   2.037   .     S
Cu1011 O1288   1.978   1_545 S
Cu1011 O1320   1.952   1_545 S
Cu1012 O1042   1.952   .     S
Cu1012 O1047   1.978   .     S
Cu1012 N1040   2.037   .     S
Cu1012 O1284   1.949   1_545 S
Cu1012 O1285   1.967   1_545 S
H1014  O1059   0.991   .     S
H1015  O1060   0.992   .     S
H1016  O1061   0.992   .     S
H1017  O1062   0.990   .     S
H1018  O1064   0.990   .     S
H1019  O1065   0.990   .     S
H1020  O1066   0.990   .     S
H1021  O1067   0.991   .     S
H1022  O1068   0.990   .     S
H1023  O1069   0.992   .     S
H1024  C1117   1.074   .     S
H1025  O1070   0.992   .     S
H1026  O1071   0.990   .     S
H1027  O1072   0.990   .     S
H1028  O1073   0.990   .     S
H1029  O1075   0.990   .     S
H1030  C1118   1.072   1_455 S
H1031  C1119   1.073   .     S
H1036  O1058   0.990   .     S
N1037  C1082   1.376   1_455 S
N1038  C1083   1.377   1_455 S
N1039  C1208   1.377   1_545 S
N1040  C1205   1.376   1_545 S
O1044  Cu1252  1.949   .     S
O1045  Cu1252  1.967   .     S
O1048  Cu1251  1.978   .     S
O1049  C1116   1.221   .     S
O1052  Cu1130  1.952   .     S
O1063  Cu1129  1.949   .     S
O1076  Cu1130  1.967   .     S
O1079  Cu1129  1.978   .     S
O1080  Cu1251  1.952   .     S
C1081  O1161   1.298   .     A
C1081  O1194   1.297   .     A
C1081  C1110   1.442   .     S
C1082  C123    1.430   1_556 S
C1082  C997    1.482   1_655 S
C1082  N1037   1.376   1_655 S
C1083  C1118   1.483   .     S
C1083  N1038   1.377   1_655 S
C1084  C1119   1.483   .     S
C1084  N1157   1.380   .     A
C1084  C168    1.432   1_556 S
C1085  C1120   1.481   .     S
C1085  N1400   1.376   .     S
C1086  C1121   1.476   .     S
C1086  N1159   1.373   .     A
C1086  C127    1.432   1_556 S
C1087  C1122   1.483   .     S
C1087  N1160   1.380   .     A
C1088  C1123   1.483   .     S
C1088  C125    1.430   1_556 S
C1088  N1399   1.377   .     S
C1089  O1178   1.380   .     S
C1089  C1100   1.385   .     A
C1089  C1108   1.415   .     A
C1090  C1107   1.411   .     A
C1090  C1101   1.387   .     A
C1090  O1179   1.382   .     S
C1091  C1098   1.387   .     A
C1091  O1180   1.371   .     S
C1091  C1107   1.414   .     A
C1092  C1109   1.442   .     S
C1092  O1183   1.297   .     A
C1092  O1172   1.298   .     A
C1093  C1108   1.415   .     A
C1093  C1099   1.385   .     A
C1093  O1181   1.375   .     S
C1094  O1182   1.382   .     S
C1094  C1110   1.402   .     A
C1094  C1105   1.408   .     A
C1095  O1184   1.381   .     S
C1095  C1109   1.402   .     A
C1095  C1106   1.409   .     A
C1096  C1109   1.401   .     A
C1096  O1185   1.382   .     S
C1096  C1102   1.409   .     A
C1097  C1110   1.402   .     A
C1097  C1104   1.408   .     A
C1097  O1186   1.383   .     S
C1098  O1187   1.382   .     S
C1098  C1112   1.411   .     A
C1099  C1111   1.415   .     A
C1099  O1188   1.380   .     S
C1100  O1189   1.375   .     S
C1100  C1111   1.415   .     A
C1101  O1190   1.371   .     S
C1101  C1112   1.414   .     A
C1102  C1115   1.402   .     A
C1102  O1191   1.381   .     S
C1103  O1199   1.302   .     A
C1103  O1196   1.306   .     A
C1103  C1108   1.466   .     S
C1104  O1192   1.382   .     S
C1104  C1113   1.402   .     A
C1105  O1193   1.383   .     S
C1105  C1113   1.402   .     A
C1106  O1195   1.382   .     S
C1106  C1115   1.401   .     A
C1107  C1114   1.461   .     S
C1111  C1127   1.466   .     S
C1112  C1126   1.461   .     S
C1113  C1125   1.442   .     S
C1114  O1198   1.299   .     A
C1114  O1197   1.307   .     A
C1115  C1124   1.442   .     S
C1116  H1133   1.082   .     S
C1116  C1128   1.476   .     S
C1117  O1170   1.221   .     D
C1118  O1171   1.221   .     D
C1118  H1030   1.072   1_655 S
C1119  O1173   1.221   .     D
C1120  H1152   1.074   .     S
C1120  O1174   1.221   .     D
C1121  O1175   1.221   .     D
C1121  H1153   1.082   .     S
C1122  O1176   1.221   .     D
C1122  H1154   1.073   .     S
C1123  H1155   1.072   .     S
C1123  O1177   1.221   .     D
C1124  O1200   1.298   .     A
C1124  O1164   1.297   .     A
C1125  O1162   1.298   .     A
C1125  O1163   1.297   .     A
C1126  O1165   1.307   .     A
C1126  O1168   1.299   .     A
C1127  O1166   1.306   .     A
C1127  O1167   1.302   .     A
C1128  N1158   1.373   .     A
Cu1129 O1197   1.967   .     S
Cu1129 Cu1130  2.711   .     S
Cu1129 N1157   2.037   .     S
Cu1129 O1161   1.952   .     S
Cu1130 N1158   2.037   .     S
Cu1130 O1194   1.949   .     S
Cu1130 O1198   1.978   .     S
Cu1131 O1166   1.967   .     S
Cu1131 Cu1132  2.711   .     S
Cu1131 O1163   1.949   .     S
Cu1131 N1159   2.037   .     S
Cu1131 O1408   1.978   1_545 S
Cu1131 O1440   1.952   1_545 S
Cu1132 O1162   1.952   .     S
Cu1132 O1167   1.978   .     S
Cu1132 N1160   2.037   .     S
Cu1132 O1404   1.949   1_545 S
Cu1132 O1405   1.967   1_545 S
H1134  O1179   0.991   .     S
H1135  O1180   0.992   .     S
H1136  O1181   0.992   .     S
H1137  O1182   0.990   .     S
H1138  O1184   0.990   .     S
H1139  O1185   0.990   .     S
H1140  O1186   0.990   .     S
H1141  O1187   0.991   .     S
H1142  O1188   0.990   .     S
H1143  O1189   0.992   .     S
H1144  C997    1.074   1_655 S
H1145  O1190   0.992   .     S
H1146  O1191   0.990   .     S
H1147  O1192   0.990   .     S
H1148  O1193   0.990   .     S
H1149  O1195   0.990   .     S
H1151  C999    1.073   1_655 S
H1156  O1178   0.990   .     S
N1159  C1328   1.377   1_545 S
N1160  C1325   1.376   1_545 S
O1164  Cu1372  1.949   .     S
O1165  Cu1372  1.967   .     S
O1168  Cu1371  1.978   .     S
O1169  C996    1.221   1_655 S
O1172  Cu1010  1.952   1_655 S
O1183  Cu1009  1.949   1_655 S
O1196  Cu1010  1.967   1_655 S
O1199  Cu1009  1.978   1_655 S
O1200  Cu1371  1.952   .     S
C1201  O1281   1.298   .     A
C1201  O1314   1.297   .     A
C1201  C1230   1.442   .     S
C1202  C243    1.430   1_556 S
C1202  C1357   1.482   .     S
C1202  N1397   1.376   .     S
C1203  C1238   1.483   .     S
C1203  N1398   1.377   .     S
C1204  C1239   1.483   .     S
C1204  N1277   1.380   .     A
C1204  C288    1.432   1_556 S
C1205  C1240   1.481   .     S
C1205  N1040   1.376   1_565 S
C1206  C1241   1.476   .     S
C1206  N1279   1.373   .     A
C1206  C247    1.432   1_556 S
C1207  C1242   1.483   .     S
C1207  N1280   1.380   .     A
C1208  C1243   1.483   .     S
C1208  C245    1.430   1_556 S
C1208  N1039   1.377   1_565 S
C1209  O1298   1.380   .     S
C1209  C1220   1.385   .     A
C1209  C1228   1.415   .     A
C1210  C1227   1.411   .     A
C1210  C1221   1.387   .     A
C1210  O1299   1.382   .     S
C1211  C1218   1.387   .     A
C1211  O1300   1.371   .     S
C1211  C1227   1.414   .     A
C1212  C1229   1.442   .     S
C1212  O1303   1.297   .     A
C1212  O1292   1.298   .     A
C1213  C1228   1.415   .     A
C1213  C1219   1.385   .     A
C1213  O1301   1.375   .     S
C1214  O1302   1.382   .     S
C1214  C1230   1.402   .     A
C1214  C1225   1.408   .     A
C1215  O1304   1.381   .     S
C1215  C1229   1.402   .     A
C1215  C1226   1.409   .     A
C1216  C1229   1.401   .     A
C1216  O1305   1.382   .     S
C1216  C1222   1.409   .     A
C1217  C1230   1.402   .     A
C1217  C1224   1.408   .     A
C1217  O1306   1.383   .     S
C1218  O1307   1.382   .     S
C1218  C1232   1.411   .     A
C1219  C1231   1.415   .     A
C1219  O1308   1.380   .     S
C1220  O1309   1.375   .     S
C1220  C1231   1.415   .     A
C1221  O1310   1.371   .     S
C1221  C1232   1.414   .     A
C1222  C1235   1.402   .     A
C1222  O1311   1.381   .     S
C1223  O1319   1.302   .     A
C1223  O1316   1.306   .     A
C1223  C1228   1.466   .     S
C1224  O1312   1.382   .     S
C1224  C1233   1.402   .     A
C1225  O1313   1.383   .     S
C1225  C1233   1.402   .     A
C1226  O1315   1.382   .     S
C1226  C1235   1.401   .     A
C1227  C1234   1.461   .     S
C1231  C1247   1.466   .     S
C1232  C1246   1.461   .     S
C1233  C1245   1.442   .     S
C1234  O1318   1.299   .     A
C1234  O1317   1.307   .     A
C1235  C1244   1.442   .     S
C1236  H1253   1.082   .     S
C1236  C1248   1.476   .     S
C1236  O1409   1.221   1_455 S
C1237  O1290   1.221   .     D
C1237  C1322   1.482   1_455 S
C1237  H1384   1.074   1_455 S
C1238  O1291   1.221   .     D
C1238  H1390   1.072   .     S
C1239  O1293   1.221   .     D
C1239  H1391   1.073   1_455 S
C1240  H1272   1.074   .     S
C1240  O1294   1.221   .     D
C1241  O1295   1.221   .     D
C1241  H1273   1.082   .     S
C1242  O1296   1.221   .     D
C1242  H1274   1.073   .     S
C1243  H1275   1.072   .     S
C1243  O1297   1.221   .     D
C1244  O1320   1.298   .     A
C1244  O1284   1.297   .     A
C1245  O1282   1.298   .     A
C1245  O1283   1.297   .     A
C1246  O1285   1.307   .     A
C1246  O1288   1.299   .     A
C1247  O1286   1.306   .     A
C1247  O1287   1.302   .     A
C1248  N1278   1.373   .     A
Cu1249 O1317   1.967   .     S
Cu1249 Cu1250  2.711   .     S
Cu1249 N1277   2.037   .     S
Cu1249 O1281   1.952   .     S
Cu1249 O1423   1.949   1_455 S
Cu1249 O1439   1.978   1_455 S
Cu1250 N1278   2.037   .     S
Cu1250 O1314   1.949   .     S
Cu1250 O1318   1.978   .     S
Cu1250 O1412   1.952   1_455 S
Cu1250 O1436   1.967   1_455 S
Cu1251 O1286   1.967   .     S
Cu1251 Cu1252  2.711   .     S
Cu1251 O1283   1.949   .     S
Cu1251 N1279   2.037   .     S
Cu1252 O1282   1.952   .     S
Cu1252 O1287   1.978   .     S
Cu1252 N1280   2.037   .     S
H1254  O1299   0.991   .     S
H1255  O1300   0.992   .     S
H1256  O1301   0.992   .     S
H1257  O1302   0.990   .     S
H1258  O1304   0.990   .     S
H1259  O1305   0.990   .     S
H1260  O1306   0.990   .     S
H1261  O1307   0.991   .     S
H1262  O1308   0.990   .     S
H1263  O1309   0.992   .     S
H1264  C1357   1.074   .     S
H1265  O1310   0.992   .     S
H1266  O1311   0.990   .     S
H1267  O1312   0.990   .     S
H1268  O1313   0.990   .     S
H1269  O1315   0.990   .     S
H1270  C1358   1.072   1_455 S
H1271  C1359   1.073   .     S
H1276  O1298   0.990   .     S
N1277  C1322   1.376   1_455 S
N1278  C1323   1.377   1_455 S
O1284  Cu1012  1.949   1_565 S
O1285  Cu1012  1.967   1_565 S
O1288  Cu1011  1.978   1_565 S
O1289  C1356   1.221   .     S
O1292  Cu1370  1.952   .     S
O1303  Cu1369  1.949   .     S
O1316  Cu1370  1.967   .     S
O1319  Cu1369  1.978   .     S
O1320  Cu1011  1.952   1_565 S
C1321  O1401   1.298   .     A
C1321  O1434   1.297   .     A
C1321  C1350   1.442   .     S
C1322  C363    1.430   1_556 S
C1322  C1237   1.482   1_655 S
C1322  N1277   1.376   1_655 S
C1323  C1358   1.483   .     S
C1323  N1278   1.377   1_655 S
C1324  C1359   1.483   .     S
C1324  N1397   1.380   .     A
C1324  C408    1.432   1_556 S
C1325  C1360   1.481   .     S
C1325  N1160   1.376   1_565 S
C1326  C1361   1.476   .     S
C1326  N1399   1.373   .     A
C1326  C367    1.432   1_556 S
C1327  C1362   1.483   .     S
C1327  N1400   1.380   .     A
C1328  C1363   1.483   .     S
C1328  C365    1.430   1_556 S
C1328  N1159   1.377   1_565 S
C1329  O1418   1.380   .     S
C1329  C1340   1.385   .     A
C1329  C1348   1.415   .     A
C1330  C1347   1.411   .     A
C1330  C1341   1.387   .     A
C1330  O1419   1.382   .     S
C1331  C1338   1.387   .     A
C1331  O1420   1.371   .     S
C1331  C1347   1.414   .     A
C1332  C1349   1.442   .     S
C1332  O1423   1.297   .     A
C1332  O1412   1.298   .     A
C1333  C1348   1.415   .     A
C1333  C1339   1.385   .     A
C1333  O1421   1.375   .     S
C1334  O1422   1.382   .     S
C1334  C1350   1.402   .     A
C1334  C1345   1.408   .     A
C1335  O1424   1.381   .     S
C1335  C1349   1.402   .     A
C1335  C1346   1.409   .     A
C1336  C1349   1.401   .     A
C1336  O1425   1.382   .     S
C1336  C1342   1.409   .     A
C1337  C1350   1.402   .     A
C1337  C1344   1.408   .     A
C1337  O1426   1.383   .     S
C1338  O1427   1.382   .     S
C1338  C1352   1.411   .     A
C1339  C1351   1.415   .     A
C1339  O1428   1.380   .     S
C1340  O1429   1.375   .     S
C1340  C1351   1.415   .     A
C1341  O1430   1.371   .     S
C1341  C1352   1.414   .     A
C1342  C1355   1.402   .     A
C1342  O1431   1.381   .     S
C1343  O1439   1.302   .     A
C1343  O1436   1.306   .     A
C1343  C1348   1.466   .     S
C1344  O1432   1.382   .     S
C1344  C1353   1.402   .     A
C1345  O1433   1.383   .     S
C1345  C1353   1.402   .     A
C1346  O1435   1.382   .     S
C1346  C1355   1.401   .     A
C1347  C1354   1.461   .     S
C1351  C1367   1.466   .     S
C1352  C1366   1.461   .     S
C1353  C1365   1.442   .     S
C1354  O1438   1.299   .     A
C1354  O1437   1.307   .     A
C1355  C1364   1.442   .     S
C1356  H1373   1.082   .     S
C1356  C1368   1.476   .     S
C1357  O1410   1.221   .     D
C1358  O1411   1.221   .     D
C1358  H1270   1.072   1_655 S
C1359  O1413   1.221   .     D
C1360  H1392   1.074   .     S
C1360  O1414   1.221   .     D
C1361  O1415   1.221   .     D
C1361  H1393   1.082   .     S
C1362  O1416   1.221   .     D
C1362  H1394   1.073   .     S
C1363  H1395   1.072   .     S
C1363  O1417   1.221   .     D
C1364  O1440   1.298   .     A
C1364  O1404   1.297   .     A
C1365  O1402   1.298   .     A
C1365  O1403   1.297   .     A
C1366  O1405   1.307   .     A
C1366  O1408   1.299   .     A
C1367  O1406   1.306   .     A
C1367  O1407   1.302   .     A
C1368  N1398   1.373   .     A
Cu1369 O1437   1.967   .     S
Cu1369 Cu1370  2.711   .     S
Cu1369 N1397   2.037   .     S
Cu1369 O1401   1.952   .     S
Cu1370 N1398   2.037   .     S
Cu1370 O1434   1.949   .     S
Cu1370 O1438   1.978   .     S
Cu1371 O1406   1.967   .     S
Cu1371 Cu1372  2.711   .     S
Cu1371 O1403   1.949   .     S
Cu1371 N1399   2.037   .     S
Cu1372 O1402   1.952   .     S
Cu1372 O1407   1.978   .     S
Cu1372 N1400   2.037   .     S
H1374  O1419   0.991   .     S
H1375  O1420   0.992   .     S
H1376  O1421   0.992   .     S
H1377  O1422   0.990   .     S
H1378  O1424   0.990   .     S
H1379  O1425   0.990   .     S
H1380  O1426   0.990   .     S
H1381  O1427   0.991   .     S
H1382  O1428   0.990   .     S
H1383  O1429   0.992   .     S
H1384  C1237   1.074   1_655 S
H1385  O1430   0.992   .     S
H1386  O1431   0.990   .     S
H1387  O1432   0.990   .     S
H1388  O1433   0.990   .     S
H1389  O1435   0.990   .     S
H1391  C1239   1.073   1_655 S
H1396  O1418   0.990   .     S
O1404  Cu1132  1.949   1_565 S
O1405  Cu1132  1.967   1_565 S
O1408  Cu1131  1.978   1_565 S
O1409  C1236   1.221   1_655 S
O1412  Cu1250  1.952   1_655 S
O1423  Cu1249  1.949   1_655 S
O1436  Cu1250  1.967   1_655 S
O1439  Cu1249  1.978   1_655 S
O1440  Cu1131  1.952   1_565 S
