data_str_m2_o10_o17_pcu_sym.151
_audit_creation_date              2020-01-03
_audit_creation_method            'Materials Studio'
_symmetry_space_group_name_H-M    'P1'
_symmetry_Int_Tables_number       1
_symmetry_cell_setting            triclinic
loop_
_symmetry_equiv_pos_as_xyz
  x,y,z
_cell_length_a                    30.1499
_cell_length_b                    26.0912
_cell_length_c                    22.8583
_cell_angle_alpha                 102.9175
_cell_angle_beta                  96.4873
_cell_angle_gamma                 95.6472
loop_
_atom_site_label
_atom_site_type_symbol
_atom_site_fract_x
_atom_site_fract_y
_atom_site_fract_z
_atom_site_U_iso_or_equiv
_atom_site_adp_type
_atom_site_occupancy
C1     C     0.24853   0.06671   0.15108   0.00000  Uiso   1.00
C2     C     0.25147   0.26662   0.18225   0.00000  Uiso   1.00
C3     C     0.01053   0.13168   0.05710   0.00000  Uiso   1.00
C4     C     0.48947   0.20166   0.27623   0.00000  Uiso   1.00
C5     C     0.24795   0.01055   0.14265   0.00000  Uiso   1.00
C6     C     0.25205   0.32278   0.19068   0.00000  Uiso   1.00
C7     C     0.16445   0.16643   0.16632   0.00000  Uiso   1.00
C8     C     0.33555   0.16691   0.16702   0.00000  Uiso   1.00
C9     C     0.41359   0.18379   0.22169   0.00000  Uiso   1.00
C10    C     0.08641   0.14955   0.11164   0.00000  Uiso   1.00
C11    C     0.38409   0.16672   0.16718   0.00000  Uiso   1.00
C12    C     0.11591   0.16661   0.16615   0.00000  Uiso   1.00
C13    C     0.40109   0.14969   0.11234   0.00000  Uiso   1.00
C14    C     0.09891   0.18365   0.22099   0.00000  Uiso   1.00
C15    C     0.44722   0.14933   0.11178   0.00000  Uiso   1.00
C16    C     0.05277   0.18400   0.22156   0.00000  Uiso   1.00
C17    C     0.47675   0.16667   0.16675   0.00000  Uiso   1.00
C18    C     0.02324   0.16666   0.16658   0.00000  Uiso   1.00
C19    C     0.45985   0.18410   0.22188   0.00000  Uiso   1.00
C20    C     0.04015   0.14923   0.11145   0.00000  Uiso   1.00
C21    C     0.46431   0.13184   0.05723   0.00000  Uiso   1.00
C22    C     0.03569   0.20149   0.27610   0.00000  Uiso   1.00
Cu23   Cu    0.25500   0.17246   0.22813   0.00000  Uiso   1.00
Cu24   Cu    0.24499   0.16087   0.10521   0.00000  Uiso   1.00
H25    H     0.40078   0.19739   0.26393   0.00000  Uiso   1.00
H26    H     0.09922   0.13594   0.06941   0.00000  Uiso   1.00
H27    H     0.37844   0.13628   0.07004   0.00000  Uiso   1.00
H28    H     0.12156   0.19705   0.26329   0.00000  Uiso   1.00
H29    H     0.44195   0.11839   0.01472   0.00000  Uiso   1.00
H30    H     0.05805   0.21494   0.31861   0.00000  Uiso   1.00
H31    H     0.02313   0.11793   0.01453   0.00000  Uiso   1.00
H32    H     0.47687   0.21541   0.31881   0.00000  Uiso   1.00
H33    H     0.24418   0.31981   0.09651   0.00000  Uiso   1.00
H34    H     0.25582   0.01352   0.23682   0.00000  Uiso   1.00
N35    N     0.23744   0.15214   0.01284   0.00000  Uiso   1.00
N36    N     0.26255   0.18119   0.32049   0.00000  Uiso   1.00
O37    O     0.25325   0.09538   0.20659   0.00000  Uiso   1.00
O38    O     0.24674   0.23796   0.12674   0.00000  Uiso   1.00
O39    O     0.24480   0.08559   0.10279   0.00000  Uiso   1.00
O40    O     0.25520   0.24774   0.23055   0.00000  Uiso   1.00
O41    O     0.18935   0.17155   0.21857   0.00000  Uiso   1.00
O42    O     0.31064   0.16179   0.11476   0.00000  Uiso   1.00
O43    O     0.18090   0.16176   0.11477   0.00000  Uiso   1.00
O44    O     0.31910   0.17157   0.21857   0.00000  Uiso   1.00
N45    N     0.21103   0.10760   0.30938   0.00000  Uiso   1.00
H46    H     0.20271   0.10899   0.26587   0.00000  Uiso   1.00
C47    C     0.16988   0.09142   0.33067   0.00000  Uiso   1.00
H48    H     0.15068   0.05687   0.29660   0.00000  Uiso   1.00
H49    H     0.14873   0.12416   0.00236   0.00000  Uiso   1.00
H50    H     0.17628   0.07821   0.03967   0.00000  Uiso   1.00
N51    N     0.28897   0.22574   0.02395   0.00000  Uiso   1.00
H52    H     0.29729   0.22435   0.06746   0.00000  Uiso   1.00
C53    C     0.33012   0.24192   0.00266   0.00000  Uiso   1.00
H54    H     0.34932   0.27647   0.03674   0.00000  Uiso   1.00
H55    H     0.32372   0.25512   0.29366   0.00000  Uiso   1.00
H56    H     0.35127   0.20918   0.33097   0.00000  Uiso   1.00
C57    C     0.74853   0.06671   0.15108   0.00000  Uiso   1.00
C58    C     0.75147   0.26662   0.18225   0.00000  Uiso   1.00
C59    C     0.51053   0.13168   0.05710   0.00000  Uiso   1.00
C60    C     0.98947   0.20166   0.27623   0.00000  Uiso   1.00
C61    C     0.74795   0.01055   0.14265   0.00000  Uiso   1.00
C62    C     0.75205   0.32278   0.19068   0.00000  Uiso   1.00
C63    C     0.66445   0.16643   0.16632   0.00000  Uiso   1.00
C64    C     0.83555   0.16691   0.16702   0.00000  Uiso   1.00
C65    C     0.91359   0.18379   0.22169   0.00000  Uiso   1.00
C66    C     0.58641   0.14955   0.11164   0.00000  Uiso   1.00
C67    C     0.88409   0.16672   0.16718   0.00000  Uiso   1.00
C68    C     0.61591   0.16661   0.16615   0.00000  Uiso   1.00
C69    C     0.90109   0.14969   0.11234   0.00000  Uiso   1.00
C70    C     0.59891   0.18365   0.22099   0.00000  Uiso   1.00
C71    C     0.94722   0.14933   0.11178   0.00000  Uiso   1.00
C72    C     0.55277   0.18400   0.22156   0.00000  Uiso   1.00
C73    C     0.97675   0.16667   0.16675   0.00000  Uiso   1.00
C74    C     0.52324   0.16666   0.16658   0.00000  Uiso   1.00
C75    C     0.95985   0.18410   0.22188   0.00000  Uiso   1.00
C76    C     0.54015   0.14923   0.11145   0.00000  Uiso   1.00
C77    C     0.96431   0.13184   0.05723   0.00000  Uiso   1.00
C78    C     0.53569   0.20149   0.27610   0.00000  Uiso   1.00
Cu79   Cu    0.75500   0.17246   0.22813   0.00000  Uiso   1.00
Cu80   Cu    0.74499   0.16087   0.10521   0.00000  Uiso   1.00
H81    H     0.90078   0.19739   0.26393   0.00000  Uiso   1.00
H82    H     0.59922   0.13594   0.06941   0.00000  Uiso   1.00
H83    H     0.87844   0.13628   0.07004   0.00000  Uiso   1.00
H84    H     0.62156   0.19705   0.26329   0.00000  Uiso   1.00
H85    H     0.94195   0.11839   0.01472   0.00000  Uiso   1.00
H86    H     0.55805   0.21494   0.31861   0.00000  Uiso   1.00
H87    H     0.52313   0.11793   0.01453   0.00000  Uiso   1.00
H88    H     0.97687   0.21541   0.31881   0.00000  Uiso   1.00
H89    H     0.74418   0.31981   0.09651   0.00000  Uiso   1.00
H90    H     0.75582   0.01352   0.23682   0.00000  Uiso   1.00
N91    N     0.73744   0.15214   0.01284   0.00000  Uiso   1.00
N92    N     0.76255   0.18119   0.32049   0.00000  Uiso   1.00
O93    O     0.75325   0.09538   0.20659   0.00000  Uiso   1.00
O94    O     0.74674   0.23796   0.12674   0.00000  Uiso   1.00
O95    O     0.74480   0.08559   0.10279   0.00000  Uiso   1.00
O96    O     0.75520   0.24774   0.23055   0.00000  Uiso   1.00
O97    O     0.68935   0.17155   0.21857   0.00000  Uiso   1.00
O98    O     0.81064   0.16179   0.11476   0.00000  Uiso   1.00
O99    O     0.68090   0.16176   0.11477   0.00000  Uiso   1.00
O100   O     0.81910   0.17157   0.21857   0.00000  Uiso   1.00
N101   N     0.71103   0.10760   0.30938   0.00000  Uiso   1.00
H102   H     0.70271   0.10899   0.26587   0.00000  Uiso   1.00
C103   C     0.66988   0.09142   0.33067   0.00000  Uiso   1.00
H104   H     0.65068   0.05687   0.29660   0.00000  Uiso   1.00
H105   H     0.64873   0.12416   0.00236   0.00000  Uiso   1.00
H106   H     0.67628   0.07821   0.03967   0.00000  Uiso   1.00
N107   N     0.78897   0.22574   0.02395   0.00000  Uiso   1.00
H108   H     0.79729   0.22435   0.06746   0.00000  Uiso   1.00
C109   C     0.83012   0.24192   0.00266   0.00000  Uiso   1.00
H110   H     0.84932   0.27647   0.03674   0.00000  Uiso   1.00
H111   H     0.82372   0.25512   0.29366   0.00000  Uiso   1.00
H112   H     0.85127   0.20918   0.33097   0.00000  Uiso   1.00
C113   C     0.24853   0.40004   0.15108   0.00000  Uiso   1.00
C114   C     0.25147   0.59996   0.18225   0.00000  Uiso   1.00
C115   C     0.01053   0.46501   0.05710   0.00000  Uiso   1.00
C116   C     0.48947   0.53499   0.27623   0.00000  Uiso   1.00
C117   C     0.24795   0.34389   0.14265   0.00000  Uiso   1.00
C118   C     0.25205   0.65611   0.19068   0.00000  Uiso   1.00
C119   C     0.16445   0.49976   0.16632   0.00000  Uiso   1.00
C120   C     0.33555   0.50024   0.16702   0.00000  Uiso   1.00
C121   C     0.41359   0.51712   0.22169   0.00000  Uiso   1.00
C122   C     0.08641   0.48288   0.11164   0.00000  Uiso   1.00
C123   C     0.38409   0.50005   0.16718   0.00000  Uiso   1.00
C124   C     0.11591   0.49995   0.16615   0.00000  Uiso   1.00
C125   C     0.40109   0.48302   0.11234   0.00000  Uiso   1.00
C126   C     0.09891   0.51698   0.22099   0.00000  Uiso   1.00
C127   C     0.44722   0.48266   0.11178   0.00000  Uiso   1.00
C128   C     0.05277   0.51733   0.22156   0.00000  Uiso   1.00
C129   C     0.47675   0.50001   0.16675   0.00000  Uiso   1.00
C130   C     0.02324   0.49999   0.16658   0.00000  Uiso   1.00
C131   C     0.45985   0.51743   0.22188   0.00000  Uiso   1.00
C132   C     0.04015   0.48257   0.11145   0.00000  Uiso   1.00
C133   C     0.46431   0.46518   0.05723   0.00000  Uiso   1.00
C134   C     0.03569   0.53482   0.27610   0.00000  Uiso   1.00
Cu135  Cu    0.25500   0.50579   0.22813   0.00000  Uiso   1.00
Cu136  Cu    0.24499   0.49421   0.10521   0.00000  Uiso   1.00
H137   H     0.40078   0.53073   0.26393   0.00000  Uiso   1.00
H138   H     0.09922   0.46927   0.06941   0.00000  Uiso   1.00
H139   H     0.37844   0.46962   0.07004   0.00000  Uiso   1.00
H140   H     0.12156   0.53038   0.26329   0.00000  Uiso   1.00
H141   H     0.44195   0.45173   0.01472   0.00000  Uiso   1.00
H142   H     0.05805   0.54827   0.31861   0.00000  Uiso   1.00
H143   H     0.02313   0.45126   0.01453   0.00000  Uiso   1.00
H144   H     0.47687   0.54874   0.31881   0.00000  Uiso   1.00
H145   H     0.24418   0.65314   0.09651   0.00000  Uiso   1.00
H146   H     0.25582   0.34686   0.23682   0.00000  Uiso   1.00
N147   N     0.23744   0.48547   0.01284   0.00000  Uiso   1.00
N148   N     0.26255   0.51453   0.32049   0.00000  Uiso   1.00
O149   O     0.25325   0.42871   0.20659   0.00000  Uiso   1.00
O150   O     0.24674   0.57129   0.12674   0.00000  Uiso   1.00
O151   O     0.24480   0.41892   0.10279   0.00000  Uiso   1.00
O152   O     0.25520   0.58108   0.23055   0.00000  Uiso   1.00
O153   O     0.18935   0.50488   0.21857   0.00000  Uiso   1.00
O154   O     0.31064   0.49512   0.11476   0.00000  Uiso   1.00
O155   O     0.18090   0.49510   0.11477   0.00000  Uiso   1.00
O156   O     0.31910   0.50490   0.21857   0.00000  Uiso   1.00
N157   N     0.21103   0.44093   0.30938   0.00000  Uiso   1.00
H158   H     0.20271   0.44232   0.26587   0.00000  Uiso   1.00
C159   C     0.16988   0.42475   0.33067   0.00000  Uiso   1.00
H160   H     0.15068   0.39020   0.29660   0.00000  Uiso   1.00
H161   H     0.14873   0.45749   0.00236   0.00000  Uiso   1.00
H162   H     0.17628   0.41154   0.03967   0.00000  Uiso   1.00
N163   N     0.28897   0.55907   0.02395   0.00000  Uiso   1.00
H164   H     0.29729   0.55768   0.06746   0.00000  Uiso   1.00
C165   C     0.33012   0.57525   0.00266   0.00000  Uiso   1.00
H166   H     0.34932   0.60980   0.03674   0.00000  Uiso   1.00
H167   H     0.32372   0.58846   0.29366   0.00000  Uiso   1.00
H168   H     0.35127   0.54251   0.33097   0.00000  Uiso   1.00
C169   C     0.74853   0.40004   0.15108   0.00000  Uiso   1.00
C170   C     0.75147   0.59996   0.18225   0.00000  Uiso   1.00
C171   C     0.51053   0.46501   0.05710   0.00000  Uiso   1.00
C172   C     0.98947   0.53499   0.27623   0.00000  Uiso   1.00
C173   C     0.74795   0.34389   0.14265   0.00000  Uiso   1.00
C174   C     0.75205   0.65611   0.19068   0.00000  Uiso   1.00
C175   C     0.66445   0.49976   0.16632   0.00000  Uiso   1.00
C176   C     0.83555   0.50024   0.16702   0.00000  Uiso   1.00
C177   C     0.91359   0.51712   0.22169   0.00000  Uiso   1.00
C178   C     0.58641   0.48288   0.11164   0.00000  Uiso   1.00
C179   C     0.88409   0.50005   0.16718   0.00000  Uiso   1.00
C180   C     0.61591   0.49995   0.16615   0.00000  Uiso   1.00
C181   C     0.90109   0.48302   0.11234   0.00000  Uiso   1.00
C182   C     0.59891   0.51698   0.22099   0.00000  Uiso   1.00
C183   C     0.94722   0.48266   0.11178   0.00000  Uiso   1.00
C184   C     0.55277   0.51733   0.22156   0.00000  Uiso   1.00
C185   C     0.97675   0.50001   0.16675   0.00000  Uiso   1.00
C186   C     0.52324   0.49999   0.16658   0.00000  Uiso   1.00
C187   C     0.95985   0.51743   0.22188   0.00000  Uiso   1.00
C188   C     0.54015   0.48257   0.11145   0.00000  Uiso   1.00
C189   C     0.96431   0.46518   0.05723   0.00000  Uiso   1.00
C190   C     0.53569   0.53482   0.27610   0.00000  Uiso   1.00
Cu191  Cu    0.75500   0.50579   0.22813   0.00000  Uiso   1.00
Cu192  Cu    0.74499   0.49421   0.10521   0.00000  Uiso   1.00
H193   H     0.90078   0.53073   0.26393   0.00000  Uiso   1.00
H194   H     0.59922   0.46927   0.06941   0.00000  Uiso   1.00
H195   H     0.87844   0.46962   0.07004   0.00000  Uiso   1.00
H196   H     0.62156   0.53038   0.26329   0.00000  Uiso   1.00
H197   H     0.94195   0.45173   0.01472   0.00000  Uiso   1.00
H198   H     0.55805   0.54827   0.31861   0.00000  Uiso   1.00
H199   H     0.52313   0.45126   0.01453   0.00000  Uiso   1.00
H200   H     0.97687   0.54874   0.31881   0.00000  Uiso   1.00
H201   H     0.74418   0.65314   0.09651   0.00000  Uiso   1.00
H202   H     0.75582   0.34686   0.23682   0.00000  Uiso   1.00
N203   N     0.73744   0.48547   0.01284   0.00000  Uiso   1.00
N204   N     0.76255   0.51453   0.32049   0.00000  Uiso   1.00
O205   O     0.75325   0.42871   0.20659   0.00000  Uiso   1.00
O206   O     0.74674   0.57129   0.12674   0.00000  Uiso   1.00
O207   O     0.74480   0.41892   0.10279   0.00000  Uiso   1.00
O208   O     0.75520   0.58108   0.23055   0.00000  Uiso   1.00
O209   O     0.68935   0.50488   0.21857   0.00000  Uiso   1.00
O210   O     0.81064   0.49512   0.11476   0.00000  Uiso   1.00
O211   O     0.68090   0.49510   0.11477   0.00000  Uiso   1.00
O212   O     0.81910   0.50490   0.21857   0.00000  Uiso   1.00
N213   N     0.71103   0.44093   0.30938   0.00000  Uiso   1.00
H214   H     0.70271   0.44232   0.26587   0.00000  Uiso   1.00
C215   C     0.66988   0.42475   0.33067   0.00000  Uiso   1.00
H216   H     0.65068   0.39020   0.29660   0.00000  Uiso   1.00
H217   H     0.64873   0.45749   0.00236   0.00000  Uiso   1.00
H218   H     0.67628   0.41154   0.03967   0.00000  Uiso   1.00
N219   N     0.78897   0.55907   0.02395   0.00000  Uiso   1.00
H220   H     0.79729   0.55768   0.06746   0.00000  Uiso   1.00
C221   C     0.83012   0.57525   0.00266   0.00000  Uiso   1.00
H222   H     0.84932   0.60980   0.03674   0.00000  Uiso   1.00
H223   H     0.82372   0.58846   0.29366   0.00000  Uiso   1.00
H224   H     0.85127   0.54251   0.33097   0.00000  Uiso   1.00
C225   C     0.24853   0.73338   0.15108   0.00000  Uiso   1.00
C226   C     0.25147   0.93329   0.18225   0.00000  Uiso   1.00
C227   C     0.01053   0.79834   0.05710   0.00000  Uiso   1.00
C228   C     0.48947   0.86832   0.27623   0.00000  Uiso   1.00
C229   C     0.24795   0.67722   0.14265   0.00000  Uiso   1.00
C230   C     0.25205   0.98945   0.19068   0.00000  Uiso   1.00
C231   C     0.16445   0.83309   0.16632   0.00000  Uiso   1.00
C232   C     0.33555   0.83357   0.16702   0.00000  Uiso   1.00
C233   C     0.41359   0.85045   0.22169   0.00000  Uiso   1.00
C234   C     0.08641   0.81621   0.11164   0.00000  Uiso   1.00
C235   C     0.38409   0.83338   0.16718   0.00000  Uiso   1.00
C236   C     0.11591   0.83328   0.16615   0.00000  Uiso   1.00
C237   C     0.40109   0.81635   0.11234   0.00000  Uiso   1.00
C238   C     0.09891   0.85031   0.22099   0.00000  Uiso   1.00
C239   C     0.44722   0.81600   0.11178   0.00000  Uiso   1.00
C240   C     0.05277   0.85067   0.22156   0.00000  Uiso   1.00
C241   C     0.47675   0.83334   0.16675   0.00000  Uiso   1.00
C242   C     0.02324   0.83332   0.16658   0.00000  Uiso   1.00
C243   C     0.45985   0.85077   0.22188   0.00000  Uiso   1.00
C244   C     0.04015   0.81590   0.11145   0.00000  Uiso   1.00
C245   C     0.46431   0.79851   0.05723   0.00000  Uiso   1.00
C246   C     0.03569   0.86816   0.27610   0.00000  Uiso   1.00
Cu247  Cu    0.25500   0.83913   0.22813   0.00000  Uiso   1.00
Cu248  Cu    0.24499   0.82754   0.10521   0.00000  Uiso   1.00
H249   H     0.40078   0.86406   0.26393   0.00000  Uiso   1.00
H250   H     0.09922   0.80261   0.06941   0.00000  Uiso   1.00
H251   H     0.37844   0.80295   0.07004   0.00000  Uiso   1.00
H252   H     0.12156   0.86372   0.26329   0.00000  Uiso   1.00
H253   H     0.44195   0.78506   0.01472   0.00000  Uiso   1.00
H254   H     0.05805   0.88161   0.31861   0.00000  Uiso   1.00
H255   H     0.02313   0.78460   0.01453   0.00000  Uiso   1.00
H256   H     0.47687   0.88208   0.31881   0.00000  Uiso   1.00
H257   H     0.24418   0.98648   0.09651   0.00000  Uiso   1.00
H258   H     0.25582   0.68019   0.23682   0.00000  Uiso   1.00
N259   N     0.23744   0.81881   0.01284   0.00000  Uiso   1.00
N260   N     0.26255   0.84786   0.32049   0.00000  Uiso   1.00
O261   O     0.25325   0.76204   0.20659   0.00000  Uiso   1.00
O262   O     0.24674   0.90462   0.12674   0.00000  Uiso   1.00
O263   O     0.24480   0.75226   0.10279   0.00000  Uiso   1.00
O264   O     0.25520   0.91441   0.23055   0.00000  Uiso   1.00
O265   O     0.18935   0.83821   0.21857   0.00000  Uiso   1.00
O266   O     0.31064   0.82845   0.11476   0.00000  Uiso   1.00
O267   O     0.18090   0.82843   0.11477   0.00000  Uiso   1.00
O268   O     0.31910   0.83824   0.21857   0.00000  Uiso   1.00
N269   N     0.21103   0.77426   0.30938   0.00000  Uiso   1.00
H270   H     0.20271   0.77565   0.26587   0.00000  Uiso   1.00
C271   C     0.16988   0.75808   0.33067   0.00000  Uiso   1.00
H272   H     0.15068   0.72353   0.29660   0.00000  Uiso   1.00
H273   H     0.14873   0.79082   0.00236   0.00000  Uiso   1.00
H274   H     0.17628   0.74488   0.03967   0.00000  Uiso   1.00
N275   N     0.28897   0.89240   0.02395   0.00000  Uiso   1.00
H276   H     0.29729   0.89101   0.06746   0.00000  Uiso   1.00
C277   C     0.33012   0.90858   0.00266   0.00000  Uiso   1.00
H278   H     0.34932   0.94313   0.03674   0.00000  Uiso   1.00
H279   H     0.32372   0.92179   0.29366   0.00000  Uiso   1.00
H280   H     0.35127   0.87584   0.33097   0.00000  Uiso   1.00
C281   C     0.74853   0.73338   0.15108   0.00000  Uiso   1.00
C282   C     0.75147   0.93329   0.18225   0.00000  Uiso   1.00
C283   C     0.51053   0.79834   0.05710   0.00000  Uiso   1.00
C284   C     0.98947   0.86832   0.27623   0.00000  Uiso   1.00
C285   C     0.74795   0.67722   0.14265   0.00000  Uiso   1.00
C286   C     0.75205   0.98945   0.19068   0.00000  Uiso   1.00
C287   C     0.66445   0.83309   0.16632   0.00000  Uiso   1.00
C288   C     0.83555   0.83357   0.16702   0.00000  Uiso   1.00
C289   C     0.91359   0.85045   0.22169   0.00000  Uiso   1.00
C290   C     0.58641   0.81621   0.11164   0.00000  Uiso   1.00
C291   C     0.88409   0.83338   0.16718   0.00000  Uiso   1.00
C292   C     0.61591   0.83328   0.16615   0.00000  Uiso   1.00
C293   C     0.90109   0.81635   0.11234   0.00000  Uiso   1.00
C294   C     0.59891   0.85031   0.22099   0.00000  Uiso   1.00
C295   C     0.94722   0.81600   0.11178   0.00000  Uiso   1.00
C296   C     0.55277   0.85067   0.22156   0.00000  Uiso   1.00
C297   C     0.97675   0.83334   0.16675   0.00000  Uiso   1.00
C298   C     0.52324   0.83332   0.16658   0.00000  Uiso   1.00
C299   C     0.95985   0.85077   0.22188   0.00000  Uiso   1.00
C300   C     0.54015   0.81590   0.11145   0.00000  Uiso   1.00
C301   C     0.96431   0.79851   0.05723   0.00000  Uiso   1.00
C302   C     0.53569   0.86816   0.27610   0.00000  Uiso   1.00
Cu303  Cu    0.75500   0.83913   0.22813   0.00000  Uiso   1.00
Cu304  Cu    0.74499   0.82754   0.10521   0.00000  Uiso   1.00
H305   H     0.90078   0.86406   0.26393   0.00000  Uiso   1.00
H306   H     0.59922   0.80261   0.06941   0.00000  Uiso   1.00
H307   H     0.87844   0.80295   0.07004   0.00000  Uiso   1.00
H308   H     0.62156   0.86372   0.26329   0.00000  Uiso   1.00
H309   H     0.94195   0.78506   0.01472   0.00000  Uiso   1.00
H310   H     0.55805   0.88161   0.31861   0.00000  Uiso   1.00
H311   H     0.52313   0.78460   0.01453   0.00000  Uiso   1.00
H312   H     0.97687   0.88208   0.31881   0.00000  Uiso   1.00
H313   H     0.74418   0.98648   0.09651   0.00000  Uiso   1.00
H314   H     0.75582   0.68019   0.23682   0.00000  Uiso   1.00
N315   N     0.73744   0.81881   0.01284   0.00000  Uiso   1.00
N316   N     0.76255   0.84786   0.32049   0.00000  Uiso   1.00
O317   O     0.75325   0.76204   0.20659   0.00000  Uiso   1.00
O318   O     0.74674   0.90462   0.12674   0.00000  Uiso   1.00
O319   O     0.74480   0.75226   0.10279   0.00000  Uiso   1.00
O320   O     0.75520   0.91441   0.23055   0.00000  Uiso   1.00
O321   O     0.68935   0.83821   0.21857   0.00000  Uiso   1.00
O322   O     0.81064   0.82845   0.11476   0.00000  Uiso   1.00
O323   O     0.68090   0.82843   0.11477   0.00000  Uiso   1.00
O324   O     0.81910   0.83824   0.21857   0.00000  Uiso   1.00
N325   N     0.71103   0.77426   0.30938   0.00000  Uiso   1.00
H326   H     0.70271   0.77565   0.26587   0.00000  Uiso   1.00
C327   C     0.66988   0.75808   0.33067   0.00000  Uiso   1.00
H328   H     0.65068   0.72353   0.29660   0.00000  Uiso   1.00
H329   H     0.64873   0.79082   0.00236   0.00000  Uiso   1.00
H330   H     0.67628   0.74488   0.03967   0.00000  Uiso   1.00
N331   N     0.78897   0.89240   0.02395   0.00000  Uiso   1.00
H332   H     0.79729   0.89101   0.06746   0.00000  Uiso   1.00
C333   C     0.83012   0.90858   0.00266   0.00000  Uiso   1.00
H334   H     0.84932   0.94313   0.03674   0.00000  Uiso   1.00
H335   H     0.82372   0.92179   0.29366   0.00000  Uiso   1.00
H336   H     0.85127   0.87584   0.33097   0.00000  Uiso   1.00
C337   C     0.24853   0.06671   0.48442   0.00000  Uiso   1.00
C338   C     0.25147   0.26662   0.51558   0.00000  Uiso   1.00
C339   C     0.01053   0.13168   0.39044   0.00000  Uiso   1.00
C340   C     0.48947   0.20166   0.60956   0.00000  Uiso   1.00
C341   C     0.24795   0.01055   0.47598   0.00000  Uiso   1.00
C342   C     0.25205   0.32278   0.52402   0.00000  Uiso   1.00
C343   C     0.16445   0.16643   0.49965   0.00000  Uiso   1.00
C344   C     0.33555   0.16691   0.50035   0.00000  Uiso   1.00
C345   C     0.41359   0.18379   0.55503   0.00000  Uiso   1.00
C346   C     0.08641   0.14955   0.44497   0.00000  Uiso   1.00
C347   C     0.38409   0.16672   0.50052   0.00000  Uiso   1.00
C348   C     0.11591   0.16661   0.49948   0.00000  Uiso   1.00
C349   C     0.40109   0.14969   0.44567   0.00000  Uiso   1.00
C350   C     0.09891   0.18365   0.55433   0.00000  Uiso   1.00
C351   C     0.44722   0.14933   0.44511   0.00000  Uiso   1.00
C352   C     0.05277   0.18400   0.55489   0.00000  Uiso   1.00
C353   C     0.47675   0.16667   0.50008   0.00000  Uiso   1.00
C354   C     0.02324   0.16666   0.49992   0.00000  Uiso   1.00
C355   C     0.45985   0.18410   0.55522   0.00000  Uiso   1.00
C356   C     0.04015   0.14923   0.44478   0.00000  Uiso   1.00
C357   C     0.46431   0.13184   0.39057   0.00000  Uiso   1.00
C358   C     0.03569   0.20149   0.60943   0.00000  Uiso   1.00
Cu359  Cu    0.25500   0.17246   0.56146   0.00000  Uiso   1.00
Cu360  Cu    0.24499   0.16087   0.43854   0.00000  Uiso   1.00
H361   H     0.40078   0.19739   0.59726   0.00000  Uiso   1.00
H362   H     0.09922   0.13594   0.40274   0.00000  Uiso   1.00
H363   H     0.37844   0.13628   0.40338   0.00000  Uiso   1.00
H364   H     0.12156   0.19705   0.59662   0.00000  Uiso   1.00
H365   H     0.44195   0.11839   0.34806   0.00000  Uiso   1.00
H366   H     0.05805   0.21494   0.65194   0.00000  Uiso   1.00
H367   H     0.02313   0.11793   0.34786   0.00000  Uiso   1.00
H368   H     0.47687   0.21541   0.65214   0.00000  Uiso   1.00
H369   H     0.24418   0.31981   0.42985   0.00000  Uiso   1.00
H370   H     0.25582   0.01352   0.57015   0.00000  Uiso   1.00
N371   N     0.23744   0.15214   0.34617   0.00000  Uiso   1.00
N372   N     0.26255   0.18119   0.65383   0.00000  Uiso   1.00
O373   O     0.25325   0.09538   0.53992   0.00000  Uiso   1.00
O374   O     0.24674   0.23796   0.46008   0.00000  Uiso   1.00
O375   O     0.24480   0.08559   0.43612   0.00000  Uiso   1.00
O376   O     0.25520   0.24774   0.56388   0.00000  Uiso   1.00
O377   O     0.18935   0.17155   0.55191   0.00000  Uiso   1.00
O378   O     0.31064   0.16179   0.44809   0.00000  Uiso   1.00
O379   O     0.18090   0.16176   0.44810   0.00000  Uiso   1.00
O380   O     0.31910   0.17157   0.55190   0.00000  Uiso   1.00
N381   N     0.21103   0.10760   0.64271   0.00000  Uiso   1.00
H382   H     0.20271   0.10899   0.59920   0.00000  Uiso   1.00
C383   C     0.16988   0.09142   0.66401   0.00000  Uiso   1.00
H384   H     0.15068   0.05687   0.62993   0.00000  Uiso   1.00
H385   H     0.14873   0.12416   0.33569   0.00000  Uiso   1.00
H386   H     0.17628   0.07821   0.37300   0.00000  Uiso   1.00
N387   N     0.28897   0.22574   0.35729   0.00000  Uiso   1.00
H388   H     0.29729   0.22435   0.40080   0.00000  Uiso   1.00
C389   C     0.33012   0.24192   0.33599   0.00000  Uiso   1.00
H390   H     0.34932   0.27647   0.37007   0.00000  Uiso   1.00
H391   H     0.32372   0.25512   0.62700   0.00000  Uiso   1.00
H392   H     0.35127   0.20918   0.66431   0.00000  Uiso   1.00
C393   C     0.74853   0.06671   0.48442   0.00000  Uiso   1.00
C394   C     0.75147   0.26662   0.51558   0.00000  Uiso   1.00
C395   C     0.51053   0.13168   0.39044   0.00000  Uiso   1.00
C396   C     0.98947   0.20166   0.60956   0.00000  Uiso   1.00
C397   C     0.74795   0.01055   0.47598   0.00000  Uiso   1.00
C398   C     0.75205   0.32278   0.52402   0.00000  Uiso   1.00
C399   C     0.66445   0.16643   0.49965   0.00000  Uiso   1.00
C400   C     0.83555   0.16691   0.50035   0.00000  Uiso   1.00
C401   C     0.91359   0.18379   0.55503   0.00000  Uiso   1.00
C402   C     0.58641   0.14955   0.44497   0.00000  Uiso   1.00
C403   C     0.88409   0.16672   0.50052   0.00000  Uiso   1.00
C404   C     0.61591   0.16661   0.49948   0.00000  Uiso   1.00
C405   C     0.90109   0.14969   0.44567   0.00000  Uiso   1.00
C406   C     0.59891   0.18365   0.55433   0.00000  Uiso   1.00
C407   C     0.94722   0.14933   0.44511   0.00000  Uiso   1.00
C408   C     0.55277   0.18400   0.55489   0.00000  Uiso   1.00
C409   C     0.97675   0.16667   0.50008   0.00000  Uiso   1.00
C410   C     0.52324   0.16666   0.49992   0.00000  Uiso   1.00
C411   C     0.95985   0.18410   0.55522   0.00000  Uiso   1.00
C412   C     0.54015   0.14923   0.44478   0.00000  Uiso   1.00
C413   C     0.96431   0.13184   0.39057   0.00000  Uiso   1.00
C414   C     0.53569   0.20149   0.60943   0.00000  Uiso   1.00
Cu415  Cu    0.75500   0.17246   0.56146   0.00000  Uiso   1.00
Cu416  Cu    0.74499   0.16087   0.43854   0.00000  Uiso   1.00
H417   H     0.90078   0.19739   0.59726   0.00000  Uiso   1.00
H418   H     0.59922   0.13594   0.40274   0.00000  Uiso   1.00
H419   H     0.87844   0.13628   0.40338   0.00000  Uiso   1.00
H420   H     0.62156   0.19705   0.59662   0.00000  Uiso   1.00
H421   H     0.94195   0.11839   0.34806   0.00000  Uiso   1.00
H422   H     0.55805   0.21494   0.65194   0.00000  Uiso   1.00
H423   H     0.52313   0.11793   0.34786   0.00000  Uiso   1.00
H424   H     0.97687   0.21541   0.65214   0.00000  Uiso   1.00
H425   H     0.74418   0.31981   0.42985   0.00000  Uiso   1.00
H426   H     0.75582   0.01352   0.57015   0.00000  Uiso   1.00
N427   N     0.73744   0.15214   0.34617   0.00000  Uiso   1.00
N428   N     0.76255   0.18119   0.65383   0.00000  Uiso   1.00
O429   O     0.75325   0.09538   0.53992   0.00000  Uiso   1.00
O430   O     0.74674   0.23796   0.46008   0.00000  Uiso   1.00
O431   O     0.74480   0.08559   0.43612   0.00000  Uiso   1.00
O432   O     0.75520   0.24774   0.56388   0.00000  Uiso   1.00
O433   O     0.68935   0.17155   0.55191   0.00000  Uiso   1.00
O434   O     0.81064   0.16179   0.44809   0.00000  Uiso   1.00
O435   O     0.68090   0.16176   0.44810   0.00000  Uiso   1.00
O436   O     0.81910   0.17157   0.55190   0.00000  Uiso   1.00
N437   N     0.71103   0.10760   0.64271   0.00000  Uiso   1.00
H438   H     0.70271   0.10899   0.59920   0.00000  Uiso   1.00
C439   C     0.66988   0.09142   0.66401   0.00000  Uiso   1.00
H440   H     0.65068   0.05687   0.62993   0.00000  Uiso   1.00
H441   H     0.64873   0.12416   0.33569   0.00000  Uiso   1.00
H442   H     0.67628   0.07821   0.37300   0.00000  Uiso   1.00
N443   N     0.78897   0.22574   0.35729   0.00000  Uiso   1.00
H444   H     0.79729   0.22435   0.40080   0.00000  Uiso   1.00
C445   C     0.83012   0.24192   0.33599   0.00000  Uiso   1.00
H446   H     0.84932   0.27647   0.37007   0.00000  Uiso   1.00
H447   H     0.82372   0.25512   0.62700   0.00000  Uiso   1.00
H448   H     0.85127   0.20918   0.66431   0.00000  Uiso   1.00
C449   C     0.24853   0.40004   0.48442   0.00000  Uiso   1.00
C450   C     0.25147   0.59996   0.51558   0.00000  Uiso   1.00
C451   C     0.01053   0.46501   0.39044   0.00000  Uiso   1.00
C452   C     0.48947   0.53499   0.60956   0.00000  Uiso   1.00
C453   C     0.24795   0.34389   0.47598   0.00000  Uiso   1.00
C454   C     0.25205   0.65611   0.52402   0.00000  Uiso   1.00
C455   C     0.16445   0.49976   0.49965   0.00000  Uiso   1.00
C456   C     0.33555   0.50024   0.50035   0.00000  Uiso   1.00
C457   C     0.41359   0.51712   0.55503   0.00000  Uiso   1.00
C458   C     0.08641   0.48288   0.44497   0.00000  Uiso   1.00
C459   C     0.38409   0.50005   0.50052   0.00000  Uiso   1.00
C460   C     0.11591   0.49995   0.49948   0.00000  Uiso   1.00
C461   C     0.40109   0.48302   0.44567   0.00000  Uiso   1.00
C462   C     0.09891   0.51698   0.55433   0.00000  Uiso   1.00
C463   C     0.44722   0.48266   0.44511   0.00000  Uiso   1.00
C464   C     0.05277   0.51733   0.55489   0.00000  Uiso   1.00
C465   C     0.47675   0.50001   0.50008   0.00000  Uiso   1.00
C466   C     0.02324   0.49999   0.49992   0.00000  Uiso   1.00
C467   C     0.45985   0.51743   0.55522   0.00000  Uiso   1.00
C468   C     0.04015   0.48257   0.44478   0.00000  Uiso   1.00
C469   C     0.46431   0.46518   0.39057   0.00000  Uiso   1.00
C470   C     0.03569   0.53482   0.60943   0.00000  Uiso   1.00
Cu471  Cu    0.25500   0.50579   0.56146   0.00000  Uiso   1.00
Cu472  Cu    0.24499   0.49421   0.43854   0.00000  Uiso   1.00
H473   H     0.40078   0.53073   0.59726   0.00000  Uiso   1.00
H474   H     0.09922   0.46927   0.40274   0.00000  Uiso   1.00
H475   H     0.37844   0.46962   0.40338   0.00000  Uiso   1.00
H476   H     0.12156   0.53038   0.59662   0.00000  Uiso   1.00
H477   H     0.44195   0.45173   0.34806   0.00000  Uiso   1.00
H478   H     0.05805   0.54827   0.65194   0.00000  Uiso   1.00
H479   H     0.02313   0.45126   0.34786   0.00000  Uiso   1.00
H480   H     0.47687   0.54874   0.65214   0.00000  Uiso   1.00
H481   H     0.24418   0.65314   0.42985   0.00000  Uiso   1.00
H482   H     0.25582   0.34686   0.57015   0.00000  Uiso   1.00
N483   N     0.23744   0.48547   0.34617   0.00000  Uiso   1.00
N484   N     0.26255   0.51453   0.65383   0.00000  Uiso   1.00
O485   O     0.25325   0.42871   0.53992   0.00000  Uiso   1.00
O486   O     0.24674   0.57129   0.46008   0.00000  Uiso   1.00
O487   O     0.24480   0.41892   0.43612   0.00000  Uiso   1.00
O488   O     0.25520   0.58108   0.56388   0.00000  Uiso   1.00
O489   O     0.18935   0.50488   0.55191   0.00000  Uiso   1.00
O490   O     0.31064   0.49512   0.44809   0.00000  Uiso   1.00
O491   O     0.18090   0.49510   0.44810   0.00000  Uiso   1.00
O492   O     0.31910   0.50490   0.55190   0.00000  Uiso   1.00
N493   N     0.21103   0.44093   0.64271   0.00000  Uiso   1.00
H494   H     0.20271   0.44232   0.59920   0.00000  Uiso   1.00
C495   C     0.16988   0.42475   0.66401   0.00000  Uiso   1.00
H496   H     0.15068   0.39020   0.62993   0.00000  Uiso   1.00
H497   H     0.14873   0.45749   0.33569   0.00000  Uiso   1.00
H498   H     0.17628   0.41154   0.37300   0.00000  Uiso   1.00
N499   N     0.28897   0.55907   0.35729   0.00000  Uiso   1.00
H500   H     0.29729   0.55768   0.40080   0.00000  Uiso   1.00
C501   C     0.33012   0.57525   0.33599   0.00000  Uiso   1.00
H502   H     0.34932   0.60980   0.37007   0.00000  Uiso   1.00
H503   H     0.32372   0.58846   0.62700   0.00000  Uiso   1.00
H504   H     0.35127   0.54251   0.66431   0.00000  Uiso   1.00
C505   C     0.74853   0.40004   0.48442   0.00000  Uiso   1.00
C506   C     0.75147   0.59996   0.51558   0.00000  Uiso   1.00
C507   C     0.51053   0.46501   0.39044   0.00000  Uiso   1.00
C508   C     0.98947   0.53499   0.60956   0.00000  Uiso   1.00
C509   C     0.74795   0.34389   0.47598   0.00000  Uiso   1.00
C510   C     0.75205   0.65611   0.52402   0.00000  Uiso   1.00
C511   C     0.66445   0.49976   0.49965   0.00000  Uiso   1.00
C512   C     0.83555   0.50024   0.50035   0.00000  Uiso   1.00
C513   C     0.91359   0.51712   0.55503   0.00000  Uiso   1.00
C514   C     0.58641   0.48288   0.44497   0.00000  Uiso   1.00
C515   C     0.88409   0.50005   0.50052   0.00000  Uiso   1.00
C516   C     0.61591   0.49995   0.49948   0.00000  Uiso   1.00
C517   C     0.90109   0.48302   0.44567   0.00000  Uiso   1.00
C518   C     0.59891   0.51698   0.55433   0.00000  Uiso   1.00
C519   C     0.94722   0.48266   0.44511   0.00000  Uiso   1.00
C520   C     0.55277   0.51733   0.55489   0.00000  Uiso   1.00
C521   C     0.97675   0.50001   0.50008   0.00000  Uiso   1.00
C522   C     0.52324   0.49999   0.49992   0.00000  Uiso   1.00
C523   C     0.95985   0.51743   0.55522   0.00000  Uiso   1.00
C524   C     0.54015   0.48257   0.44478   0.00000  Uiso   1.00
C525   C     0.96431   0.46518   0.39057   0.00000  Uiso   1.00
C526   C     0.53569   0.53482   0.60943   0.00000  Uiso   1.00
Cu527  Cu    0.75500   0.50579   0.56146   0.00000  Uiso   1.00
Cu528  Cu    0.74499   0.49421   0.43854   0.00000  Uiso   1.00
H529   H     0.90078   0.53073   0.59726   0.00000  Uiso   1.00
H530   H     0.59922   0.46927   0.40274   0.00000  Uiso   1.00
H531   H     0.87844   0.46962   0.40338   0.00000  Uiso   1.00
H532   H     0.62156   0.53038   0.59662   0.00000  Uiso   1.00
H533   H     0.94195   0.45173   0.34806   0.00000  Uiso   1.00
H534   H     0.55805   0.54827   0.65194   0.00000  Uiso   1.00
H535   H     0.52313   0.45126   0.34786   0.00000  Uiso   1.00
H536   H     0.97687   0.54874   0.65214   0.00000  Uiso   1.00
H537   H     0.74418   0.65314   0.42985   0.00000  Uiso   1.00
H538   H     0.75582   0.34686   0.57015   0.00000  Uiso   1.00
N539   N     0.73744   0.48547   0.34617   0.00000  Uiso   1.00
N540   N     0.76255   0.51453   0.65383   0.00000  Uiso   1.00
O541   O     0.75325   0.42871   0.53992   0.00000  Uiso   1.00
O542   O     0.74674   0.57129   0.46008   0.00000  Uiso   1.00
O543   O     0.74480   0.41892   0.43612   0.00000  Uiso   1.00
O544   O     0.75520   0.58108   0.56388   0.00000  Uiso   1.00
O545   O     0.68935   0.50488   0.55191   0.00000  Uiso   1.00
O546   O     0.81064   0.49512   0.44809   0.00000  Uiso   1.00
O547   O     0.68090   0.49510   0.44810   0.00000  Uiso   1.00
O548   O     0.81910   0.50490   0.55190   0.00000  Uiso   1.00
N549   N     0.71103   0.44093   0.64271   0.00000  Uiso   1.00
H550   H     0.70271   0.44232   0.59920   0.00000  Uiso   1.00
C551   C     0.66988   0.42475   0.66401   0.00000  Uiso   1.00
H552   H     0.65068   0.39020   0.62993   0.00000  Uiso   1.00
H553   H     0.64873   0.45749   0.33569   0.00000  Uiso   1.00
H554   H     0.67628   0.41154   0.37300   0.00000  Uiso   1.00
N555   N     0.78897   0.55907   0.35729   0.00000  Uiso   1.00
H556   H     0.79729   0.55768   0.40080   0.00000  Uiso   1.00
C557   C     0.83012   0.57525   0.33599   0.00000  Uiso   1.00
H558   H     0.84932   0.60980   0.37007   0.00000  Uiso   1.00
H559   H     0.82372   0.58846   0.62700   0.00000  Uiso   1.00
H560   H     0.85127   0.54251   0.66431   0.00000  Uiso   1.00
C561   C     0.24853   0.73338   0.48442   0.00000  Uiso   1.00
C562   C     0.25147   0.93329   0.51558   0.00000  Uiso   1.00
C563   C     0.01053   0.79834   0.39044   0.00000  Uiso   1.00
C564   C     0.48947   0.86832   0.60956   0.00000  Uiso   1.00
C565   C     0.24795   0.67722   0.47598   0.00000  Uiso   1.00
C566   C     0.25205   0.98945   0.52402   0.00000  Uiso   1.00
C567   C     0.16445   0.83309   0.49965   0.00000  Uiso   1.00
C568   C     0.33555   0.83357   0.50035   0.00000  Uiso   1.00
C569   C     0.41359   0.85045   0.55503   0.00000  Uiso   1.00
C570   C     0.08641   0.81621   0.44497   0.00000  Uiso   1.00
C571   C     0.38409   0.83338   0.50052   0.00000  Uiso   1.00
C572   C     0.11591   0.83328   0.49948   0.00000  Uiso   1.00
C573   C     0.40109   0.81635   0.44567   0.00000  Uiso   1.00
C574   C     0.09891   0.85031   0.55433   0.00000  Uiso   1.00
C575   C     0.44722   0.81600   0.44511   0.00000  Uiso   1.00
C576   C     0.05277   0.85067   0.55489   0.00000  Uiso   1.00
C577   C     0.47675   0.83334   0.50008   0.00000  Uiso   1.00
C578   C     0.02324   0.83332   0.49992   0.00000  Uiso   1.00
C579   C     0.45985   0.85077   0.55522   0.00000  Uiso   1.00
C580   C     0.04015   0.81590   0.44478   0.00000  Uiso   1.00
C581   C     0.46431   0.79851   0.39057   0.00000  Uiso   1.00
C582   C     0.03569   0.86816   0.60943   0.00000  Uiso   1.00
Cu583  Cu    0.25500   0.83913   0.56146   0.00000  Uiso   1.00
Cu584  Cu    0.24499   0.82754   0.43854   0.00000  Uiso   1.00
H585   H     0.40078   0.86406   0.59726   0.00000  Uiso   1.00
H586   H     0.09922   0.80261   0.40274   0.00000  Uiso   1.00
H587   H     0.37844   0.80295   0.40338   0.00000  Uiso   1.00
H588   H     0.12156   0.86372   0.59662   0.00000  Uiso   1.00
H589   H     0.44195   0.78506   0.34806   0.00000  Uiso   1.00
H590   H     0.05805   0.88161   0.65194   0.00000  Uiso   1.00
H591   H     0.02313   0.78460   0.34786   0.00000  Uiso   1.00
H592   H     0.47687   0.88208   0.65214   0.00000  Uiso   1.00
H593   H     0.24418   0.98648   0.42985   0.00000  Uiso   1.00
H594   H     0.25582   0.68019   0.57015   0.00000  Uiso   1.00
N595   N     0.23744   0.81881   0.34617   0.00000  Uiso   1.00
N596   N     0.26255   0.84786   0.65383   0.00000  Uiso   1.00
O597   O     0.25325   0.76204   0.53992   0.00000  Uiso   1.00
O598   O     0.24674   0.90462   0.46008   0.00000  Uiso   1.00
O599   O     0.24480   0.75226   0.43612   0.00000  Uiso   1.00
O600   O     0.25520   0.91441   0.56388   0.00000  Uiso   1.00
O601   O     0.18935   0.83821   0.55191   0.00000  Uiso   1.00
O602   O     0.31064   0.82845   0.44809   0.00000  Uiso   1.00
O603   O     0.18090   0.82843   0.44810   0.00000  Uiso   1.00
O604   O     0.31910   0.83824   0.55190   0.00000  Uiso   1.00
N605   N     0.21103   0.77426   0.64271   0.00000  Uiso   1.00
H606   H     0.20271   0.77565   0.59920   0.00000  Uiso   1.00
C607   C     0.16988   0.75808   0.66401   0.00000  Uiso   1.00
H608   H     0.15068   0.72353   0.62993   0.00000  Uiso   1.00
H609   H     0.14873   0.79082   0.33569   0.00000  Uiso   1.00
H610   H     0.17628   0.74488   0.37300   0.00000  Uiso   1.00
N611   N     0.28897   0.89240   0.35729   0.00000  Uiso   1.00
H612   H     0.29729   0.89101   0.40080   0.00000  Uiso   1.00
C613   C     0.33012   0.90858   0.33599   0.00000  Uiso   1.00
H614   H     0.34932   0.94313   0.37007   0.00000  Uiso   1.00
H615   H     0.32372   0.92179   0.62700   0.00000  Uiso   1.00
H616   H     0.35127   0.87584   0.66431   0.00000  Uiso   1.00
C617   C     0.74853   0.73338   0.48442   0.00000  Uiso   1.00
C618   C     0.75147   0.93329   0.51558   0.00000  Uiso   1.00
C619   C     0.51053   0.79834   0.39044   0.00000  Uiso   1.00
C620   C     0.98947   0.86832   0.60956   0.00000  Uiso   1.00
C621   C     0.74795   0.67722   0.47598   0.00000  Uiso   1.00
C622   C     0.75205   0.98945   0.52402   0.00000  Uiso   1.00
C623   C     0.66445   0.83309   0.49965   0.00000  Uiso   1.00
C624   C     0.83555   0.83357   0.50035   0.00000  Uiso   1.00
C625   C     0.91359   0.85045   0.55503   0.00000  Uiso   1.00
C626   C     0.58641   0.81621   0.44497   0.00000  Uiso   1.00
C627   C     0.88409   0.83338   0.50052   0.00000  Uiso   1.00
C628   C     0.61591   0.83328   0.49948   0.00000  Uiso   1.00
C629   C     0.90109   0.81635   0.44567   0.00000  Uiso   1.00
C630   C     0.59891   0.85031   0.55433   0.00000  Uiso   1.00
C631   C     0.94722   0.81600   0.44511   0.00000  Uiso   1.00
C632   C     0.55277   0.85067   0.55489   0.00000  Uiso   1.00
C633   C     0.97675   0.83334   0.50008   0.00000  Uiso   1.00
C634   C     0.52324   0.83332   0.49992   0.00000  Uiso   1.00
C635   C     0.95985   0.85077   0.55522   0.00000  Uiso   1.00
C636   C     0.54015   0.81590   0.44478   0.00000  Uiso   1.00
C637   C     0.96431   0.79851   0.39057   0.00000  Uiso   1.00
C638   C     0.53569   0.86816   0.60943   0.00000  Uiso   1.00
Cu639  Cu    0.75500   0.83913   0.56146   0.00000  Uiso   1.00
Cu640  Cu    0.74499   0.82754   0.43854   0.00000  Uiso   1.00
H641   H     0.90078   0.86406   0.59726   0.00000  Uiso   1.00
H642   H     0.59922   0.80261   0.40274   0.00000  Uiso   1.00
H643   H     0.87844   0.80295   0.40338   0.00000  Uiso   1.00
H644   H     0.62156   0.86372   0.59662   0.00000  Uiso   1.00
H645   H     0.94195   0.78506   0.34806   0.00000  Uiso   1.00
H646   H     0.55805   0.88161   0.65194   0.00000  Uiso   1.00
H647   H     0.52313   0.78460   0.34786   0.00000  Uiso   1.00
H648   H     0.97687   0.88208   0.65214   0.00000  Uiso   1.00
H649   H     0.74418   0.98648   0.42985   0.00000  Uiso   1.00
H650   H     0.75582   0.68019   0.57015   0.00000  Uiso   1.00
N651   N     0.73744   0.81881   0.34617   0.00000  Uiso   1.00
N652   N     0.76255   0.84786   0.65383   0.00000  Uiso   1.00
O653   O     0.75325   0.76204   0.53992   0.00000  Uiso   1.00
O654   O     0.74674   0.90462   0.46008   0.00000  Uiso   1.00
O655   O     0.74480   0.75226   0.43612   0.00000  Uiso   1.00
O656   O     0.75520   0.91441   0.56388   0.00000  Uiso   1.00
O657   O     0.68935   0.83821   0.55191   0.00000  Uiso   1.00
O658   O     0.81064   0.82845   0.44809   0.00000  Uiso   1.00
O659   O     0.68090   0.82843   0.44810   0.00000  Uiso   1.00
O660   O     0.81910   0.83824   0.55190   0.00000  Uiso   1.00
N661   N     0.71103   0.77426   0.64271   0.00000  Uiso   1.00
H662   H     0.70271   0.77565   0.59920   0.00000  Uiso   1.00
C663   C     0.66988   0.75808   0.66401   0.00000  Uiso   1.00
H664   H     0.65068   0.72353   0.62993   0.00000  Uiso   1.00
H665   H     0.64873   0.79082   0.33569   0.00000  Uiso   1.00
H666   H     0.67628   0.74488   0.37300   0.00000  Uiso   1.00
N667   N     0.78897   0.89240   0.35729   0.00000  Uiso   1.00
H668   H     0.79729   0.89101   0.40080   0.00000  Uiso   1.00
C669   C     0.83012   0.90858   0.33599   0.00000  Uiso   1.00
H670   H     0.84932   0.94313   0.37007   0.00000  Uiso   1.00
H671   H     0.82372   0.92179   0.62700   0.00000  Uiso   1.00
H672   H     0.85127   0.87584   0.66431   0.00000  Uiso   1.00
C673   C     0.24853   0.06671   0.81775   0.00000  Uiso   1.00
C674   C     0.25147   0.26662   0.84891   0.00000  Uiso   1.00
C675   C     0.01053   0.13168   0.72377   0.00000  Uiso   1.00
C676   C     0.48947   0.20166   0.94290   0.00000  Uiso   1.00
C677   C     0.24795   0.01055   0.80932   0.00000  Uiso   1.00
C678   C     0.25205   0.32278   0.85735   0.00000  Uiso   1.00
C679   C     0.16445   0.16643   0.83298   0.00000  Uiso   1.00
C680   C     0.33555   0.16691   0.83368   0.00000  Uiso   1.00
C681   C     0.41359   0.18379   0.88836   0.00000  Uiso   1.00
C682   C     0.08641   0.14955   0.77831   0.00000  Uiso   1.00
C683   C     0.38409   0.16672   0.83385   0.00000  Uiso   1.00
C684   C     0.11591   0.16661   0.83282   0.00000  Uiso   1.00
C685   C     0.40109   0.14969   0.77901   0.00000  Uiso   1.00
C686   C     0.09891   0.18365   0.88766   0.00000  Uiso   1.00
C687   C     0.44722   0.14933   0.77844   0.00000  Uiso   1.00
C688   C     0.05277   0.18400   0.88822   0.00000  Uiso   1.00
C689   C     0.47675   0.16667   0.83342   0.00000  Uiso   1.00
C690   C     0.02324   0.16666   0.83325   0.00000  Uiso   1.00
C691   C     0.45985   0.18410   0.88855   0.00000  Uiso   1.00
C692   C     0.04015   0.14923   0.77812   0.00000  Uiso   1.00
C693   C     0.46431   0.13184   0.72390   0.00000  Uiso   1.00
C694   C     0.03569   0.20149   0.94276   0.00000  Uiso   1.00
Cu695  Cu    0.25500   0.17246   0.89479   0.00000  Uiso   1.00
Cu696  Cu    0.24499   0.16087   0.77187   0.00000  Uiso   1.00
H697   H     0.40078   0.19739   0.93059   0.00000  Uiso   1.00
H698   H     0.09922   0.13594   0.73607   0.00000  Uiso   1.00
H699   H     0.37844   0.13628   0.73671   0.00000  Uiso   1.00
H700   H     0.12156   0.19705   0.92996   0.00000  Uiso   1.00
H701   H     0.44195   0.11839   0.68139   0.00000  Uiso   1.00
H702   H     0.05805   0.21494   0.98528   0.00000  Uiso   1.00
H703   H     0.02313   0.11793   0.68119   0.00000  Uiso   1.00
H704   H     0.47687   0.21541   0.98547   0.00000  Uiso   1.00
H705   H     0.24418   0.31981   0.76318   0.00000  Uiso   1.00
H706   H     0.25582   0.01352   0.90349   0.00000  Uiso   1.00
N707   N     0.23744   0.15214   0.67951   0.00000  Uiso   1.00
N708   N     0.26255   0.18119   0.98716   0.00000  Uiso   1.00
O709   O     0.25325   0.09538   0.87326   0.00000  Uiso   1.00
O710   O     0.24674   0.23796   0.79341   0.00000  Uiso   1.00
O711   O     0.24480   0.08559   0.76945   0.00000  Uiso   1.00
O712   O     0.25520   0.24774   0.89721   0.00000  Uiso   1.00
O713   O     0.18935   0.17155   0.88524   0.00000  Uiso   1.00
O714   O     0.31064   0.16179   0.78143   0.00000  Uiso   1.00
O715   O     0.18090   0.16176   0.78143   0.00000  Uiso   1.00
O716   O     0.31910   0.17157   0.88523   0.00000  Uiso   1.00
N717   N     0.21103   0.10760   0.97605   0.00000  Uiso   1.00
H718   H     0.20271   0.10899   0.93254   0.00000  Uiso   1.00
C719   C     0.16988   0.09142   0.99734   0.00000  Uiso   1.00
H720   H     0.15068   0.05687   0.96326   0.00000  Uiso   1.00
H721   H     0.14873   0.12416   0.66903   0.00000  Uiso   1.00
H722   H     0.17628   0.07821   0.70634   0.00000  Uiso   1.00
N723   N     0.28897   0.22574   0.69062   0.00000  Uiso   1.00
H724   H     0.29729   0.22435   0.73413   0.00000  Uiso   1.00
C725   C     0.33012   0.24192   0.66933   0.00000  Uiso   1.00
H726   H     0.34932   0.27647   0.70340   0.00000  Uiso   1.00
H727   H     0.32372   0.25512   0.96033   0.00000  Uiso   1.00
H728   H     0.35127   0.20918   0.99764   0.00000  Uiso   1.00
C729   C     0.74853   0.06671   0.81775   0.00000  Uiso   1.00
C730   C     0.75147   0.26662   0.84891   0.00000  Uiso   1.00
C731   C     0.51053   0.13168   0.72377   0.00000  Uiso   1.00
C732   C     0.98947   0.20166   0.94290   0.00000  Uiso   1.00
C733   C     0.74795   0.01055   0.80932   0.00000  Uiso   1.00
C734   C     0.75205   0.32278   0.85735   0.00000  Uiso   1.00
C735   C     0.66445   0.16643   0.83298   0.00000  Uiso   1.00
C736   C     0.83555   0.16691   0.83368   0.00000  Uiso   1.00
C737   C     0.91359   0.18379   0.88836   0.00000  Uiso   1.00
C738   C     0.58641   0.14955   0.77831   0.00000  Uiso   1.00
C739   C     0.88409   0.16672   0.83385   0.00000  Uiso   1.00
C740   C     0.61591   0.16661   0.83282   0.00000  Uiso   1.00
C741   C     0.90109   0.14969   0.77901   0.00000  Uiso   1.00
C742   C     0.59891   0.18365   0.88766   0.00000  Uiso   1.00
C743   C     0.94722   0.14933   0.77844   0.00000  Uiso   1.00
C744   C     0.55277   0.18400   0.88822   0.00000  Uiso   1.00
C745   C     0.97675   0.16667   0.83342   0.00000  Uiso   1.00
C746   C     0.52324   0.16666   0.83325   0.00000  Uiso   1.00
C747   C     0.95985   0.18410   0.88855   0.00000  Uiso   1.00
C748   C     0.54015   0.14923   0.77812   0.00000  Uiso   1.00
C749   C     0.96431   0.13184   0.72390   0.00000  Uiso   1.00
C750   C     0.53569   0.20149   0.94276   0.00000  Uiso   1.00
Cu751  Cu    0.75500   0.17246   0.89479   0.00000  Uiso   1.00
Cu752  Cu    0.74499   0.16087   0.77187   0.00000  Uiso   1.00
H753   H     0.90078   0.19739   0.93059   0.00000  Uiso   1.00
H754   H     0.59922   0.13594   0.73607   0.00000  Uiso   1.00
H755   H     0.87844   0.13628   0.73671   0.00000  Uiso   1.00
H756   H     0.62156   0.19705   0.92996   0.00000  Uiso   1.00
H757   H     0.94195   0.11839   0.68139   0.00000  Uiso   1.00
H758   H     0.55805   0.21494   0.98528   0.00000  Uiso   1.00
H759   H     0.52313   0.11793   0.68119   0.00000  Uiso   1.00
H760   H     0.97687   0.21541   0.98547   0.00000  Uiso   1.00
H761   H     0.74418   0.31981   0.76318   0.00000  Uiso   1.00
H762   H     0.75582   0.01352   0.90349   0.00000  Uiso   1.00
N763   N     0.73744   0.15214   0.67951   0.00000  Uiso   1.00
N764   N     0.76255   0.18119   0.98716   0.00000  Uiso   1.00
O765   O     0.75325   0.09538   0.87326   0.00000  Uiso   1.00
O766   O     0.74674   0.23796   0.79341   0.00000  Uiso   1.00
O767   O     0.74480   0.08559   0.76945   0.00000  Uiso   1.00
O768   O     0.75520   0.24774   0.89721   0.00000  Uiso   1.00
O769   O     0.68935   0.17155   0.88524   0.00000  Uiso   1.00
O770   O     0.81064   0.16179   0.78143   0.00000  Uiso   1.00
O771   O     0.68090   0.16176   0.78143   0.00000  Uiso   1.00
O772   O     0.81910   0.17157   0.88523   0.00000  Uiso   1.00
N773   N     0.71103   0.10760   0.97605   0.00000  Uiso   1.00
H774   H     0.70271   0.10899   0.93254   0.00000  Uiso   1.00
C775   C     0.66988   0.09142   0.99734   0.00000  Uiso   1.00
H776   H     0.65068   0.05687   0.96326   0.00000  Uiso   1.00
H777   H     0.64873   0.12416   0.66903   0.00000  Uiso   1.00
H778   H     0.67628   0.07821   0.70634   0.00000  Uiso   1.00
N779   N     0.78897   0.22574   0.69062   0.00000  Uiso   1.00
H780   H     0.79729   0.22435   0.73413   0.00000  Uiso   1.00
C781   C     0.83012   0.24192   0.66933   0.00000  Uiso   1.00
H782   H     0.84932   0.27647   0.70340   0.00000  Uiso   1.00
H783   H     0.82372   0.25512   0.96033   0.00000  Uiso   1.00
H784   H     0.85127   0.20918   0.99764   0.00000  Uiso   1.00
C785   C     0.24853   0.40004   0.81775   0.00000  Uiso   1.00
C786   C     0.25147   0.59996   0.84891   0.00000  Uiso   1.00
C787   C     0.01053   0.46501   0.72377   0.00000  Uiso   1.00
C788   C     0.48947   0.53499   0.94290   0.00000  Uiso   1.00
C789   C     0.24795   0.34389   0.80932   0.00000  Uiso   1.00
C790   C     0.25205   0.65611   0.85735   0.00000  Uiso   1.00
C791   C     0.16445   0.49976   0.83298   0.00000  Uiso   1.00
C792   C     0.33555   0.50024   0.83368   0.00000  Uiso   1.00
C793   C     0.41359   0.51712   0.88836   0.00000  Uiso   1.00
C794   C     0.08641   0.48288   0.77831   0.00000  Uiso   1.00
C795   C     0.38409   0.50005   0.83385   0.00000  Uiso   1.00
C796   C     0.11591   0.49995   0.83282   0.00000  Uiso   1.00
C797   C     0.40109   0.48302   0.77901   0.00000  Uiso   1.00
C798   C     0.09891   0.51698   0.88766   0.00000  Uiso   1.00
C799   C     0.44722   0.48266   0.77844   0.00000  Uiso   1.00
C800   C     0.05277   0.51733   0.88822   0.00000  Uiso   1.00
C801   C     0.47675   0.50001   0.83342   0.00000  Uiso   1.00
C802   C     0.02324   0.49999   0.83325   0.00000  Uiso   1.00
C803   C     0.45985   0.51743   0.88855   0.00000  Uiso   1.00
C804   C     0.04015   0.48257   0.77812   0.00000  Uiso   1.00
C805   C     0.46431   0.46518   0.72390   0.00000  Uiso   1.00
C806   C     0.03569   0.53482   0.94276   0.00000  Uiso   1.00
Cu807  Cu    0.25500   0.50579   0.89479   0.00000  Uiso   1.00
Cu808  Cu    0.24499   0.49421   0.77187   0.00000  Uiso   1.00
H809   H     0.40078   0.53073   0.93059   0.00000  Uiso   1.00
H810   H     0.09922   0.46927   0.73607   0.00000  Uiso   1.00
H811   H     0.37844   0.46962   0.73671   0.00000  Uiso   1.00
H812   H     0.12156   0.53038   0.92996   0.00000  Uiso   1.00
H813   H     0.44195   0.45173   0.68139   0.00000  Uiso   1.00
H814   H     0.05805   0.54827   0.98528   0.00000  Uiso   1.00
H815   H     0.02313   0.45126   0.68119   0.00000  Uiso   1.00
H816   H     0.47687   0.54874   0.98547   0.00000  Uiso   1.00
H817   H     0.24418   0.65314   0.76318   0.00000  Uiso   1.00
H818   H     0.25582   0.34686   0.90349   0.00000  Uiso   1.00
N819   N     0.23744   0.48547   0.67951   0.00000  Uiso   1.00
N820   N     0.26255   0.51453   0.98716   0.00000  Uiso   1.00
O821   O     0.25325   0.42871   0.87326   0.00000  Uiso   1.00
O822   O     0.24674   0.57129   0.79341   0.00000  Uiso   1.00
O823   O     0.24480   0.41892   0.76945   0.00000  Uiso   1.00
O824   O     0.25520   0.58108   0.89721   0.00000  Uiso   1.00
O825   O     0.18935   0.50488   0.88524   0.00000  Uiso   1.00
O826   O     0.31064   0.49512   0.78143   0.00000  Uiso   1.00
O827   O     0.18090   0.49510   0.78143   0.00000  Uiso   1.00
O828   O     0.31910   0.50490   0.88523   0.00000  Uiso   1.00
N829   N     0.21103   0.44093   0.97605   0.00000  Uiso   1.00
H830   H     0.20271   0.44232   0.93254   0.00000  Uiso   1.00
C831   C     0.16988   0.42475   0.99734   0.00000  Uiso   1.00
H832   H     0.15068   0.39020   0.96326   0.00000  Uiso   1.00
H833   H     0.14873   0.45749   0.66903   0.00000  Uiso   1.00
H834   H     0.17628   0.41154   0.70634   0.00000  Uiso   1.00
N835   N     0.28897   0.55907   0.69062   0.00000  Uiso   1.00
H836   H     0.29729   0.55768   0.73413   0.00000  Uiso   1.00
C837   C     0.33012   0.57525   0.66933   0.00000  Uiso   1.00
H838   H     0.34932   0.60980   0.70340   0.00000  Uiso   1.00
H839   H     0.32372   0.58846   0.96033   0.00000  Uiso   1.00
H840   H     0.35127   0.54251   0.99764   0.00000  Uiso   1.00
C841   C     0.74853   0.40004   0.81775   0.00000  Uiso   1.00
C842   C     0.75147   0.59996   0.84891   0.00000  Uiso   1.00
C843   C     0.51053   0.46501   0.72377   0.00000  Uiso   1.00
C844   C     0.98947   0.53499   0.94290   0.00000  Uiso   1.00
C845   C     0.74795   0.34389   0.80932   0.00000  Uiso   1.00
C846   C     0.75205   0.65611   0.85735   0.00000  Uiso   1.00
C847   C     0.66445   0.49976   0.83298   0.00000  Uiso   1.00
C848   C     0.83555   0.50024   0.83368   0.00000  Uiso   1.00
C849   C     0.91359   0.51712   0.88836   0.00000  Uiso   1.00
C850   C     0.58641   0.48288   0.77831   0.00000  Uiso   1.00
C851   C     0.88409   0.50005   0.83385   0.00000  Uiso   1.00
C852   C     0.61591   0.49995   0.83282   0.00000  Uiso   1.00
C853   C     0.90109   0.48302   0.77901   0.00000  Uiso   1.00
C854   C     0.59891   0.51698   0.88766   0.00000  Uiso   1.00
C855   C     0.94722   0.48266   0.77844   0.00000  Uiso   1.00
C856   C     0.55277   0.51733   0.88822   0.00000  Uiso   1.00
C857   C     0.97675   0.50001   0.83342   0.00000  Uiso   1.00
C858   C     0.52324   0.49999   0.83325   0.00000  Uiso   1.00
C859   C     0.95985   0.51743   0.88855   0.00000  Uiso   1.00
C860   C     0.54015   0.48257   0.77812   0.00000  Uiso   1.00
C861   C     0.96431   0.46518   0.72390   0.00000  Uiso   1.00
C862   C     0.53569   0.53482   0.94276   0.00000  Uiso   1.00
Cu863  Cu    0.75500   0.50579   0.89479   0.00000  Uiso   1.00
Cu864  Cu    0.74499   0.49421   0.77187   0.00000  Uiso   1.00
H865   H     0.90078   0.53073   0.93059   0.00000  Uiso   1.00
H866   H     0.59922   0.46927   0.73607   0.00000  Uiso   1.00
H867   H     0.87844   0.46962   0.73671   0.00000  Uiso   1.00
H868   H     0.62156   0.53038   0.92996   0.00000  Uiso   1.00
H869   H     0.94195   0.45173   0.68139   0.00000  Uiso   1.00
H870   H     0.55805   0.54827   0.98528   0.00000  Uiso   1.00
H871   H     0.52313   0.45126   0.68119   0.00000  Uiso   1.00
H872   H     0.97687   0.54874   0.98547   0.00000  Uiso   1.00
H873   H     0.74418   0.65314   0.76318   0.00000  Uiso   1.00
H874   H     0.75582   0.34686   0.90349   0.00000  Uiso   1.00
N875   N     0.73744   0.48547   0.67951   0.00000  Uiso   1.00
N876   N     0.76255   0.51453   0.98716   0.00000  Uiso   1.00
O877   O     0.75325   0.42871   0.87326   0.00000  Uiso   1.00
O878   O     0.74674   0.57129   0.79341   0.00000  Uiso   1.00
O879   O     0.74480   0.41892   0.76945   0.00000  Uiso   1.00
O880   O     0.75520   0.58108   0.89721   0.00000  Uiso   1.00
O881   O     0.68935   0.50488   0.88524   0.00000  Uiso   1.00
O882   O     0.81064   0.49512   0.78143   0.00000  Uiso   1.00
O883   O     0.68090   0.49510   0.78143   0.00000  Uiso   1.00
O884   O     0.81910   0.50490   0.88523   0.00000  Uiso   1.00
N885   N     0.71103   0.44093   0.97605   0.00000  Uiso   1.00
H886   H     0.70271   0.44232   0.93254   0.00000  Uiso   1.00
C887   C     0.66988   0.42475   0.99734   0.00000  Uiso   1.00
H888   H     0.65068   0.39020   0.96326   0.00000  Uiso   1.00
H889   H     0.64873   0.45749   0.66903   0.00000  Uiso   1.00
H890   H     0.67628   0.41154   0.70634   0.00000  Uiso   1.00
N891   N     0.78897   0.55907   0.69062   0.00000  Uiso   1.00
H892   H     0.79729   0.55768   0.73413   0.00000  Uiso   1.00
C893   C     0.83012   0.57525   0.66933   0.00000  Uiso   1.00
H894   H     0.84932   0.60980   0.70340   0.00000  Uiso   1.00
H895   H     0.82372   0.58846   0.96033   0.00000  Uiso   1.00
H896   H     0.85127   0.54251   0.99764   0.00000  Uiso   1.00
C897   C     0.24853   0.73338   0.81775   0.00000  Uiso   1.00
C898   C     0.25147   0.93329   0.84891   0.00000  Uiso   1.00
C899   C     0.01053   0.79834   0.72377   0.00000  Uiso   1.00
C900   C     0.48947   0.86832   0.94290   0.00000  Uiso   1.00
C901   C     0.24795   0.67722   0.80932   0.00000  Uiso   1.00
C902   C     0.25205   0.98945   0.85735   0.00000  Uiso   1.00
C903   C     0.16445   0.83309   0.83298   0.00000  Uiso   1.00
C904   C     0.33555   0.83357   0.83368   0.00000  Uiso   1.00
C905   C     0.41359   0.85045   0.88836   0.00000  Uiso   1.00
C906   C     0.08641   0.81621   0.77831   0.00000  Uiso   1.00
C907   C     0.38409   0.83338   0.83385   0.00000  Uiso   1.00
C908   C     0.11591   0.83328   0.83282   0.00000  Uiso   1.00
C909   C     0.40109   0.81635   0.77901   0.00000  Uiso   1.00
C910   C     0.09891   0.85031   0.88766   0.00000  Uiso   1.00
C911   C     0.44722   0.81600   0.77844   0.00000  Uiso   1.00
C912   C     0.05277   0.85067   0.88822   0.00000  Uiso   1.00
C913   C     0.47675   0.83334   0.83342   0.00000  Uiso   1.00
C914   C     0.02324   0.83332   0.83325   0.00000  Uiso   1.00
C915   C     0.45985   0.85077   0.88855   0.00000  Uiso   1.00
C916   C     0.04015   0.81590   0.77812   0.00000  Uiso   1.00
C917   C     0.46431   0.79851   0.72390   0.00000  Uiso   1.00
C918   C     0.03569   0.86816   0.94276   0.00000  Uiso   1.00
Cu919  Cu    0.25500   0.83913   0.89479   0.00000  Uiso   1.00
Cu920  Cu    0.24499   0.82754   0.77187   0.00000  Uiso   1.00
H921   H     0.40078   0.86406   0.93059   0.00000  Uiso   1.00
H922   H     0.09922   0.80261   0.73607   0.00000  Uiso   1.00
H923   H     0.37844   0.80295   0.73671   0.00000  Uiso   1.00
H924   H     0.12156   0.86372   0.92996   0.00000  Uiso   1.00
H925   H     0.44195   0.78506   0.68139   0.00000  Uiso   1.00
H926   H     0.05805   0.88161   0.98528   0.00000  Uiso   1.00
H927   H     0.02313   0.78460   0.68119   0.00000  Uiso   1.00
H928   H     0.47687   0.88208   0.98547   0.00000  Uiso   1.00
H929   H     0.24418   0.98648   0.76318   0.00000  Uiso   1.00
H930   H     0.25582   0.68019   0.90349   0.00000  Uiso   1.00
N931   N     0.23744   0.81881   0.67951   0.00000  Uiso   1.00
N932   N     0.26255   0.84786   0.98716   0.00000  Uiso   1.00
O933   O     0.25325   0.76204   0.87326   0.00000  Uiso   1.00
O934   O     0.24674   0.90462   0.79341   0.00000  Uiso   1.00
O935   O     0.24480   0.75226   0.76945   0.00000  Uiso   1.00
O936   O     0.25520   0.91441   0.89721   0.00000  Uiso   1.00
O937   O     0.18935   0.83821   0.88524   0.00000  Uiso   1.00
O938   O     0.31064   0.82845   0.78143   0.00000  Uiso   1.00
O939   O     0.18090   0.82843   0.78143   0.00000  Uiso   1.00
O940   O     0.31910   0.83824   0.88523   0.00000  Uiso   1.00
N941   N     0.21103   0.77426   0.97605   0.00000  Uiso   1.00
H942   H     0.20271   0.77565   0.93254   0.00000  Uiso   1.00
C943   C     0.16988   0.75808   0.99734   0.00000  Uiso   1.00
H944   H     0.15068   0.72353   0.96326   0.00000  Uiso   1.00
H945   H     0.14873   0.79082   0.66903   0.00000  Uiso   1.00
H946   H     0.17628   0.74488   0.70634   0.00000  Uiso   1.00
N947   N     0.28897   0.89240   0.69062   0.00000  Uiso   1.00
H948   H     0.29729   0.89101   0.73413   0.00000  Uiso   1.00
C949   C     0.33012   0.90858   0.66933   0.00000  Uiso   1.00
H950   H     0.34932   0.94313   0.70340   0.00000  Uiso   1.00
H951   H     0.32372   0.92179   0.96033   0.00000  Uiso   1.00
H952   H     0.35127   0.87584   0.99764   0.00000  Uiso   1.00
C953   C     0.74853   0.73338   0.81775   0.00000  Uiso   1.00
C954   C     0.75147   0.93329   0.84891   0.00000  Uiso   1.00
C955   C     0.51053   0.79834   0.72377   0.00000  Uiso   1.00
C956   C     0.98947   0.86832   0.94290   0.00000  Uiso   1.00
C957   C     0.74795   0.67722   0.80932   0.00000  Uiso   1.00
C958   C     0.75205   0.98945   0.85735   0.00000  Uiso   1.00
C959   C     0.66445   0.83309   0.83298   0.00000  Uiso   1.00
C960   C     0.83555   0.83357   0.83368   0.00000  Uiso   1.00
C961   C     0.91359   0.85045   0.88836   0.00000  Uiso   1.00
C962   C     0.58641   0.81621   0.77831   0.00000  Uiso   1.00
C963   C     0.88409   0.83338   0.83385   0.00000  Uiso   1.00
C964   C     0.61591   0.83328   0.83282   0.00000  Uiso   1.00
C965   C     0.90109   0.81635   0.77901   0.00000  Uiso   1.00
C966   C     0.59891   0.85031   0.88766   0.00000  Uiso   1.00
C967   C     0.94722   0.81600   0.77844   0.00000  Uiso   1.00
C968   C     0.55277   0.85067   0.88822   0.00000  Uiso   1.00
C969   C     0.97675   0.83334   0.83342   0.00000  Uiso   1.00
C970   C     0.52324   0.83332   0.83325   0.00000  Uiso   1.00
C971   C     0.95985   0.85077   0.88855   0.00000  Uiso   1.00
C972   C     0.54015   0.81590   0.77812   0.00000  Uiso   1.00
C973   C     0.96431   0.79851   0.72390   0.00000  Uiso   1.00
C974   C     0.53569   0.86816   0.94276   0.00000  Uiso   1.00
Cu975  Cu    0.75500   0.83913   0.89479   0.00000  Uiso   1.00
Cu976  Cu    0.74499   0.82754   0.77187   0.00000  Uiso   1.00
H977   H     0.90078   0.86406   0.93059   0.00000  Uiso   1.00
H978   H     0.59922   0.80261   0.73607   0.00000  Uiso   1.00
H979   H     0.87844   0.80295   0.73671   0.00000  Uiso   1.00
H980   H     0.62156   0.86372   0.92996   0.00000  Uiso   1.00
H981   H     0.94195   0.78506   0.68139   0.00000  Uiso   1.00
H982   H     0.55805   0.88161   0.98528   0.00000  Uiso   1.00
H983   H     0.52313   0.78460   0.68119   0.00000  Uiso   1.00
H984   H     0.97687   0.88208   0.98547   0.00000  Uiso   1.00
H985   H     0.74418   0.98648   0.76318   0.00000  Uiso   1.00
H986   H     0.75582   0.68019   0.90349   0.00000  Uiso   1.00
N987   N     0.73744   0.81881   0.67951   0.00000  Uiso   1.00
N988   N     0.76255   0.84786   0.98716   0.00000  Uiso   1.00
O989   O     0.75325   0.76204   0.87326   0.00000  Uiso   1.00
O990   O     0.74674   0.90462   0.79341   0.00000  Uiso   1.00
O991   O     0.74480   0.75226   0.76945   0.00000  Uiso   1.00
O992   O     0.75520   0.91441   0.89721   0.00000  Uiso   1.00
O993   O     0.68935   0.83821   0.88524   0.00000  Uiso   1.00
O994   O     0.81064   0.82845   0.78143   0.00000  Uiso   1.00
O995   O     0.68090   0.82843   0.78143   0.00000  Uiso   1.00
O996   O     0.81910   0.83824   0.88523   0.00000  Uiso   1.00
N997   N     0.71103   0.77426   0.97605   0.00000  Uiso   1.00
H998   H     0.70271   0.77565   0.93254   0.00000  Uiso   1.00
C999   C     0.66988   0.75808   0.99734   0.00000  Uiso   1.00
H1000  H     0.65068   0.72353   0.96326   0.00000  Uiso   1.00
H1001  H     0.64873   0.79082   0.66903   0.00000  Uiso   1.00
H1002  H     0.67628   0.74488   0.70634   0.00000  Uiso   1.00
N1003  N     0.78897   0.89240   0.69062   0.00000  Uiso   1.00
H1004  H     0.79729   0.89101   0.73413   0.00000  Uiso   1.00
C1005  C     0.83012   0.90858   0.66933   0.00000  Uiso   1.00
H1006  H     0.84932   0.94313   0.70340   0.00000  Uiso   1.00
H1007  H     0.82372   0.92179   0.96033   0.00000  Uiso   1.00
H1008  H     0.85127   0.87584   0.99764   0.00000  Uiso   1.00
loop_
_geom_bond_atom_site_label_1
_geom_bond_atom_site_label_2
_geom_bond_distance
_geom_bond_site_symmetry_2
_ccdc_geom_bond_type
C1     O37     1.305   .     A
C1     C5      1.433   .     S
C1     O39     1.304   .     A
C2     O38     1.305   .     A
C2     C6      1.433   .     S
C2     O40     1.304   .     A
C3     C20     1.402   .     A
C3     H31     1.084   .     S
C3     C77     1.394   1_455 S
C4     H32     1.084   .     S
C4     C19     1.402   .     A
C4     C78     1.394   .     S
C5     C230    1.333   1_545 S
C5     H257    1.087   1_545 S
C6     C117    1.333   .     S
C6     H146    1.087   .     S
C7     O43     1.315   .     A
C7     C12     1.463   .     S
C7     O41     1.310   .     A
C8     O44     1.315   .     A
C8     C11     1.463   .     S
C8     O42     1.309   .     A
C9     H25     1.079   .     S
C9     C11     1.402   .     A
C9     C19     1.393   .     A
C10    H26     1.079   .     S
C10    C12     1.402   .     A
C10    C20     1.393   .     A
C11    C13     1.404   .     A
C12    C14     1.404   .     A
C13    C15     1.394   .     A
C13    H27     1.084   .     S
C14    C16     1.394   .     A
C14    H28     1.084   .     S
C15    C21     1.402   .     A
C15    C17     1.411   .     A
C16    C18     1.411   .     A
C16    C22     1.402   .     A
C17    C19     1.410   .     A
C17    C74     1.402   .     S
C18    C20     1.410   .     A
C18    C73     1.402   1_455 S
C21    H29     1.084   .     S
C21    C59     1.394   .     S
C22    H30     1.084   .     S
C22    C60     1.394   1_455 S
Cu23   Cu24    2.736   .     S
Cu23   O41     1.964   .     S
Cu23   O37     1.955   .     S
Cu23   N36     2.056   .     S
Cu23   O44     1.971   .     S
Cu23   O40     1.952   .     S
Cu24   O38     1.955   .     S
Cu24   O42     1.964   .     S
Cu24   N35     2.056   .     S
Cu24   O39     1.952   .     S
Cu24   O43     1.971   .     S
H33    C117    1.087   .     S
H34    C230    1.087   1_545 S
N35    N708    1.296   1_554 S
N35    N717    1.386   1_554 S
N36    N371    1.296   .     S
N36    N387    1.386   .     S
N45    H46     1.007   .     S
N45    C47     1.442   .     S
N45    N371    1.386   .     S
C47    H48     1.112   .     S
C47    H385    1.109   .     S
C47    H386    1.101   .     S
H49    C719    1.109   1_554 S
H50    C719    1.101   1_554 S
N51    H52     1.007   .     S
N51    C53     1.442   .     S
N51    N708    1.386   1_554 S
C53    H54     1.112   .     S
C53    H727    1.101   1_554 S
C53    H728    1.109   1_554 S
H55    C389    1.101   .     S
H56    C389    1.109   .     S
C57    O93     1.305   .     A
C57    C61     1.433   .     S
C57    O95     1.304   .     A
C58    O94     1.305   .     A
C58    C62     1.433   .     S
C58    O96     1.304   .     A
C59    C76     1.402   .     A
C59    H87     1.084   .     S
C60    H88     1.084   .     S
C60    C75     1.402   .     A
C60    C22     1.394   1_655 S
C61    C286    1.333   1_545 S
C61    H313    1.087   1_545 S
C62    C173    1.333   .     S
C62    H202    1.087   .     S
C63    O99     1.315   .     A
C63    C68     1.463   .     S
C63    O97     1.310   .     A
C64    O100    1.315   .     A
C64    C67     1.463   .     S
C64    O98     1.309   .     A
C65    H81     1.079   .     S
C65    C67     1.402   .     A
C65    C75     1.393   .     A
C66    H82     1.079   .     S
C66    C68     1.402   .     A
C66    C76     1.393   .     A
C67    C69     1.404   .     A
C68    C70     1.404   .     A
C69    C71     1.394   .     A
C69    H83     1.084   .     S
C70    C72     1.394   .     A
C70    H84     1.084   .     S
C71    C77     1.402   .     A
C71    C73     1.411   .     A
C72    C74     1.411   .     A
C72    C78     1.402   .     A
C73    C75     1.410   .     A
C73    C18     1.402   1_655 S
C74    C76     1.410   .     A
C77    H85     1.084   .     S
C77    C3      1.394   1_655 S
C78    H86     1.084   .     S
Cu79   Cu80    2.736   .     S
Cu79   O97     1.964   .     S
Cu79   O93     1.955   .     S
Cu79   N92     2.056   .     S
Cu79   O100    1.971   .     S
Cu79   O96     1.952   .     S
Cu80   O94     1.955   .     S
Cu80   O98     1.964   .     S
Cu80   N91     2.056   .     S
Cu80   O95     1.952   .     S
Cu80   O99     1.971   .     S
H89    C173    1.087   .     S
H90    C286    1.087   1_545 S
N91    N764    1.296   1_554 S
N91    N773    1.386   1_554 S
N92    N427    1.296   .     S
N92    N443    1.386   .     S
N101   H102    1.007   .     S
N101   C103    1.442   .     S
N101   N427    1.386   .     S
C103   H104    1.112   .     S
C103   H441    1.109   .     S
C103   H442    1.101   .     S
H105   C775    1.109   1_554 S
H106   C775    1.101   1_554 S
N107   H108    1.007   .     S
N107   C109    1.442   .     S
N107   N764    1.386   1_554 S
C109   H110    1.112   .     S
C109   H783    1.101   1_554 S
C109   H784    1.109   1_554 S
H111   C445    1.101   .     S
H112   C445    1.109   .     S
C113   O149    1.305   .     A
C113   C117    1.433   .     S
C113   O151    1.304   .     A
C114   O150    1.305   .     A
C114   C118    1.433   .     S
C114   O152    1.304   .     A
C115   C132    1.402   .     A
C115   H143    1.084   .     S
C115   C189    1.394   1_455 S
C116   H144    1.084   .     S
C116   C131    1.402   .     A
C116   C190    1.394   .     S
C118   C229    1.333   .     S
C118   H258    1.087   .     S
C119   O155    1.315   .     A
C119   C124    1.463   .     S
C119   O153    1.310   .     A
C120   O156    1.315   .     A
C120   C123    1.463   .     S
C120   O154    1.309   .     A
C121   H137    1.079   .     S
C121   C123    1.402   .     A
C121   C131    1.393   .     A
C122   H138    1.079   .     S
C122   C124    1.402   .     A
C122   C132    1.393   .     A
C123   C125    1.404   .     A
C124   C126    1.404   .     A
C125   C127    1.394   .     A
C125   H139    1.084   .     S
C126   C128    1.394   .     A
C126   H140    1.084   .     S
C127   C133    1.402   .     A
C127   C129    1.411   .     A
C128   C130    1.411   .     A
C128   C134    1.402   .     A
C129   C131    1.410   .     A
C129   C186    1.402   .     S
C130   C132    1.410   .     A
C130   C185    1.402   1_455 S
C133   H141    1.084   .     S
C133   C171    1.394   .     S
C134   H142    1.084   .     S
C134   C172    1.394   1_455 S
Cu135  Cu136   2.736   .     S
Cu135  O153    1.964   .     S
Cu135  O149    1.955   .     S
Cu135  N148    2.056   .     S
Cu135  O156    1.971   .     S
Cu135  O152    1.952   .     S
Cu136  O150    1.955   .     S
Cu136  O154    1.964   .     S
Cu136  N147    2.056   .     S
Cu136  O151    1.952   .     S
Cu136  O155    1.971   .     S
H145   C229    1.087   .     S
N147   N820    1.296   1_554 S
N147   N829    1.386   1_554 S
N148   N483    1.296   .     S
N148   N499    1.386   .     S
N157   H158    1.007   .     S
N157   C159    1.442   .     S
N157   N483    1.386   .     S
C159   H160    1.112   .     S
C159   H497    1.109   .     S
C159   H498    1.101   .     S
H161   C831    1.109   1_554 S
H162   C831    1.101   1_554 S
N163   H164    1.007   .     S
N163   C165    1.442   .     S
N163   N820    1.386   1_554 S
C165   H166    1.112   .     S
C165   H839    1.101   1_554 S
C165   H840    1.109   1_554 S
H167   C501    1.101   .     S
H168   C501    1.109   .     S
C169   O205    1.305   .     A
C169   C173    1.433   .     S
C169   O207    1.304   .     A
C170   O206    1.305   .     A
C170   C174    1.433   .     S
C170   O208    1.304   .     A
C171   C188    1.402   .     A
C171   H199    1.084   .     S
C172   H200    1.084   .     S
C172   C187    1.402   .     A
C172   C134    1.394   1_655 S
C174   C285    1.333   .     S
C174   H314    1.087   .     S
C175   O211    1.315   .     A
C175   C180    1.463   .     S
C175   O209    1.310   .     A
C176   O212    1.315   .     A
C176   C179    1.463   .     S
C176   O210    1.309   .     A
C177   H193    1.079   .     S
C177   C179    1.402   .     A
C177   C187    1.393   .     A
C178   H194    1.079   .     S
C178   C180    1.402   .     A
C178   C188    1.393   .     A
C179   C181    1.404   .     A
C180   C182    1.404   .     A
C181   C183    1.394   .     A
C181   H195    1.084   .     S
C182   C184    1.394   .     A
C182   H196    1.084   .     S
C183   C189    1.402   .     A
C183   C185    1.411   .     A
C184   C186    1.411   .     A
C184   C190    1.402   .     A
C185   C187    1.410   .     A
C185   C130    1.402   1_655 S
C186   C188    1.410   .     A
C189   H197    1.084   .     S
C189   C115    1.394   1_655 S
C190   H198    1.084   .     S
Cu191  Cu192   2.736   .     S
Cu191  O209    1.964   .     S
Cu191  O205    1.955   .     S
Cu191  N204    2.056   .     S
Cu191  O212    1.971   .     S
Cu191  O208    1.952   .     S
Cu192  O206    1.955   .     S
Cu192  O210    1.964   .     S
Cu192  N203    2.056   .     S
Cu192  O207    1.952   .     S
Cu192  O211    1.971   .     S
H201   C285    1.087   .     S
N203   N876    1.296   1_554 S
N203   N885    1.386   1_554 S
N204   N539    1.296   .     S
N204   N555    1.386   .     S
N213   H214    1.007   .     S
N213   C215    1.442   .     S
N213   N539    1.386   .     S
C215   H216    1.112   .     S
C215   H553    1.109   .     S
C215   H554    1.101   .     S
H217   C887    1.109   1_554 S
H218   C887    1.101   1_554 S
N219   H220    1.007   .     S
N219   C221    1.442   .     S
N219   N876    1.386   1_554 S
C221   H222    1.112   .     S
C221   H895    1.101   1_554 S
C221   H896    1.109   1_554 S
H223   C557    1.101   .     S
H224   C557    1.109   .     S
C225   O261    1.305   .     A
C225   C229    1.433   .     S
C225   O263    1.304   .     A
C226   O262    1.305   .     A
C226   C230    1.433   .     S
C226   O264    1.304   .     A
C227   C244    1.402   .     A
C227   H255    1.084   .     S
C227   C301    1.394   1_455 S
C228   H256    1.084   .     S
C228   C243    1.402   .     A
C228   C302    1.394   .     S
C230   C5      1.333   1_565 S
C230   H34     1.087   1_565 S
C231   O267    1.315   .     A
C231   C236    1.463   .     S
C231   O265    1.310   .     A
C232   O268    1.315   .     A
C232   C235    1.463   .     S
C232   O266    1.309   .     A
C233   H249    1.079   .     S
C233   C235    1.402   .     A
C233   C243    1.393   .     A
C234   H250    1.079   .     S
C234   C236    1.402   .     A
C234   C244    1.393   .     A
C235   C237    1.404   .     A
C236   C238    1.404   .     A
C237   C239    1.394   .     A
C237   H251    1.084   .     S
C238   C240    1.394   .     A
C238   H252    1.084   .     S
C239   C245    1.402   .     A
C239   C241    1.411   .     A
C240   C242    1.411   .     A
C240   C246    1.402   .     A
C241   C243    1.410   .     A
C241   C298    1.402   .     S
C242   C244    1.410   .     A
C242   C297    1.402   1_455 S
C245   H253    1.084   .     S
C245   C283    1.394   .     S
C246   H254    1.084   .     S
C246   C284    1.394   1_455 S
Cu247  Cu248   2.736   .     S
Cu247  O265    1.964   .     S
Cu247  O261    1.955   .     S
Cu247  N260    2.056   .     S
Cu247  O268    1.971   .     S
Cu247  O264    1.952   .     S
Cu248  O262    1.955   .     S
Cu248  O266    1.964   .     S
Cu248  N259    2.056   .     S
Cu248  O263    1.952   .     S
Cu248  O267    1.971   .     S
H257   C5      1.087   1_565 S
N259   N932    1.296   1_554 S
N259   N941    1.386   1_554 S
N260   N595    1.296   .     S
N260   N611    1.386   .     S
N269   H270    1.007   .     S
N269   C271    1.442   .     S
N269   N595    1.386   .     S
C271   H272    1.112   .     S
C271   H609    1.109   .     S
C271   H610    1.101   .     S
H273   C943    1.109   1_554 S
H274   C943    1.101   1_554 S
N275   H276    1.007   .     S
N275   C277    1.442   .     S
N275   N932    1.386   1_554 S
C277   H278    1.112   .     S
C277   H951    1.101   1_554 S
C277   H952    1.109   1_554 S
H279   C613    1.101   .     S
H280   C613    1.109   .     S
C281   O317    1.305   .     A
C281   C285    1.433   .     S
C281   O319    1.304   .     A
C282   O318    1.305   .     A
C282   C286    1.433   .     S
C282   O320    1.304   .     A
C283   C300    1.402   .     A
C283   H311    1.084   .     S
C284   H312    1.084   .     S
C284   C299    1.402   .     A
C284   C246    1.394   1_655 S
C286   C61     1.333   1_565 S
C286   H90     1.087   1_565 S
C287   O323    1.315   .     A
C287   C292    1.463   .     S
C287   O321    1.310   .     A
C288   O324    1.315   .     A
C288   C291    1.463   .     S
C288   O322    1.309   .     A
C289   H305    1.079   .     S
C289   C291    1.402   .     A
C289   C299    1.393   .     A
C290   H306    1.079   .     S
C290   C292    1.402   .     A
C290   C300    1.393   .     A
C291   C293    1.404   .     A
C292   C294    1.404   .     A
C293   C295    1.394   .     A
C293   H307    1.084   .     S
C294   C296    1.394   .     A
C294   H308    1.084   .     S
C295   C301    1.402   .     A
C295   C297    1.411   .     A
C296   C298    1.411   .     A
C296   C302    1.402   .     A
C297   C299    1.410   .     A
C297   C242    1.402   1_655 S
C298   C300    1.410   .     A
C301   H309    1.084   .     S
C301   C227    1.394   1_655 S
C302   H310    1.084   .     S
Cu303  Cu304   2.736   .     S
Cu303  O321    1.964   .     S
Cu303  O317    1.955   .     S
Cu303  N316    2.056   .     S
Cu303  O324    1.971   .     S
Cu303  O320    1.952   .     S
Cu304  O318    1.955   .     S
Cu304  O322    1.964   .     S
Cu304  N315    2.056   .     S
Cu304  O319    1.952   .     S
Cu304  O323    1.971   .     S
H313   C61     1.087   1_565 S
N315   N988    1.296   1_554 S
N315   N997    1.386   1_554 S
N316   N651    1.296   .     S
N316   N667    1.386   .     S
N325   H326    1.007   .     S
N325   C327    1.442   .     S
N325   N651    1.386   .     S
C327   H328    1.112   .     S
C327   H665    1.109   .     S
C327   H666    1.101   .     S
H329   C999    1.109   1_554 S
H330   C999    1.101   1_554 S
N331   H332    1.007   .     S
N331   C333    1.442   .     S
N331   N988    1.386   1_554 S
C333   H334    1.112   .     S
C333   H1007   1.101   1_554 S
C333   H1008   1.109   1_554 S
H335   C669    1.101   .     S
H336   C669    1.109   .     S
C337   O373    1.305   .     A
C337   C341    1.433   .     S
C337   O375    1.304   .     A
C338   O374    1.305   .     A
C338   C342    1.433   .     S
C338   O376    1.304   .     A
C339   C356    1.402   .     A
C339   H367    1.084   .     S
C339   C413    1.394   1_455 S
C340   H368    1.084   .     S
C340   C355    1.402   .     A
C340   C414    1.394   .     S
C341   C566    1.333   1_545 S
C341   H593    1.087   1_545 S
C342   C453    1.333   .     S
C342   H482    1.087   .     S
C343   O379    1.315   .     A
C343   C348    1.463   .     S
C343   O377    1.310   .     A
C344   O380    1.315   .     A
C344   C347    1.463   .     S
C344   O378    1.309   .     A
C345   H361    1.079   .     S
C345   C347    1.402   .     A
C345   C355    1.393   .     A
C346   H362    1.079   .     S
C346   C348    1.402   .     A
C346   C356    1.393   .     A
C347   C349    1.404   .     A
C348   C350    1.404   .     A
C349   C351    1.394   .     A
C349   H363    1.084   .     S
C350   C352    1.394   .     A
C350   H364    1.084   .     S
C351   C357    1.402   .     A
C351   C353    1.411   .     A
C352   C354    1.411   .     A
C352   C358    1.402   .     A
C353   C355    1.410   .     A
C353   C410    1.402   .     S
C354   C356    1.410   .     A
C354   C409    1.402   1_455 S
C357   H365    1.084   .     S
C357   C395    1.394   .     S
C358   H366    1.084   .     S
C358   C396    1.394   1_455 S
Cu359  Cu360   2.736   .     S
Cu359  O377    1.964   .     S
Cu359  O373    1.955   .     S
Cu359  N372    2.056   .     S
Cu359  O380    1.971   .     S
Cu359  O376    1.952   .     S
Cu360  O374    1.955   .     S
Cu360  O378    1.964   .     S
Cu360  N371    2.056   .     S
Cu360  O375    1.952   .     S
Cu360  O379    1.971   .     S
H369   C453    1.087   .     S
H370   C566    1.087   1_545 S
N372   N707    1.296   .     S
N372   N723    1.386   .     S
N381   H382    1.007   .     S
N381   C383    1.442   .     S
N381   N707    1.386   .     S
C383   H384    1.112   .     S
C383   H721    1.109   .     S
C383   H722    1.101   .     S
N387   H388    1.007   .     S
N387   C389    1.442   .     S
C389   H390    1.112   .     S
H391   C725    1.101   .     S
H392   C725    1.109   .     S
C393   O429    1.305   .     A
C393   C397    1.433   .     S
C393   O431    1.304   .     A
C394   O430    1.305   .     A
C394   C398    1.433   .     S
C394   O432    1.304   .     A
C395   C412    1.402   .     A
C395   H423    1.084   .     S
C396   H424    1.084   .     S
C396   C411    1.402   .     A
C396   C358    1.394   1_655 S
C397   C622    1.333   1_545 S
C397   H649    1.087   1_545 S
C398   C509    1.333   .     S
C398   H538    1.087   .     S
C399   O435    1.315   .     A
C399   C404    1.463   .     S
C399   O433    1.310   .     A
C400   O436    1.315   .     A
C400   C403    1.463   .     S
C400   O434    1.309   .     A
C401   H417    1.079   .     S
C401   C403    1.402   .     A
C401   C411    1.393   .     A
C402   H418    1.079   .     S
C402   C404    1.402   .     A
C402   C412    1.393   .     A
C403   C405    1.404   .     A
C404   C406    1.404   .     A
C405   C407    1.394   .     A
C405   H419    1.084   .     S
C406   C408    1.394   .     A
C406   H420    1.084   .     S
C407   C413    1.402   .     A
C407   C409    1.411   .     A
C408   C410    1.411   .     A
C408   C414    1.402   .     A
C409   C411    1.410   .     A
C409   C354    1.402   1_655 S
C410   C412    1.410   .     A
C413   H421    1.084   .     S
C413   C339    1.394   1_655 S
C414   H422    1.084   .     S
Cu415  Cu416   2.736   .     S
Cu415  O433    1.964   .     S
Cu415  O429    1.955   .     S
Cu415  N428    2.056   .     S
Cu415  O436    1.971   .     S
Cu415  O432    1.952   .     S
Cu416  O430    1.955   .     S
Cu416  O434    1.964   .     S
Cu416  N427    2.056   .     S
Cu416  O431    1.952   .     S
Cu416  O435    1.971   .     S
H425   C509    1.087   .     S
H426   C622    1.087   1_545 S
N428   N763    1.296   .     S
N428   N779    1.386   .     S
N437   H438    1.007   .     S
N437   C439    1.442   .     S
N437   N763    1.386   .     S
C439   H440    1.112   .     S
C439   H777    1.109   .     S
C439   H778    1.101   .     S
N443   H444    1.007   .     S
N443   C445    1.442   .     S
C445   H446    1.112   .     S
H447   C781    1.101   .     S
H448   C781    1.109   .     S
C449   O485    1.305   .     A
C449   C453    1.433   .     S
C449   O487    1.304   .     A
C450   O486    1.305   .     A
C450   C454    1.433   .     S
C450   O488    1.304   .     A
C451   C468    1.402   .     A
C451   H479    1.084   .     S
C451   C525    1.394   1_455 S
C452   H480    1.084   .     S
C452   C467    1.402   .     A
C452   C526    1.394   .     S
C454   C565    1.333   .     S
C454   H594    1.087   .     S
C455   O491    1.315   .     A
C455   C460    1.463   .     S
C455   O489    1.310   .     A
C456   O492    1.315   .     A
C456   C459    1.463   .     S
C456   O490    1.309   .     A
C457   H473    1.079   .     S
C457   C459    1.402   .     A
C457   C467    1.393   .     A
C458   H474    1.079   .     S
C458   C460    1.402   .     A
C458   C468    1.393   .     A
C459   C461    1.404   .     A
C460   C462    1.404   .     A
C461   C463    1.394   .     A
C461   H475    1.084   .     S
C462   C464    1.394   .     A
C462   H476    1.084   .     S
C463   C469    1.402   .     A
C463   C465    1.411   .     A
C464   C466    1.411   .     A
C464   C470    1.402   .     A
C465   C467    1.410   .     A
C465   C522    1.402   .     S
C466   C468    1.410   .     A
C466   C521    1.402   1_455 S
C469   H477    1.084   .     S
C469   C507    1.394   .     S
C470   H478    1.084   .     S
C470   C508    1.394   1_455 S
Cu471  Cu472   2.736   .     S
Cu471  O489    1.964   .     S
Cu471  O485    1.955   .     S
Cu471  N484    2.056   .     S
Cu471  O492    1.971   .     S
Cu471  O488    1.952   .     S
Cu472  O486    1.955   .     S
Cu472  O490    1.964   .     S
Cu472  N483    2.056   .     S
Cu472  O487    1.952   .     S
Cu472  O491    1.971   .     S
H481   C565    1.087   .     S
N484   N819    1.296   .     S
N484   N835    1.386   .     S
N493   H494    1.007   .     S
N493   C495    1.442   .     S
N493   N819    1.386   .     S
C495   H496    1.112   .     S
C495   H833    1.109   .     S
C495   H834    1.101   .     S
N499   H500    1.007   .     S
N499   C501    1.442   .     S
C501   H502    1.112   .     S
H503   C837    1.101   .     S
H504   C837    1.109   .     S
C505   O541    1.305   .     A
C505   C509    1.433   .     S
C505   O543    1.304   .     A
C506   O542    1.305   .     A
C506   C510    1.433   .     S
C506   O544    1.304   .     A
C507   C524    1.402   .     A
C507   H535    1.084   .     S
C508   H536    1.084   .     S
C508   C523    1.402   .     A
C508   C470    1.394   1_655 S
C510   C621    1.333   .     S
C510   H650    1.087   .     S
C511   O547    1.315   .     A
C511   C516    1.463   .     S
C511   O545    1.310   .     A
C512   O548    1.315   .     A
C512   C515    1.463   .     S
C512   O546    1.309   .     A
C513   H529    1.079   .     S
C513   C515    1.402   .     A
C513   C523    1.393   .     A
C514   H530    1.079   .     S
C514   C516    1.402   .     A
C514   C524    1.393   .     A
C515   C517    1.404   .     A
C516   C518    1.404   .     A
C517   C519    1.394   .     A
C517   H531    1.084   .     S
C518   C520    1.394   .     A
C518   H532    1.084   .     S
C519   C525    1.402   .     A
C519   C521    1.411   .     A
C520   C522    1.411   .     A
C520   C526    1.402   .     A
C521   C523    1.410   .     A
C521   C466    1.402   1_655 S
C522   C524    1.410   .     A
C525   H533    1.084   .     S
C525   C451    1.394   1_655 S
C526   H534    1.084   .     S
Cu527  Cu528   2.736   .     S
Cu527  O545    1.964   .     S
Cu527  O541    1.955   .     S
Cu527  N540    2.056   .     S
Cu527  O548    1.971   .     S
Cu527  O544    1.952   .     S
Cu528  O542    1.955   .     S
Cu528  O546    1.964   .     S
Cu528  N539    2.056   .     S
Cu528  O543    1.952   .     S
Cu528  O547    1.971   .     S
H537   C621    1.087   .     S
N540   N875    1.296   .     S
N540   N891    1.386   .     S
N549   H550    1.007   .     S
N549   C551    1.442   .     S
N549   N875    1.386   .     S
C551   H552    1.112   .     S
C551   H889    1.109   .     S
C551   H890    1.101   .     S
N555   H556    1.007   .     S
N555   C557    1.442   .     S
C557   H558    1.112   .     S
H559   C893    1.101   .     S
H560   C893    1.109   .     S
C561   O597    1.305   .     A
C561   C565    1.433   .     S
C561   O599    1.304   .     A
C562   O598    1.305   .     A
C562   C566    1.433   .     S
C562   O600    1.304   .     A
C563   C580    1.402   .     A
C563   H591    1.084   .     S
C563   C637    1.394   1_455 S
C564   H592    1.084   .     S
C564   C579    1.402   .     A
C564   C638    1.394   .     S
C566   C341    1.333   1_565 S
C566   H370    1.087   1_565 S
C567   O603    1.315   .     A
C567   C572    1.463   .     S
C567   O601    1.310   .     A
C568   O604    1.315   .     A
C568   C571    1.463   .     S
C568   O602    1.309   .     A
C569   H585    1.079   .     S
C569   C571    1.402   .     A
C569   C579    1.393   .     A
C570   H586    1.079   .     S
C570   C572    1.402   .     A
C570   C580    1.393   .     A
C571   C573    1.404   .     A
C572   C574    1.404   .     A
C573   C575    1.394   .     A
C573   H587    1.084   .     S
C574   C576    1.394   .     A
C574   H588    1.084   .     S
C575   C581    1.402   .     A
C575   C577    1.411   .     A
C576   C578    1.411   .     A
C576   C582    1.402   .     A
C577   C579    1.410   .     A
C577   C634    1.402   .     S
C578   C580    1.410   .     A
C578   C633    1.402   1_455 S
C581   H589    1.084   .     S
C581   C619    1.394   .     S
C582   H590    1.084   .     S
C582   C620    1.394   1_455 S
Cu583  Cu584   2.736   .     S
Cu583  O601    1.964   .     S
Cu583  O597    1.955   .     S
Cu583  N596    2.056   .     S
Cu583  O604    1.971   .     S
Cu583  O600    1.952   .     S
Cu584  O598    1.955   .     S
Cu584  O602    1.964   .     S
Cu584  N595    2.056   .     S
Cu584  O599    1.952   .     S
Cu584  O603    1.971   .     S
H593   C341    1.087   1_565 S
N596   N931    1.296   .     S
N596   N947    1.386   .     S
N605   H606    1.007   .     S
N605   C607    1.442   .     S
N605   N931    1.386   .     S
C607   H608    1.112   .     S
C607   H945    1.109   .     S
C607   H946    1.101   .     S
N611   H612    1.007   .     S
N611   C613    1.442   .     S
C613   H614    1.112   .     S
H615   C949    1.101   .     S
H616   C949    1.109   .     S
C617   O653    1.305   .     A
C617   C621    1.433   .     S
C617   O655    1.304   .     A
C618   O654    1.305   .     A
C618   C622    1.433   .     S
C618   O656    1.304   .     A
C619   C636    1.402   .     A
C619   H647    1.084   .     S
C620   H648    1.084   .     S
C620   C635    1.402   .     A
C620   C582    1.394   1_655 S
C622   C397    1.333   1_565 S
C622   H426    1.087   1_565 S
C623   O659    1.315   .     A
C623   C628    1.463   .     S
C623   O657    1.310   .     A
C624   O660    1.315   .     A
C624   C627    1.463   .     S
C624   O658    1.309   .     A
C625   H641    1.079   .     S
C625   C627    1.402   .     A
C625   C635    1.393   .     A
C626   H642    1.079   .     S
C626   C628    1.402   .     A
C626   C636    1.393   .     A
C627   C629    1.404   .     A
C628   C630    1.404   .     A
C629   C631    1.394   .     A
C629   H643    1.084   .     S
C630   C632    1.394   .     A
C630   H644    1.084   .     S
C631   C637    1.402   .     A
C631   C633    1.411   .     A
C632   C634    1.411   .     A
C632   C638    1.402   .     A
C633   C635    1.410   .     A
C633   C578    1.402   1_655 S
C634   C636    1.410   .     A
C637   H645    1.084   .     S
C637   C563    1.394   1_655 S
C638   H646    1.084   .     S
Cu639  Cu640   2.736   .     S
Cu639  O657    1.964   .     S
Cu639  O653    1.955   .     S
Cu639  N652    2.056   .     S
Cu639  O660    1.971   .     S
Cu639  O656    1.952   .     S
Cu640  O654    1.955   .     S
Cu640  O658    1.964   .     S
Cu640  N651    2.056   .     S
Cu640  O655    1.952   .     S
Cu640  O659    1.971   .     S
H649   C397    1.087   1_565 S
N652   N987    1.296   .     S
N652   N1003   1.386   .     S
N661   H662    1.007   .     S
N661   C663    1.442   .     S
N661   N987    1.386   .     S
C663   H664    1.112   .     S
C663   H1001   1.109   .     S
C663   H1002   1.101   .     S
N667   H668    1.007   .     S
N667   C669    1.442   .     S
C669   H670    1.112   .     S
H671   C1005   1.101   .     S
H672   C1005   1.109   .     S
C673   O709    1.305   .     A
C673   C677    1.433   .     S
C673   O711    1.304   .     A
C674   O710    1.305   .     A
C674   C678    1.433   .     S
C674   O712    1.304   .     A
C675   C692    1.402   .     A
C675   H703    1.084   .     S
C675   C749    1.394   1_455 S
C676   H704    1.084   .     S
C676   C691    1.402   .     A
C676   C750    1.394   .     S
C677   C902    1.333   1_545 S
C677   H929    1.087   1_545 S
C678   C789    1.333   .     S
C678   H818    1.087   .     S
C679   O715    1.315   .     A
C679   C684    1.463   .     S
C679   O713    1.310   .     A
C680   O716    1.315   .     A
C680   C683    1.463   .     S
C680   O714    1.309   .     A
C681   H697    1.079   .     S
C681   C683    1.402   .     A
C681   C691    1.393   .     A
C682   H698    1.079   .     S
C682   C684    1.402   .     A
C682   C692    1.393   .     A
C683   C685    1.404   .     A
C684   C686    1.404   .     A
C685   C687    1.394   .     A
C685   H699    1.084   .     S
C686   C688    1.394   .     A
C686   H700    1.084   .     S
C687   C693    1.402   .     A
C687   C689    1.411   .     A
C688   C690    1.411   .     A
C688   C694    1.402   .     A
C689   C691    1.410   .     A
C689   C746    1.402   .     S
C690   C692    1.410   .     A
C690   C745    1.402   1_455 S
C693   H701    1.084   .     S
C693   C731    1.394   .     S
C694   H702    1.084   .     S
C694   C732    1.394   1_455 S
Cu695  Cu696   2.736   .     S
Cu695  O713    1.964   .     S
Cu695  O709    1.955   .     S
Cu695  N708    2.056   .     S
Cu695  O716    1.971   .     S
Cu695  O712    1.952   .     S
Cu696  O710    1.955   .     S
Cu696  O714    1.964   .     S
Cu696  N707    2.056   .     S
Cu696  O711    1.952   .     S
Cu696  O715    1.971   .     S
H705   C789    1.087   .     S
H706   C902    1.087   1_545 S
N708   N35     1.296   1_556 S
N708   N51     1.386   1_556 S
N717   H718    1.007   .     S
N717   C719    1.442   .     S
N717   N35     1.386   1_556 S
C719   H720    1.112   .     S
C719   H49     1.109   1_556 S
C719   H50     1.101   1_556 S
N723   H724    1.007   .     S
N723   C725    1.442   .     S
C725   H726    1.112   .     S
H727   C53     1.101   1_556 S
H728   C53     1.109   1_556 S
C729   O765    1.305   .     A
C729   C733    1.433   .     S
C729   O767    1.304   .     A
C730   O766    1.305   .     A
C730   C734    1.433   .     S
C730   O768    1.304   .     A
C731   C748    1.402   .     A
C731   H759    1.084   .     S
C732   H760    1.084   .     S
C732   C747    1.402   .     A
C732   C694    1.394   1_655 S
C733   C958    1.333   1_545 S
C733   H985    1.087   1_545 S
C734   C845    1.333   .     S
C734   H874    1.087   .     S
C735   O771    1.315   .     A
C735   C740    1.463   .     S
C735   O769    1.310   .     A
C736   O772    1.315   .     A
C736   C739    1.463   .     S
C736   O770    1.309   .     A
C737   H753    1.079   .     S
C737   C739    1.402   .     A
C737   C747    1.393   .     A
C738   H754    1.079   .     S
C738   C740    1.402   .     A
C738   C748    1.393   .     A
C739   C741    1.404   .     A
C740   C742    1.404   .     A
C741   C743    1.394   .     A
C741   H755    1.084   .     S
C742   C744    1.394   .     A
C742   H756    1.084   .     S
C743   C749    1.402   .     A
C743   C745    1.411   .     A
C744   C746    1.411   .     A
C744   C750    1.402   .     A
C745   C747    1.410   .     A
C745   C690    1.402   1_655 S
C746   C748    1.410   .     A
C749   H757    1.084   .     S
C749   C675    1.394   1_655 S
C750   H758    1.084   .     S
Cu751  Cu752   2.736   .     S
Cu751  O769    1.964   .     S
Cu751  O765    1.955   .     S
Cu751  N764    2.056   .     S
Cu751  O772    1.971   .     S
Cu751  O768    1.952   .     S
Cu752  O766    1.955   .     S
Cu752  O770    1.964   .     S
Cu752  N763    2.056   .     S
Cu752  O767    1.952   .     S
Cu752  O771    1.971   .     S
H761   C845    1.087   .     S
H762   C958    1.087   1_545 S
N764   N91     1.296   1_556 S
N764   N107    1.386   1_556 S
N773   H774    1.007   .     S
N773   C775    1.442   .     S
N773   N91     1.386   1_556 S
C775   H776    1.112   .     S
C775   H105    1.109   1_556 S
C775   H106    1.101   1_556 S
N779   H780    1.007   .     S
N779   C781    1.442   .     S
C781   H782    1.112   .     S
H783   C109    1.101   1_556 S
H784   C109    1.109   1_556 S
C785   O821    1.305   .     A
C785   C789    1.433   .     S
C785   O823    1.304   .     A
C786   O822    1.305   .     A
C786   C790    1.433   .     S
C786   O824    1.304   .     A
C787   C804    1.402   .     A
C787   H815    1.084   .     S
C787   C861    1.394   1_455 S
C788   H816    1.084   .     S
C788   C803    1.402   .     A
C788   C862    1.394   .     S
C790   C901    1.333   .     S
C790   H930    1.087   .     S
C791   O827    1.315   .     A
C791   C796    1.463   .     S
C791   O825    1.310   .     A
C792   O828    1.315   .     A
C792   C795    1.463   .     S
C792   O826    1.309   .     A
C793   H809    1.079   .     S
C793   C795    1.402   .     A
C793   C803    1.393   .     A
C794   H810    1.079   .     S
C794   C796    1.402   .     A
C794   C804    1.393   .     A
C795   C797    1.404   .     A
C796   C798    1.404   .     A
C797   C799    1.394   .     A
C797   H811    1.084   .     S
C798   C800    1.394   .     A
C798   H812    1.084   .     S
C799   C805    1.402   .     A
C799   C801    1.411   .     A
C800   C802    1.411   .     A
C800   C806    1.402   .     A
C801   C803    1.410   .     A
C801   C858    1.402   .     S
C802   C804    1.410   .     A
C802   C857    1.402   1_455 S
C805   H813    1.084   .     S
C805   C843    1.394   .     S
C806   H814    1.084   .     S
C806   C844    1.394   1_455 S
Cu807  Cu808   2.736   .     S
Cu807  O825    1.964   .     S
Cu807  O821    1.955   .     S
Cu807  N820    2.056   .     S
Cu807  O828    1.971   .     S
Cu807  O824    1.952   .     S
Cu808  O822    1.955   .     S
Cu808  O826    1.964   .     S
Cu808  N819    2.056   .     S
Cu808  O823    1.952   .     S
Cu808  O827    1.971   .     S
H817   C901    1.087   .     S
N820   N147    1.296   1_556 S
N820   N163    1.386   1_556 S
N829   H830    1.007   .     S
N829   C831    1.442   .     S
N829   N147    1.386   1_556 S
C831   H832    1.112   .     S
C831   H161    1.109   1_556 S
C831   H162    1.101   1_556 S
N835   H836    1.007   .     S
N835   C837    1.442   .     S
C837   H838    1.112   .     S
H839   C165    1.101   1_556 S
H840   C165    1.109   1_556 S
C841   O877    1.305   .     A
C841   C845    1.433   .     S
C841   O879    1.304   .     A
C842   O878    1.305   .     A
C842   C846    1.433   .     S
C842   O880    1.304   .     A
C843   C860    1.402   .     A
C843   H871    1.084   .     S
C844   H872    1.084   .     S
C844   C859    1.402   .     A
C844   C806    1.394   1_655 S
C846   C957    1.333   .     S
C846   H986    1.087   .     S
C847   O883    1.315   .     A
C847   C852    1.463   .     S
C847   O881    1.310   .     A
C848   O884    1.315   .     A
C848   C851    1.463   .     S
C848   O882    1.309   .     A
C849   H865    1.079   .     S
C849   C851    1.402   .     A
C849   C859    1.393   .     A
C850   H866    1.079   .     S
C850   C852    1.402   .     A
C850   C860    1.393   .     A
C851   C853    1.404   .     A
C852   C854    1.404   .     A
C853   C855    1.394   .     A
C853   H867    1.084   .     S
C854   C856    1.394   .     A
C854   H868    1.084   .     S
C855   C861    1.402   .     A
C855   C857    1.411   .     A
C856   C858    1.411   .     A
C856   C862    1.402   .     A
C857   C859    1.410   .     A
C857   C802    1.402   1_655 S
C858   C860    1.410   .     A
C861   H869    1.084   .     S
C861   C787    1.394   1_655 S
C862   H870    1.084   .     S
Cu863  Cu864   2.736   .     S
Cu863  O881    1.964   .     S
Cu863  O877    1.955   .     S
Cu863  N876    2.056   .     S
Cu863  O884    1.971   .     S
Cu863  O880    1.952   .     S
Cu864  O878    1.955   .     S
Cu864  O882    1.964   .     S
Cu864  N875    2.056   .     S
Cu864  O879    1.952   .     S
Cu864  O883    1.971   .     S
H873   C957    1.087   .     S
N876   N203    1.296   1_556 S
N876   N219    1.386   1_556 S
N885   H886    1.007   .     S
N885   C887    1.442   .     S
N885   N203    1.386   1_556 S
C887   H888    1.112   .     S
C887   H217    1.109   1_556 S
C887   H218    1.101   1_556 S
N891   H892    1.007   .     S
N891   C893    1.442   .     S
C893   H894    1.112   .     S
H895   C221    1.101   1_556 S
H896   C221    1.109   1_556 S
C897   O933    1.305   .     A
C897   C901    1.433   .     S
C897   O935    1.304   .     A
C898   O934    1.305   .     A
C898   C902    1.433   .     S
C898   O936    1.304   .     A
C899   C916    1.402   .     A
C899   H927    1.084   .     S
C899   C973    1.394   1_455 S
C900   H928    1.084   .     S
C900   C915    1.402   .     A
C900   C974    1.394   .     S
C902   C677    1.333   1_565 S
C902   H706    1.087   1_565 S
C903   O939    1.315   .     A
C903   C908    1.463   .     S
C903   O937    1.310   .     A
C904   O940    1.315   .     A
C904   C907    1.463   .     S
C904   O938    1.309   .     A
C905   H921    1.079   .     S
C905   C907    1.402   .     A
C905   C915    1.393   .     A
C906   H922    1.079   .     S
C906   C908    1.402   .     A
C906   C916    1.393   .     A
C907   C909    1.404   .     A
C908   C910    1.404   .     A
C909   C911    1.394   .     A
C909   H923    1.084   .     S
C910   C912    1.394   .     A
C910   H924    1.084   .     S
C911   C917    1.402   .     A
C911   C913    1.411   .     A
C912   C914    1.411   .     A
C912   C918    1.402   .     A
C913   C915    1.410   .     A
C913   C970    1.402   .     S
C914   C916    1.410   .     A
C914   C969    1.402   1_455 S
C917   H925    1.084   .     S
C917   C955    1.394   .     S
C918   H926    1.084   .     S
C918   C956    1.394   1_455 S
Cu919  Cu920   2.736   .     S
Cu919  O937    1.964   .     S
Cu919  O933    1.955   .     S
Cu919  N932    2.056   .     S
Cu919  O940    1.971   .     S
Cu919  O936    1.952   .     S
Cu920  O934    1.955   .     S
Cu920  O938    1.964   .     S
Cu920  N931    2.056   .     S
Cu920  O935    1.952   .     S
Cu920  O939    1.971   .     S
H929   C677    1.087   1_565 S
N932   N259    1.296   1_556 S
N932   N275    1.386   1_556 S
N941   H942    1.007   .     S
N941   C943    1.442   .     S
N941   N259    1.386   1_556 S
C943   H944    1.112   .     S
C943   H273    1.109   1_556 S
C943   H274    1.101   1_556 S
N947   H948    1.007   .     S
N947   C949    1.442   .     S
C949   H950    1.112   .     S
H951   C277    1.101   1_556 S
H952   C277    1.109   1_556 S
C953   O989    1.305   .     A
C953   C957    1.433   .     S
C953   O991    1.304   .     A
C954   O990    1.305   .     A
C954   C958    1.433   .     S
C954   O992    1.304   .     A
C955   C972    1.402   .     A
C955   H983    1.084   .     S
C956   H984    1.084   .     S
C956   C971    1.402   .     A
C956   C918    1.394   1_655 S
C958   C733    1.333   1_565 S
C958   H762    1.087   1_565 S
C959   O995    1.315   .     A
C959   C964    1.463   .     S
C959   O993    1.310   .     A
C960   O996    1.315   .     A
C960   C963    1.463   .     S
C960   O994    1.309   .     A
C961   H977    1.079   .     S
C961   C963    1.402   .     A
C961   C971    1.393   .     A
C962   H978    1.079   .     S
C962   C964    1.402   .     A
C962   C972    1.393   .     A
C963   C965    1.404   .     A
C964   C966    1.404   .     A
C965   C967    1.394   .     A
C965   H979    1.084   .     S
C966   C968    1.394   .     A
C966   H980    1.084   .     S
C967   C973    1.402   .     A
C967   C969    1.411   .     A
C968   C970    1.411   .     A
C968   C974    1.402   .     A
C969   C971    1.410   .     A
C969   C914    1.402   1_655 S
C970   C972    1.410   .     A
C973   H981    1.084   .     S
C973   C899    1.394   1_655 S
C974   H982    1.084   .     S
Cu975  Cu976   2.736   .     S
Cu975  O993    1.964   .     S
Cu975  O989    1.955   .     S
Cu975  N988    2.056   .     S
Cu975  O996    1.971   .     S
Cu975  O992    1.952   .     S
Cu976  O990    1.955   .     S
Cu976  O994    1.964   .     S
Cu976  N987    2.056   .     S
Cu976  O991    1.952   .     S
Cu976  O995    1.971   .     S
H985   C733    1.087   1_565 S
N988   N315    1.296   1_556 S
N988   N331    1.386   1_556 S
N997   H998    1.007   .     S
N997   C999    1.442   .     S
N997   N315    1.386   1_556 S
C999   H1000   1.112   .     S
C999   H329    1.109   1_556 S
C999   H330    1.101   1_556 S
N1003  H1004   1.007   .     S
N1003  C1005   1.442   .     S
C1005  H1006   1.112   .     S
H1007  C333    1.101   1_556 S
H1008  C333    1.109   1_556 S
