data_str_m2_o1_o18_pcu_sym.22
_audit_creation_date              2020-01-03
_audit_creation_method            'Materials Studio'
_symmetry_space_group_name_H-M    'P1'
_symmetry_Int_Tables_number       1
_symmetry_cell_setting            triclinic
loop_
_symmetry_equiv_pos_as_xyz
  x,y,z
_cell_length_a                    28.5488
_cell_length_b                    32.4557
_cell_length_c                    30.8993
_cell_angle_alpha                 89.9129
_cell_angle_beta                  73.9505
_cell_angle_gamma                 90.2850
loop_
_atom_site_label
_atom_site_type_symbol
_atom_site_fract_x
_atom_site_fract_y
_atom_site_fract_z
_atom_site_U_iso_or_equiv
_atom_site_adp_type
_atom_site_occupancy
C1     C     0.33331   0.08739   0.24951   0.00000  Uiso   1.00
C2     C     0.03147   0.02203   0.26902   0.00000  Uiso   1.00
C3     C     0.00032   0.29055   0.25068   0.00000  Uiso   1.00
C4     C     0.33302   0.04276   0.24933   0.00000  Uiso   1.00
C5     C     0.18336   0.13978   0.27657   0.00000  Uiso   1.00
C6     C     0.14987   0.19370   0.22366   0.00000  Uiso   1.00
C7     C     0.13376   0.13976   0.27653   0.00000  Uiso   1.00
C8     C     0.19953   0.19363   0.22355   0.00000  Uiso   1.00
C9     C     0.30587   0.16663   0.33624   0.00000  Uiso   1.00
C10    C     0.02752   0.16828   0.16382   0.00000  Uiso   1.00
C11    C     0.29082   0.16843   0.38565   0.00000  Uiso   1.00
C12    C     0.00003   0.24594   0.25050   0.00000  Uiso   1.00
C13    C     0.04332   0.17700   0.11523   0.00000  Uiso   1.00
C14    C     0.30965   0.16484   0.45715   0.00000  Uiso   1.00
C15    C     0.02913   0.20746   0.04845   0.00000  Uiso   1.00
C16    C     0.32474   0.16319   0.41036   0.00000  Uiso   1.00
C17    C     0.01151   0.19445   0.09310   0.00000  Uiso   1.00
C18    C     0.24198   0.17624   0.40823   0.00000  Uiso   1.00
C19    C     0.09273   0.17296   0.09231   0.00000  Uiso   1.00
C20    C     0.22677   0.18181   0.45514   0.00000  Uiso   1.00
C21    C     0.11182   0.18866   0.04854   0.00000  Uiso   1.00
C22    C     0.26097   0.17366   0.47968   0.00000  Uiso   1.00
C23    C     0.19857   0.18351   0.04979   0.00000  Uiso   1.00
C24    C     0.07881   0.20387   0.02576   0.00000  Uiso   1.00
C25    C     0.17805   0.19292   0.47858   0.00000  Uiso   1.00
C26    C     0.16253   0.18772   0.02618   0.00000  Uiso   1.00
C27    C     0.19463   0.23445   0.10047   0.00000  Uiso   1.00
C28    C     0.17757   0.26614   0.41438   0.00000  Uiso   1.00
C29    C     0.22221   0.03387   0.22989   0.00000  Uiso   1.00
C30    C     0.11105   0.29906   0.26996   0.00000  Uiso   1.00
C31    C     0.14466   0.21079   0.45705   0.00000  Uiso   1.00
C32    C     0.24660   0.17509   0.02643   0.00000  Uiso   1.00
C33    C     0.09578   0.21577   0.48081   0.00000  Uiso   1.00
C34    C     0.30066   0.02083   0.23070   0.00000  Uiso   1.00
C35    C     0.03265   0.31248   0.26932   0.00000  Uiso   1.00
C36    C     0.30188   0.31128   0.23097   0.00000  Uiso   1.00
Cu37   Cu    0.04689   0.16667   0.25000   0.00000  Uiso   1.00
Cu38   Cu    0.28645   0.16666   0.25000   0.00000  Uiso   1.00
H39    H     0.27283   0.17019   0.04533   0.00000  Uiso   1.00
H40    H     0.02932   0.15693   0.39364   0.00000  Uiso   1.00
H41    H     0.23191   0.24520   0.08190   0.00000  Uiso   1.00
H42    H     0.18988   0.24121   0.13652   0.00000  Uiso   1.00
H43    H     0.16661   0.25217   0.08952   0.00000  Uiso   1.00
H44    H     0.21020   0.26643   0.42745   0.00000  Uiso   1.00
H45    H     0.14913   0.28712   0.43459   0.00000  Uiso   1.00
H46    H     0.18903   0.27825   0.37942   0.00000  Uiso   1.00
H47    H     0.20003   0.05631   0.21707   0.00000  Uiso   1.00
H48    H     0.21342   0.03813   0.26706   0.00000  Uiso   1.00
H49    H     0.21128   0.00256   0.22179   0.00000  Uiso   1.00
H50    H     0.07093   0.22886   0.46362   0.00000  Uiso   1.00
H51    H     0.11966   0.29416   0.23290   0.00000  Uiso   1.00
H52    H     0.13314   0.27683   0.28317   0.00000  Uiso   1.00
H53    H     0.12223   0.33050   0.27737   0.00000  Uiso   1.00
H54    H     0.27879   0.29409   0.21482   0.00000  Uiso   1.00
H55    H     0.05458   0.03920   0.28516   0.00000  Uiso   1.00
H56    H     0.10856   0.11821   0.29778   0.00000  Uiso   1.00
H57    H     0.22470   0.21524   0.20237   0.00000  Uiso   1.00
H58    H     0.11571   0.15663   0.10895   0.00000  Uiso   1.00
H59    H     0.21602   0.17641   0.38873   0.00000  Uiso   1.00
H60    H     0.00281   0.15934   0.47573   0.00000  Uiso   1.00
H61    H     0.00408   0.22089   0.03177   0.00000  Uiso   1.00
H62    H     0.19555   0.11824   0.29785   0.00000  Uiso   1.00
H63    H     0.13734   0.21544   0.20288   0.00000  Uiso   1.00
H64    H     0.30668   0.19879   0.11049   0.00000  Uiso   1.00
N65    N     0.11736   0.16668   0.24999   0.00000  Uiso   1.00
N66    N     0.21597   0.16666   0.25001   0.00000  Uiso   1.00
O67    O     0.03958   0.10655   0.25000   0.00000  Uiso   1.00
O68    O     0.15911   0.22586   0.41351   0.00000  Uiso   1.00
O69    O     0.27190   0.04154   0.20831   0.00000  Uiso   1.00
O70    O     0.06134   0.29179   0.29181   0.00000  Uiso   1.00
O71    O     0.29375   0.22678   0.25000   0.00000  Uiso   1.00
O72    O     0.29372   0.10654   0.25000   0.00000  Uiso   1.00
O73    O     0.03961   0.22679   0.25000   0.00000  Uiso   1.00
O74    O     0.01852   0.16668   0.31492   0.00000  Uiso   1.00
O75    O     0.31481   0.16666   0.18508   0.00000  Uiso   1.00
O76    O     0.27267   0.16667   0.31492   0.00000  Uiso   1.00
O77    O     0.06067   0.16667   0.18508   0.00000  Uiso   1.00
O78    O     0.18879   0.19168   0.09530   0.00000  Uiso   1.00
C79    C     0.66664   0.08739   0.24951   0.00000  Uiso   1.00
C80    C     0.36480   0.02203   0.26902   0.00000  Uiso   1.00
C81    C     0.33365   0.29055   0.25068   0.00000  Uiso   1.00
C82    C     0.66635   0.04276   0.24933   0.00000  Uiso   1.00
C83    C     0.51669   0.13978   0.27657   0.00000  Uiso   1.00
C84    C     0.48320   0.19370   0.22366   0.00000  Uiso   1.00
C85    C     0.46709   0.13976   0.27653   0.00000  Uiso   1.00
C86    C     0.53286   0.19363   0.22355   0.00000  Uiso   1.00
C87    C     0.63921   0.16663   0.33624   0.00000  Uiso   1.00
C88    C     0.36085   0.16828   0.16382   0.00000  Uiso   1.00
C89    C     0.62415   0.16843   0.38565   0.00000  Uiso   1.00
C90    C     0.33336   0.24594   0.25050   0.00000  Uiso   1.00
C91    C     0.37666   0.17700   0.11523   0.00000  Uiso   1.00
C92    C     0.64299   0.16484   0.45715   0.00000  Uiso   1.00
C93    C     0.36246   0.20746   0.04845   0.00000  Uiso   1.00
C94    C     0.65807   0.16319   0.41036   0.00000  Uiso   1.00
C95    C     0.34484   0.19445   0.09310   0.00000  Uiso   1.00
C96    C     0.57531   0.17624   0.40823   0.00000  Uiso   1.00
C97    C     0.42606   0.17296   0.09231   0.00000  Uiso   1.00
C98    C     0.56010   0.18181   0.45514   0.00000  Uiso   1.00
C99    C     0.44516   0.18866   0.04854   0.00000  Uiso   1.00
C100   C     0.59430   0.17366   0.47968   0.00000  Uiso   1.00
C101   C     0.53190   0.18351   0.04979   0.00000  Uiso   1.00
C102   C     0.41215   0.20387   0.02576   0.00000  Uiso   1.00
C103   C     0.51138   0.19292   0.47858   0.00000  Uiso   1.00
C104   C     0.49586   0.18772   0.02618   0.00000  Uiso   1.00
C105   C     0.52797   0.23445   0.10047   0.00000  Uiso   1.00
C106   C     0.51090   0.26614   0.41438   0.00000  Uiso   1.00
C107   C     0.55554   0.03387   0.22989   0.00000  Uiso   1.00
C108   C     0.44438   0.29906   0.26996   0.00000  Uiso   1.00
C109   C     0.47799   0.21079   0.45705   0.00000  Uiso   1.00
C110   C     0.57993   0.17509   0.02643   0.00000  Uiso   1.00
C111   C     0.42911   0.21577   0.48081   0.00000  Uiso   1.00
C112   C     0.63400   0.02083   0.23070   0.00000  Uiso   1.00
C113   C     0.36599   0.31248   0.26932   0.00000  Uiso   1.00
C114   C     0.63521   0.31128   0.23097   0.00000  Uiso   1.00
Cu115  Cu    0.38022   0.16667   0.25000   0.00000  Uiso   1.00
Cu116  Cu    0.61978   0.16666   0.25000   0.00000  Uiso   1.00
H117   H     0.60616   0.17019   0.04533   0.00000  Uiso   1.00
H118   H     0.36265   0.15693   0.39364   0.00000  Uiso   1.00
H119   H     0.56525   0.24520   0.08190   0.00000  Uiso   1.00
H120   H     0.52322   0.24121   0.13652   0.00000  Uiso   1.00
H121   H     0.49994   0.25217   0.08952   0.00000  Uiso   1.00
H122   H     0.54353   0.26643   0.42745   0.00000  Uiso   1.00
H123   H     0.48247   0.28712   0.43459   0.00000  Uiso   1.00
H124   H     0.52236   0.27825   0.37942   0.00000  Uiso   1.00
H125   H     0.53336   0.05631   0.21707   0.00000  Uiso   1.00
H126   H     0.54676   0.03813   0.26706   0.00000  Uiso   1.00
H127   H     0.54461   0.00256   0.22179   0.00000  Uiso   1.00
H128   H     0.40426   0.22886   0.46362   0.00000  Uiso   1.00
H129   H     0.45299   0.29416   0.23290   0.00000  Uiso   1.00
H130   H     0.46647   0.27683   0.28317   0.00000  Uiso   1.00
H131   H     0.45557   0.33050   0.27737   0.00000  Uiso   1.00
H132   H     0.61213   0.29409   0.21482   0.00000  Uiso   1.00
H133   H     0.38791   0.03920   0.28516   0.00000  Uiso   1.00
H134   H     0.44190   0.11821   0.29778   0.00000  Uiso   1.00
H135   H     0.55803   0.21524   0.20237   0.00000  Uiso   1.00
H136   H     0.44904   0.15663   0.10895   0.00000  Uiso   1.00
H137   H     0.54936   0.17641   0.38873   0.00000  Uiso   1.00
H138   H     0.33614   0.15934   0.47573   0.00000  Uiso   1.00
H139   H     0.33741   0.22089   0.03177   0.00000  Uiso   1.00
H140   H     0.52888   0.11824   0.29785   0.00000  Uiso   1.00
H141   H     0.47067   0.21544   0.20288   0.00000  Uiso   1.00
H142   H     0.64001   0.19879   0.11049   0.00000  Uiso   1.00
N143   N     0.45069   0.16668   0.24999   0.00000  Uiso   1.00
N144   N     0.54931   0.16666   0.25001   0.00000  Uiso   1.00
O145   O     0.37291   0.10655   0.25000   0.00000  Uiso   1.00
O146   O     0.49244   0.22586   0.41351   0.00000  Uiso   1.00
O147   O     0.60523   0.04154   0.20831   0.00000  Uiso   1.00
O148   O     0.39467   0.29179   0.29181   0.00000  Uiso   1.00
O149   O     0.62709   0.22678   0.25000   0.00000  Uiso   1.00
O150   O     0.62706   0.10654   0.25000   0.00000  Uiso   1.00
O151   O     0.37294   0.22679   0.25000   0.00000  Uiso   1.00
O152   O     0.35186   0.16668   0.31492   0.00000  Uiso   1.00
O153   O     0.64814   0.16666   0.18508   0.00000  Uiso   1.00
O154   O     0.60600   0.16667   0.31492   0.00000  Uiso   1.00
O155   O     0.39400   0.16667   0.18508   0.00000  Uiso   1.00
O156   O     0.52212   0.19168   0.09530   0.00000  Uiso   1.00
C157   C     0.99997   0.08739   0.24951   0.00000  Uiso   1.00
C158   C     0.69814   0.02203   0.26902   0.00000  Uiso   1.00
C159   C     0.66698   0.29055   0.25068   0.00000  Uiso   1.00
C160   C     0.99969   0.04276   0.24933   0.00000  Uiso   1.00
C161   C     0.85002   0.13978   0.27657   0.00000  Uiso   1.00
C162   C     0.81654   0.19370   0.22366   0.00000  Uiso   1.00
C163   C     0.80042   0.13976   0.27653   0.00000  Uiso   1.00
C164   C     0.86620   0.19363   0.22355   0.00000  Uiso   1.00
C165   C     0.97254   0.16663   0.33624   0.00000  Uiso   1.00
C166   C     0.69419   0.16828   0.16382   0.00000  Uiso   1.00
C167   C     0.95749   0.16843   0.38565   0.00000  Uiso   1.00
C168   C     0.66669   0.24594   0.25050   0.00000  Uiso   1.00
C169   C     0.70999   0.17700   0.11523   0.00000  Uiso   1.00
C170   C     0.97632   0.16484   0.45715   0.00000  Uiso   1.00
C171   C     0.69580   0.20746   0.04845   0.00000  Uiso   1.00
C172   C     0.99140   0.16319   0.41036   0.00000  Uiso   1.00
C173   C     0.67817   0.19445   0.09310   0.00000  Uiso   1.00
C174   C     0.90865   0.17624   0.40823   0.00000  Uiso   1.00
C175   C     0.75939   0.17296   0.09231   0.00000  Uiso   1.00
C176   C     0.89343   0.18181   0.45514   0.00000  Uiso   1.00
C177   C     0.77849   0.18866   0.04854   0.00000  Uiso   1.00
C178   C     0.92764   0.17366   0.47968   0.00000  Uiso   1.00
C179   C     0.86523   0.18351   0.04979   0.00000  Uiso   1.00
C180   C     0.74548   0.20387   0.02576   0.00000  Uiso   1.00
C181   C     0.84471   0.19292   0.47858   0.00000  Uiso   1.00
C182   C     0.82920   0.18772   0.02618   0.00000  Uiso   1.00
C183   C     0.86130   0.23445   0.10047   0.00000  Uiso   1.00
C184   C     0.84424   0.26614   0.41438   0.00000  Uiso   1.00
C185   C     0.88887   0.03387   0.22989   0.00000  Uiso   1.00
C186   C     0.77772   0.29906   0.26996   0.00000  Uiso   1.00
C187   C     0.81132   0.21079   0.45705   0.00000  Uiso   1.00
C188   C     0.91326   0.17509   0.02643   0.00000  Uiso   1.00
C189   C     0.76245   0.21577   0.48081   0.00000  Uiso   1.00
C190   C     0.96733   0.02083   0.23070   0.00000  Uiso   1.00
C191   C     0.69932   0.31248   0.26932   0.00000  Uiso   1.00
C192   C     0.96854   0.31128   0.23097   0.00000  Uiso   1.00
Cu193  Cu    0.71355   0.16667   0.25000   0.00000  Uiso   1.00
Cu194  Cu    0.95311   0.16666   0.25000   0.00000  Uiso   1.00
H195   H     0.93949   0.17019   0.04533   0.00000  Uiso   1.00
H196   H     0.69599   0.15693   0.39364   0.00000  Uiso   1.00
H197   H     0.89858   0.24520   0.08190   0.00000  Uiso   1.00
H198   H     0.85655   0.24121   0.13652   0.00000  Uiso   1.00
H199   H     0.83327   0.25217   0.08952   0.00000  Uiso   1.00
H200   H     0.87687   0.26643   0.42745   0.00000  Uiso   1.00
H201   H     0.81580   0.28712   0.43459   0.00000  Uiso   1.00
H202   H     0.85570   0.27825   0.37942   0.00000  Uiso   1.00
H203   H     0.86669   0.05631   0.21707   0.00000  Uiso   1.00
H204   H     0.88009   0.03813   0.26706   0.00000  Uiso   1.00
H205   H     0.87795   0.00256   0.22179   0.00000  Uiso   1.00
H206   H     0.73760   0.22886   0.46362   0.00000  Uiso   1.00
H207   H     0.78633   0.29416   0.23290   0.00000  Uiso   1.00
H208   H     0.79980   0.27683   0.28317   0.00000  Uiso   1.00
H209   H     0.78890   0.33050   0.27737   0.00000  Uiso   1.00
H210   H     0.94546   0.29409   0.21482   0.00000  Uiso   1.00
H211   H     0.72125   0.03920   0.28516   0.00000  Uiso   1.00
H212   H     0.77523   0.11821   0.29778   0.00000  Uiso   1.00
H213   H     0.89136   0.21524   0.20237   0.00000  Uiso   1.00
H214   H     0.78238   0.15663   0.10895   0.00000  Uiso   1.00
H215   H     0.88269   0.17641   0.38873   0.00000  Uiso   1.00
H216   H     0.66947   0.15934   0.47573   0.00000  Uiso   1.00
H217   H     0.67075   0.22089   0.03177   0.00000  Uiso   1.00
H218   H     0.86222   0.11824   0.29785   0.00000  Uiso   1.00
H219   H     0.80401   0.21544   0.20288   0.00000  Uiso   1.00
H220   H     0.97335   0.19879   0.11049   0.00000  Uiso   1.00
N221   N     0.78403   0.16668   0.24999   0.00000  Uiso   1.00
N222   N     0.88264   0.16666   0.25001   0.00000  Uiso   1.00
O223   O     0.70625   0.10655   0.25000   0.00000  Uiso   1.00
O224   O     0.82577   0.22586   0.41351   0.00000  Uiso   1.00
O225   O     0.93857   0.04154   0.20831   0.00000  Uiso   1.00
O226   O     0.72801   0.29179   0.29181   0.00000  Uiso   1.00
O227   O     0.96042   0.22678   0.25000   0.00000  Uiso   1.00
O228   O     0.96039   0.10654   0.25000   0.00000  Uiso   1.00
O229   O     0.70628   0.22679   0.25000   0.00000  Uiso   1.00
O230   O     0.68519   0.16668   0.31492   0.00000  Uiso   1.00
O231   O     0.98148   0.16666   0.18508   0.00000  Uiso   1.00
O232   O     0.93933   0.16667   0.31492   0.00000  Uiso   1.00
O233   O     0.72733   0.16667   0.18508   0.00000  Uiso   1.00
O234   O     0.85546   0.19168   0.09530   0.00000  Uiso   1.00
C235   C     0.33331   0.42072   0.24951   0.00000  Uiso   1.00
C236   C     0.03147   0.35536   0.26902   0.00000  Uiso   1.00
C237   C     0.00032   0.62388   0.25068   0.00000  Uiso   1.00
C238   C     0.33302   0.37609   0.24933   0.00000  Uiso   1.00
C239   C     0.18336   0.47311   0.27657   0.00000  Uiso   1.00
C240   C     0.14987   0.52703   0.22366   0.00000  Uiso   1.00
C241   C     0.13376   0.47310   0.27653   0.00000  Uiso   1.00
C242   C     0.19953   0.52696   0.22355   0.00000  Uiso   1.00
C243   C     0.30587   0.49996   0.33624   0.00000  Uiso   1.00
C244   C     0.02752   0.50161   0.16382   0.00000  Uiso   1.00
C245   C     0.29082   0.50176   0.38565   0.00000  Uiso   1.00
C246   C     0.00003   0.57927   0.25050   0.00000  Uiso   1.00
C247   C     0.04332   0.51033   0.11523   0.00000  Uiso   1.00
C248   C     0.30965   0.49817   0.45715   0.00000  Uiso   1.00
C249   C     0.02913   0.54079   0.04845   0.00000  Uiso   1.00
C250   C     0.32474   0.49652   0.41036   0.00000  Uiso   1.00
C251   C     0.01151   0.52779   0.09310   0.00000  Uiso   1.00
C252   C     0.24198   0.50957   0.40823   0.00000  Uiso   1.00
C253   C     0.09273   0.50629   0.09231   0.00000  Uiso   1.00
C254   C     0.22677   0.51514   0.45514   0.00000  Uiso   1.00
C255   C     0.11182   0.52199   0.04854   0.00000  Uiso   1.00
C256   C     0.26097   0.50699   0.47968   0.00000  Uiso   1.00
C257   C     0.19857   0.51685   0.04979   0.00000  Uiso   1.00
C258   C     0.07881   0.53720   0.02576   0.00000  Uiso   1.00
C259   C     0.17805   0.52626   0.47858   0.00000  Uiso   1.00
C260   C     0.16253   0.52106   0.02618   0.00000  Uiso   1.00
C261   C     0.19463   0.56778   0.10047   0.00000  Uiso   1.00
C262   C     0.17757   0.59947   0.41438   0.00000  Uiso   1.00
C263   C     0.22221   0.36720   0.22989   0.00000  Uiso   1.00
C264   C     0.11105   0.63239   0.26996   0.00000  Uiso   1.00
C265   C     0.14466   0.54412   0.45705   0.00000  Uiso   1.00
C266   C     0.24660   0.50842   0.02643   0.00000  Uiso   1.00
C267   C     0.09578   0.54910   0.48081   0.00000  Uiso   1.00
C268   C     0.30066   0.35416   0.23070   0.00000  Uiso   1.00
C269   C     0.03265   0.64581   0.26932   0.00000  Uiso   1.00
C270   C     0.30188   0.64461   0.23097   0.00000  Uiso   1.00
Cu271  Cu    0.04689   0.50001   0.25000   0.00000  Uiso   1.00
Cu272  Cu    0.28645   0.49999   0.25000   0.00000  Uiso   1.00
H273   H     0.27283   0.50352   0.04533   0.00000  Uiso   1.00
H274   H     0.02932   0.49027   0.39364   0.00000  Uiso   1.00
H275   H     0.23191   0.57854   0.08190   0.00000  Uiso   1.00
H276   H     0.18988   0.57455   0.13652   0.00000  Uiso   1.00
H277   H     0.16661   0.58551   0.08952   0.00000  Uiso   1.00
H278   H     0.21020   0.59976   0.42745   0.00000  Uiso   1.00
H279   H     0.14913   0.62046   0.43459   0.00000  Uiso   1.00
H280   H     0.18903   0.61159   0.37942   0.00000  Uiso   1.00
H281   H     0.20003   0.38964   0.21707   0.00000  Uiso   1.00
H282   H     0.21342   0.37147   0.26706   0.00000  Uiso   1.00
H283   H     0.21128   0.33589   0.22179   0.00000  Uiso   1.00
H284   H     0.07093   0.56219   0.46362   0.00000  Uiso   1.00
H285   H     0.11966   0.62749   0.23290   0.00000  Uiso   1.00
H286   H     0.13314   0.61016   0.28317   0.00000  Uiso   1.00
H287   H     0.12223   0.66383   0.27737   0.00000  Uiso   1.00
H288   H     0.27879   0.62742   0.21482   0.00000  Uiso   1.00
H289   H     0.05458   0.37254   0.28516   0.00000  Uiso   1.00
H290   H     0.10856   0.45155   0.29778   0.00000  Uiso   1.00
H291   H     0.22470   0.54858   0.20237   0.00000  Uiso   1.00
H292   H     0.11571   0.48996   0.10895   0.00000  Uiso   1.00
H293   H     0.21602   0.50974   0.38873   0.00000  Uiso   1.00
H294   H     0.00281   0.49268   0.47573   0.00000  Uiso   1.00
H295   H     0.00408   0.55422   0.03177   0.00000  Uiso   1.00
H296   H     0.19555   0.45157   0.29785   0.00000  Uiso   1.00
H297   H     0.13734   0.54877   0.20288   0.00000  Uiso   1.00
H298   H     0.30668   0.53212   0.11049   0.00000  Uiso   1.00
N299   N     0.11736   0.50001   0.24999   0.00000  Uiso   1.00
N300   N     0.21597   0.49999   0.25001   0.00000  Uiso   1.00
O301   O     0.03958   0.43989   0.25000   0.00000  Uiso   1.00
O302   O     0.15911   0.55919   0.41351   0.00000  Uiso   1.00
O303   O     0.27190   0.37488   0.20831   0.00000  Uiso   1.00
O304   O     0.06134   0.62512   0.29181   0.00000  Uiso   1.00
O305   O     0.29375   0.56011   0.25000   0.00000  Uiso   1.00
O306   O     0.29372   0.43988   0.25000   0.00000  Uiso   1.00
O307   O     0.03961   0.56012   0.25000   0.00000  Uiso   1.00
O308   O     0.01852   0.50001   0.31492   0.00000  Uiso   1.00
O309   O     0.31481   0.49999   0.18508   0.00000  Uiso   1.00
O310   O     0.27267   0.50000   0.31492   0.00000  Uiso   1.00
O311   O     0.06067   0.50000   0.18508   0.00000  Uiso   1.00
O312   O     0.18879   0.52501   0.09530   0.00000  Uiso   1.00
C313   C     0.66664   0.42072   0.24951   0.00000  Uiso   1.00
C314   C     0.36480   0.35536   0.26902   0.00000  Uiso   1.00
C315   C     0.33365   0.62388   0.25068   0.00000  Uiso   1.00
C316   C     0.66635   0.37609   0.24933   0.00000  Uiso   1.00
C317   C     0.51669   0.47311   0.27657   0.00000  Uiso   1.00
C318   C     0.48320   0.52703   0.22366   0.00000  Uiso   1.00
C319   C     0.46709   0.47310   0.27653   0.00000  Uiso   1.00
C320   C     0.53286   0.52696   0.22355   0.00000  Uiso   1.00
C321   C     0.63921   0.49996   0.33624   0.00000  Uiso   1.00
C322   C     0.36085   0.50161   0.16382   0.00000  Uiso   1.00
C323   C     0.62415   0.50176   0.38565   0.00000  Uiso   1.00
C324   C     0.33336   0.57927   0.25050   0.00000  Uiso   1.00
C325   C     0.37666   0.51033   0.11523   0.00000  Uiso   1.00
C326   C     0.64299   0.49817   0.45715   0.00000  Uiso   1.00
C327   C     0.36246   0.54079   0.04845   0.00000  Uiso   1.00
C328   C     0.65807   0.49652   0.41036   0.00000  Uiso   1.00
C329   C     0.34484   0.52779   0.09310   0.00000  Uiso   1.00
C330   C     0.57531   0.50957   0.40823   0.00000  Uiso   1.00
C331   C     0.42606   0.50629   0.09231   0.00000  Uiso   1.00
C332   C     0.56010   0.51514   0.45514   0.00000  Uiso   1.00
C333   C     0.44516   0.52199   0.04854   0.00000  Uiso   1.00
C334   C     0.59430   0.50699   0.47968   0.00000  Uiso   1.00
C335   C     0.53190   0.51685   0.04979   0.00000  Uiso   1.00
C336   C     0.41215   0.53720   0.02576   0.00000  Uiso   1.00
C337   C     0.51138   0.52626   0.47858   0.00000  Uiso   1.00
C338   C     0.49586   0.52106   0.02618   0.00000  Uiso   1.00
C339   C     0.52797   0.56778   0.10047   0.00000  Uiso   1.00
C340   C     0.51090   0.59947   0.41438   0.00000  Uiso   1.00
C341   C     0.55554   0.36720   0.22989   0.00000  Uiso   1.00
C342   C     0.44438   0.63239   0.26996   0.00000  Uiso   1.00
C343   C     0.47799   0.54412   0.45705   0.00000  Uiso   1.00
C344   C     0.57993   0.50842   0.02643   0.00000  Uiso   1.00
C345   C     0.42911   0.54910   0.48081   0.00000  Uiso   1.00
C346   C     0.63400   0.35416   0.23070   0.00000  Uiso   1.00
C347   C     0.36599   0.64581   0.26932   0.00000  Uiso   1.00
C348   C     0.63521   0.64461   0.23097   0.00000  Uiso   1.00
Cu349  Cu    0.38022   0.50001   0.25000   0.00000  Uiso   1.00
Cu350  Cu    0.61978   0.49999   0.25000   0.00000  Uiso   1.00
H351   H     0.60616   0.50352   0.04533   0.00000  Uiso   1.00
H352   H     0.36265   0.49027   0.39364   0.00000  Uiso   1.00
H353   H     0.56525   0.57854   0.08190   0.00000  Uiso   1.00
H354   H     0.52322   0.57455   0.13652   0.00000  Uiso   1.00
H355   H     0.49994   0.58551   0.08952   0.00000  Uiso   1.00
H356   H     0.54353   0.59976   0.42745   0.00000  Uiso   1.00
H357   H     0.48247   0.62046   0.43459   0.00000  Uiso   1.00
H358   H     0.52236   0.61159   0.37942   0.00000  Uiso   1.00
H359   H     0.53336   0.38964   0.21707   0.00000  Uiso   1.00
H360   H     0.54676   0.37147   0.26706   0.00000  Uiso   1.00
H361   H     0.54461   0.33589   0.22179   0.00000  Uiso   1.00
H362   H     0.40426   0.56219   0.46362   0.00000  Uiso   1.00
H363   H     0.45299   0.62749   0.23290   0.00000  Uiso   1.00
H364   H     0.46647   0.61016   0.28317   0.00000  Uiso   1.00
H365   H     0.45557   0.66383   0.27737   0.00000  Uiso   1.00
H366   H     0.61213   0.62742   0.21482   0.00000  Uiso   1.00
H367   H     0.38791   0.37254   0.28516   0.00000  Uiso   1.00
H368   H     0.44190   0.45155   0.29778   0.00000  Uiso   1.00
H369   H     0.55803   0.54858   0.20237   0.00000  Uiso   1.00
H370   H     0.44904   0.48996   0.10895   0.00000  Uiso   1.00
H371   H     0.54936   0.50974   0.38873   0.00000  Uiso   1.00
H372   H     0.33614   0.49268   0.47573   0.00000  Uiso   1.00
H373   H     0.33741   0.55422   0.03177   0.00000  Uiso   1.00
H374   H     0.52888   0.45157   0.29785   0.00000  Uiso   1.00
H375   H     0.47067   0.54877   0.20288   0.00000  Uiso   1.00
H376   H     0.64001   0.53212   0.11049   0.00000  Uiso   1.00
N377   N     0.45069   0.50001   0.24999   0.00000  Uiso   1.00
N378   N     0.54931   0.49999   0.25001   0.00000  Uiso   1.00
O379   O     0.37291   0.43989   0.25000   0.00000  Uiso   1.00
O380   O     0.49244   0.55919   0.41351   0.00000  Uiso   1.00
O381   O     0.60523   0.37488   0.20831   0.00000  Uiso   1.00
O382   O     0.39467   0.62512   0.29181   0.00000  Uiso   1.00
O383   O     0.62709   0.56011   0.25000   0.00000  Uiso   1.00
O384   O     0.62706   0.43988   0.25000   0.00000  Uiso   1.00
O385   O     0.37294   0.56012   0.25000   0.00000  Uiso   1.00
O386   O     0.35186   0.50001   0.31492   0.00000  Uiso   1.00
O387   O     0.64814   0.49999   0.18508   0.00000  Uiso   1.00
O388   O     0.60600   0.50000   0.31492   0.00000  Uiso   1.00
O389   O     0.39400   0.50000   0.18508   0.00000  Uiso   1.00
O390   O     0.52212   0.52501   0.09530   0.00000  Uiso   1.00
C391   C     0.99997   0.42072   0.24951   0.00000  Uiso   1.00
C392   C     0.69814   0.35536   0.26902   0.00000  Uiso   1.00
C393   C     0.66698   0.62388   0.25068   0.00000  Uiso   1.00
C394   C     0.99969   0.37609   0.24933   0.00000  Uiso   1.00
C395   C     0.85002   0.47311   0.27657   0.00000  Uiso   1.00
C396   C     0.81654   0.52703   0.22366   0.00000  Uiso   1.00
C397   C     0.80042   0.47310   0.27653   0.00000  Uiso   1.00
C398   C     0.86620   0.52696   0.22355   0.00000  Uiso   1.00
C399   C     0.97254   0.49996   0.33624   0.00000  Uiso   1.00
C400   C     0.69419   0.50161   0.16382   0.00000  Uiso   1.00
C401   C     0.95749   0.50176   0.38565   0.00000  Uiso   1.00
C402   C     0.66669   0.57927   0.25050   0.00000  Uiso   1.00
C403   C     0.70999   0.51033   0.11523   0.00000  Uiso   1.00
C404   C     0.97632   0.49817   0.45715   0.00000  Uiso   1.00
C405   C     0.69580   0.54079   0.04845   0.00000  Uiso   1.00
C406   C     0.99140   0.49652   0.41036   0.00000  Uiso   1.00
C407   C     0.67817   0.52779   0.09310   0.00000  Uiso   1.00
C408   C     0.90865   0.50957   0.40823   0.00000  Uiso   1.00
C409   C     0.75939   0.50629   0.09231   0.00000  Uiso   1.00
C410   C     0.89343   0.51514   0.45514   0.00000  Uiso   1.00
C411   C     0.77849   0.52199   0.04854   0.00000  Uiso   1.00
C412   C     0.92764   0.50699   0.47968   0.00000  Uiso   1.00
C413   C     0.86523   0.51685   0.04979   0.00000  Uiso   1.00
C414   C     0.74548   0.53720   0.02576   0.00000  Uiso   1.00
C415   C     0.84471   0.52626   0.47858   0.00000  Uiso   1.00
C416   C     0.82920   0.52106   0.02618   0.00000  Uiso   1.00
C417   C     0.86130   0.56778   0.10047   0.00000  Uiso   1.00
C418   C     0.84424   0.59947   0.41438   0.00000  Uiso   1.00
C419   C     0.88887   0.36720   0.22989   0.00000  Uiso   1.00
C420   C     0.77772   0.63239   0.26996   0.00000  Uiso   1.00
C421   C     0.81132   0.54412   0.45705   0.00000  Uiso   1.00
C422   C     0.91326   0.50842   0.02643   0.00000  Uiso   1.00
C423   C     0.76245   0.54910   0.48081   0.00000  Uiso   1.00
C424   C     0.96733   0.35416   0.23070   0.00000  Uiso   1.00
C425   C     0.69932   0.64581   0.26932   0.00000  Uiso   1.00
C426   C     0.96854   0.64461   0.23097   0.00000  Uiso   1.00
Cu427  Cu    0.71355   0.50001   0.25000   0.00000  Uiso   1.00
Cu428  Cu    0.95311   0.49999   0.25000   0.00000  Uiso   1.00
H429   H     0.93949   0.50352   0.04533   0.00000  Uiso   1.00
H430   H     0.69599   0.49027   0.39364   0.00000  Uiso   1.00
H431   H     0.89858   0.57854   0.08190   0.00000  Uiso   1.00
H432   H     0.85655   0.57455   0.13652   0.00000  Uiso   1.00
H433   H     0.83327   0.58551   0.08952   0.00000  Uiso   1.00
H434   H     0.87687   0.59976   0.42745   0.00000  Uiso   1.00
H435   H     0.81580   0.62046   0.43459   0.00000  Uiso   1.00
H436   H     0.85570   0.61159   0.37942   0.00000  Uiso   1.00
H437   H     0.86669   0.38964   0.21707   0.00000  Uiso   1.00
H438   H     0.88009   0.37147   0.26706   0.00000  Uiso   1.00
H439   H     0.87795   0.33589   0.22179   0.00000  Uiso   1.00
H440   H     0.73760   0.56219   0.46362   0.00000  Uiso   1.00
H441   H     0.78633   0.62749   0.23290   0.00000  Uiso   1.00
H442   H     0.79980   0.61016   0.28317   0.00000  Uiso   1.00
H443   H     0.78890   0.66383   0.27737   0.00000  Uiso   1.00
H444   H     0.94546   0.62742   0.21482   0.00000  Uiso   1.00
H445   H     0.72125   0.37254   0.28516   0.00000  Uiso   1.00
H446   H     0.77523   0.45155   0.29778   0.00000  Uiso   1.00
H447   H     0.89136   0.54858   0.20237   0.00000  Uiso   1.00
H448   H     0.78238   0.48996   0.10895   0.00000  Uiso   1.00
H449   H     0.88269   0.50974   0.38873   0.00000  Uiso   1.00
H450   H     0.66947   0.49268   0.47573   0.00000  Uiso   1.00
H451   H     0.67075   0.55422   0.03177   0.00000  Uiso   1.00
H452   H     0.86222   0.45157   0.29785   0.00000  Uiso   1.00
H453   H     0.80401   0.54877   0.20288   0.00000  Uiso   1.00
H454   H     0.97335   0.53212   0.11049   0.00000  Uiso   1.00
N455   N     0.78403   0.50001   0.24999   0.00000  Uiso   1.00
N456   N     0.88264   0.49999   0.25001   0.00000  Uiso   1.00
O457   O     0.70625   0.43989   0.25000   0.00000  Uiso   1.00
O458   O     0.82577   0.55919   0.41351   0.00000  Uiso   1.00
O459   O     0.93857   0.37488   0.20831   0.00000  Uiso   1.00
O460   O     0.72801   0.62512   0.29181   0.00000  Uiso   1.00
O461   O     0.96042   0.56011   0.25000   0.00000  Uiso   1.00
O462   O     0.96039   0.43988   0.25000   0.00000  Uiso   1.00
O463   O     0.70628   0.56012   0.25000   0.00000  Uiso   1.00
O464   O     0.68519   0.50001   0.31492   0.00000  Uiso   1.00
O465   O     0.98148   0.49999   0.18508   0.00000  Uiso   1.00
O466   O     0.93933   0.50000   0.31492   0.00000  Uiso   1.00
O467   O     0.72733   0.50000   0.18508   0.00000  Uiso   1.00
O468   O     0.85546   0.52501   0.09530   0.00000  Uiso   1.00
C469   C     0.33331   0.75406   0.24951   0.00000  Uiso   1.00
C470   C     0.03147   0.68870   0.26902   0.00000  Uiso   1.00
C471   C     0.00032   0.95722   0.25068   0.00000  Uiso   1.00
C472   C     0.33302   0.70943   0.24933   0.00000  Uiso   1.00
C473   C     0.18336   0.80644   0.27657   0.00000  Uiso   1.00
C474   C     0.14987   0.86036   0.22366   0.00000  Uiso   1.00
C475   C     0.13376   0.80643   0.27653   0.00000  Uiso   1.00
C476   C     0.19953   0.86030   0.22355   0.00000  Uiso   1.00
C477   C     0.30587   0.83329   0.33624   0.00000  Uiso   1.00
C478   C     0.02752   0.83495   0.16382   0.00000  Uiso   1.00
C479   C     0.29082   0.83510   0.38565   0.00000  Uiso   1.00
C480   C     0.00003   0.91260   0.25050   0.00000  Uiso   1.00
C481   C     0.04332   0.84367   0.11523   0.00000  Uiso   1.00
C482   C     0.30965   0.83150   0.45715   0.00000  Uiso   1.00
C483   C     0.02913   0.87413   0.04845   0.00000  Uiso   1.00
C484   C     0.32474   0.82986   0.41036   0.00000  Uiso   1.00
C485   C     0.01151   0.86112   0.09310   0.00000  Uiso   1.00
C486   C     0.24198   0.84291   0.40823   0.00000  Uiso   1.00
C487   C     0.09273   0.83963   0.09231   0.00000  Uiso   1.00
C488   C     0.22677   0.84848   0.45514   0.00000  Uiso   1.00
C489   C     0.11182   0.85532   0.04854   0.00000  Uiso   1.00
C490   C     0.26097   0.84032   0.47968   0.00000  Uiso   1.00
C491   C     0.19857   0.85018   0.04979   0.00000  Uiso   1.00
C492   C     0.07881   0.87053   0.02576   0.00000  Uiso   1.00
C493   C     0.17805   0.85959   0.47858   0.00000  Uiso   1.00
C494   C     0.16253   0.85439   0.02618   0.00000  Uiso   1.00
C495   C     0.19463   0.90112   0.10047   0.00000  Uiso   1.00
C496   C     0.17757   0.93280   0.41438   0.00000  Uiso   1.00
C497   C     0.22221   0.70053   0.22989   0.00000  Uiso   1.00
C498   C     0.11105   0.96573   0.26996   0.00000  Uiso   1.00
C499   C     0.14466   0.87745   0.45705   0.00000  Uiso   1.00
C500   C     0.24660   0.84175   0.02643   0.00000  Uiso   1.00
C501   C     0.09578   0.88243   0.48081   0.00000  Uiso   1.00
C502   C     0.30066   0.68750   0.23070   0.00000  Uiso   1.00
C503   C     0.03265   0.97914   0.26932   0.00000  Uiso   1.00
C504   C     0.30188   0.97794   0.23097   0.00000  Uiso   1.00
Cu505  Cu    0.04689   0.83334   0.25000   0.00000  Uiso   1.00
Cu506  Cu    0.28645   0.83333   0.25000   0.00000  Uiso   1.00
H507   H     0.27283   0.83686   0.04533   0.00000  Uiso   1.00
H508   H     0.02932   0.82360   0.39364   0.00000  Uiso   1.00
H509   H     0.23191   0.91187   0.08190   0.00000  Uiso   1.00
H510   H     0.18988   0.90788   0.13652   0.00000  Uiso   1.00
H511   H     0.16661   0.91884   0.08952   0.00000  Uiso   1.00
H512   H     0.21020   0.93310   0.42745   0.00000  Uiso   1.00
H513   H     0.14913   0.95379   0.43459   0.00000  Uiso   1.00
H514   H     0.18903   0.94492   0.37942   0.00000  Uiso   1.00
H515   H     0.20003   0.72298   0.21707   0.00000  Uiso   1.00
H516   H     0.21342   0.70480   0.26706   0.00000  Uiso   1.00
H517   H     0.21128   0.66922   0.22179   0.00000  Uiso   1.00
H518   H     0.07093   0.89552   0.46362   0.00000  Uiso   1.00
H519   H     0.11966   0.96082   0.23290   0.00000  Uiso   1.00
H520   H     0.13314   0.94349   0.28317   0.00000  Uiso   1.00
H521   H     0.12223   0.99717   0.27737   0.00000  Uiso   1.00
H522   H     0.27879   0.96076   0.21482   0.00000  Uiso   1.00
H523   H     0.05458   0.70587   0.28516   0.00000  Uiso   1.00
H524   H     0.10856   0.78488   0.29778   0.00000  Uiso   1.00
H525   H     0.22470   0.88191   0.20237   0.00000  Uiso   1.00
H526   H     0.11571   0.82329   0.10895   0.00000  Uiso   1.00
H527   H     0.21602   0.84308   0.38873   0.00000  Uiso   1.00
H528   H     0.00281   0.82601   0.47573   0.00000  Uiso   1.00
H529   H     0.00408   0.88756   0.03177   0.00000  Uiso   1.00
H530   H     0.19555   0.78490   0.29785   0.00000  Uiso   1.00
H531   H     0.13734   0.88210   0.20288   0.00000  Uiso   1.00
H532   H     0.30668   0.86546   0.11049   0.00000  Uiso   1.00
N533   N     0.11736   0.83334   0.24999   0.00000  Uiso   1.00
N534   N     0.21597   0.83332   0.25001   0.00000  Uiso   1.00
O535   O     0.03958   0.77322   0.25000   0.00000  Uiso   1.00
O536   O     0.15911   0.89253   0.41351   0.00000  Uiso   1.00
O537   O     0.27190   0.70821   0.20831   0.00000  Uiso   1.00
O538   O     0.06134   0.95845   0.29181   0.00000  Uiso   1.00
O539   O     0.29375   0.89345   0.25000   0.00000  Uiso   1.00
O540   O     0.29372   0.77321   0.25000   0.00000  Uiso   1.00
O541   O     0.03961   0.89346   0.25000   0.00000  Uiso   1.00
O542   O     0.01852   0.83334   0.31492   0.00000  Uiso   1.00
O543   O     0.31481   0.83332   0.18508   0.00000  Uiso   1.00
O544   O     0.27267   0.83333   0.31492   0.00000  Uiso   1.00
O545   O     0.06067   0.83333   0.18508   0.00000  Uiso   1.00
O546   O     0.18879   0.85835   0.09530   0.00000  Uiso   1.00
C547   C     0.66664   0.75406   0.24951   0.00000  Uiso   1.00
C548   C     0.36480   0.68870   0.26902   0.00000  Uiso   1.00
C549   C     0.33365   0.95722   0.25068   0.00000  Uiso   1.00
C550   C     0.66635   0.70943   0.24933   0.00000  Uiso   1.00
C551   C     0.51669   0.80644   0.27657   0.00000  Uiso   1.00
C552   C     0.48320   0.86036   0.22366   0.00000  Uiso   1.00
C553   C     0.46709   0.80643   0.27653   0.00000  Uiso   1.00
C554   C     0.53286   0.86030   0.22355   0.00000  Uiso   1.00
C555   C     0.63921   0.83329   0.33624   0.00000  Uiso   1.00
C556   C     0.36085   0.83495   0.16382   0.00000  Uiso   1.00
C557   C     0.62415   0.83510   0.38565   0.00000  Uiso   1.00
C558   C     0.33336   0.91260   0.25050   0.00000  Uiso   1.00
C559   C     0.37666   0.84367   0.11523   0.00000  Uiso   1.00
C560   C     0.64299   0.83150   0.45715   0.00000  Uiso   1.00
C561   C     0.36246   0.87413   0.04845   0.00000  Uiso   1.00
C562   C     0.65807   0.82986   0.41036   0.00000  Uiso   1.00
C563   C     0.34484   0.86112   0.09310   0.00000  Uiso   1.00
C564   C     0.57531   0.84291   0.40823   0.00000  Uiso   1.00
C565   C     0.42606   0.83963   0.09231   0.00000  Uiso   1.00
C566   C     0.56010   0.84848   0.45514   0.00000  Uiso   1.00
C567   C     0.44516   0.85532   0.04854   0.00000  Uiso   1.00
C568   C     0.59430   0.84032   0.47968   0.00000  Uiso   1.00
C569   C     0.53190   0.85018   0.04979   0.00000  Uiso   1.00
C570   C     0.41215   0.87053   0.02576   0.00000  Uiso   1.00
C571   C     0.51138   0.85959   0.47858   0.00000  Uiso   1.00
C572   C     0.49586   0.85439   0.02618   0.00000  Uiso   1.00
C573   C     0.52797   0.90112   0.10047   0.00000  Uiso   1.00
C574   C     0.51090   0.93280   0.41438   0.00000  Uiso   1.00
C575   C     0.55554   0.70053   0.22989   0.00000  Uiso   1.00
C576   C     0.44438   0.96573   0.26996   0.00000  Uiso   1.00
C577   C     0.47799   0.87745   0.45705   0.00000  Uiso   1.00
C578   C     0.57993   0.84175   0.02643   0.00000  Uiso   1.00
C579   C     0.42911   0.88243   0.48081   0.00000  Uiso   1.00
C580   C     0.63400   0.68750   0.23070   0.00000  Uiso   1.00
C581   C     0.36599   0.97914   0.26932   0.00000  Uiso   1.00
C582   C     0.63521   0.97794   0.23097   0.00000  Uiso   1.00
Cu583  Cu    0.38022   0.83334   0.25000   0.00000  Uiso   1.00
Cu584  Cu    0.61978   0.83333   0.25000   0.00000  Uiso   1.00
H585   H     0.60616   0.83686   0.04533   0.00000  Uiso   1.00
H586   H     0.36265   0.82360   0.39364   0.00000  Uiso   1.00
H587   H     0.56525   0.91187   0.08190   0.00000  Uiso   1.00
H588   H     0.52322   0.90788   0.13652   0.00000  Uiso   1.00
H589   H     0.49994   0.91884   0.08952   0.00000  Uiso   1.00
H590   H     0.54353   0.93310   0.42745   0.00000  Uiso   1.00
H591   H     0.48247   0.95379   0.43459   0.00000  Uiso   1.00
H592   H     0.52236   0.94492   0.37942   0.00000  Uiso   1.00
H593   H     0.53336   0.72298   0.21707   0.00000  Uiso   1.00
H594   H     0.54676   0.70480   0.26706   0.00000  Uiso   1.00
H595   H     0.54461   0.66922   0.22179   0.00000  Uiso   1.00
H596   H     0.40426   0.89552   0.46362   0.00000  Uiso   1.00
H597   H     0.45299   0.96082   0.23290   0.00000  Uiso   1.00
H598   H     0.46647   0.94349   0.28317   0.00000  Uiso   1.00
H599   H     0.45557   0.99717   0.27737   0.00000  Uiso   1.00
H600   H     0.61213   0.96076   0.21482   0.00000  Uiso   1.00
H601   H     0.38791   0.70587   0.28516   0.00000  Uiso   1.00
H602   H     0.44190   0.78488   0.29778   0.00000  Uiso   1.00
H603   H     0.55803   0.88191   0.20237   0.00000  Uiso   1.00
H604   H     0.44904   0.82329   0.10895   0.00000  Uiso   1.00
H605   H     0.54936   0.84308   0.38873   0.00000  Uiso   1.00
H606   H     0.33614   0.82601   0.47573   0.00000  Uiso   1.00
H607   H     0.33741   0.88756   0.03177   0.00000  Uiso   1.00
H608   H     0.52888   0.78490   0.29785   0.00000  Uiso   1.00
H609   H     0.47067   0.88210   0.20288   0.00000  Uiso   1.00
H610   H     0.64001   0.86546   0.11049   0.00000  Uiso   1.00
N611   N     0.45069   0.83334   0.24999   0.00000  Uiso   1.00
N612   N     0.54931   0.83332   0.25001   0.00000  Uiso   1.00
O613   O     0.37291   0.77322   0.25000   0.00000  Uiso   1.00
O614   O     0.49244   0.89253   0.41351   0.00000  Uiso   1.00
O615   O     0.60523   0.70821   0.20831   0.00000  Uiso   1.00
O616   O     0.39467   0.95845   0.29181   0.00000  Uiso   1.00
O617   O     0.62709   0.89345   0.25000   0.00000  Uiso   1.00
O618   O     0.62706   0.77321   0.25000   0.00000  Uiso   1.00
O619   O     0.37294   0.89346   0.25000   0.00000  Uiso   1.00
O620   O     0.35186   0.83334   0.31492   0.00000  Uiso   1.00
O621   O     0.64814   0.83332   0.18508   0.00000  Uiso   1.00
O622   O     0.60600   0.83333   0.31492   0.00000  Uiso   1.00
O623   O     0.39400   0.83333   0.18508   0.00000  Uiso   1.00
O624   O     0.52212   0.85835   0.09530   0.00000  Uiso   1.00
C625   C     0.99997   0.75406   0.24951   0.00000  Uiso   1.00
C626   C     0.69814   0.68870   0.26902   0.00000  Uiso   1.00
C627   C     0.66698   0.95722   0.25068   0.00000  Uiso   1.00
C628   C     0.99969   0.70943   0.24933   0.00000  Uiso   1.00
C629   C     0.85002   0.80644   0.27657   0.00000  Uiso   1.00
C630   C     0.81654   0.86036   0.22366   0.00000  Uiso   1.00
C631   C     0.80042   0.80643   0.27653   0.00000  Uiso   1.00
C632   C     0.86620   0.86030   0.22355   0.00000  Uiso   1.00
C633   C     0.97254   0.83329   0.33624   0.00000  Uiso   1.00
C634   C     0.69419   0.83495   0.16382   0.00000  Uiso   1.00
C635   C     0.95749   0.83510   0.38565   0.00000  Uiso   1.00
C636   C     0.66669   0.91260   0.25050   0.00000  Uiso   1.00
C637   C     0.70999   0.84367   0.11523   0.00000  Uiso   1.00
C638   C     0.97632   0.83150   0.45715   0.00000  Uiso   1.00
C639   C     0.69580   0.87413   0.04845   0.00000  Uiso   1.00
C640   C     0.99140   0.82986   0.41036   0.00000  Uiso   1.00
C641   C     0.67817   0.86112   0.09310   0.00000  Uiso   1.00
C642   C     0.90865   0.84291   0.40823   0.00000  Uiso   1.00
C643   C     0.75939   0.83963   0.09231   0.00000  Uiso   1.00
C644   C     0.89343   0.84848   0.45514   0.00000  Uiso   1.00
C645   C     0.77849   0.85532   0.04854   0.00000  Uiso   1.00
C646   C     0.92764   0.84032   0.47968   0.00000  Uiso   1.00
C647   C     0.86523   0.85018   0.04979   0.00000  Uiso   1.00
C648   C     0.74548   0.87053   0.02576   0.00000  Uiso   1.00
C649   C     0.84471   0.85959   0.47858   0.00000  Uiso   1.00
C650   C     0.82920   0.85439   0.02618   0.00000  Uiso   1.00
C651   C     0.86130   0.90112   0.10047   0.00000  Uiso   1.00
C652   C     0.84424   0.93280   0.41438   0.00000  Uiso   1.00
C653   C     0.88887   0.70053   0.22989   0.00000  Uiso   1.00
C654   C     0.77772   0.96573   0.26996   0.00000  Uiso   1.00
C655   C     0.81132   0.87745   0.45705   0.00000  Uiso   1.00
C656   C     0.91326   0.84175   0.02643   0.00000  Uiso   1.00
C657   C     0.76245   0.88243   0.48081   0.00000  Uiso   1.00
C658   C     0.96733   0.68750   0.23070   0.00000  Uiso   1.00
C659   C     0.69932   0.97914   0.26932   0.00000  Uiso   1.00
C660   C     0.96854   0.97794   0.23097   0.00000  Uiso   1.00
Cu661  Cu    0.71355   0.83334   0.25000   0.00000  Uiso   1.00
Cu662  Cu    0.95311   0.83333   0.25000   0.00000  Uiso   1.00
H663   H     0.93949   0.83686   0.04533   0.00000  Uiso   1.00
H664   H     0.69599   0.82360   0.39364   0.00000  Uiso   1.00
H665   H     0.89858   0.91187   0.08190   0.00000  Uiso   1.00
H666   H     0.85655   0.90788   0.13652   0.00000  Uiso   1.00
H667   H     0.83327   0.91884   0.08952   0.00000  Uiso   1.00
H668   H     0.87687   0.93310   0.42745   0.00000  Uiso   1.00
H669   H     0.81580   0.95379   0.43459   0.00000  Uiso   1.00
H670   H     0.85570   0.94492   0.37942   0.00000  Uiso   1.00
H671   H     0.86669   0.72298   0.21707   0.00000  Uiso   1.00
H672   H     0.88009   0.70480   0.26706   0.00000  Uiso   1.00
H673   H     0.87795   0.66922   0.22179   0.00000  Uiso   1.00
H674   H     0.73760   0.89552   0.46362   0.00000  Uiso   1.00
H675   H     0.78633   0.96082   0.23290   0.00000  Uiso   1.00
H676   H     0.79980   0.94349   0.28317   0.00000  Uiso   1.00
H677   H     0.78890   0.99717   0.27737   0.00000  Uiso   1.00
H678   H     0.94546   0.96076   0.21482   0.00000  Uiso   1.00
H679   H     0.72125   0.70587   0.28516   0.00000  Uiso   1.00
H680   H     0.77523   0.78488   0.29778   0.00000  Uiso   1.00
H681   H     0.89136   0.88191   0.20237   0.00000  Uiso   1.00
H682   H     0.78238   0.82329   0.10895   0.00000  Uiso   1.00
H683   H     0.88269   0.84308   0.38873   0.00000  Uiso   1.00
H684   H     0.66947   0.82601   0.47573   0.00000  Uiso   1.00
H685   H     0.67075   0.88756   0.03177   0.00000  Uiso   1.00
H686   H     0.86222   0.78490   0.29785   0.00000  Uiso   1.00
H687   H     0.80401   0.88210   0.20288   0.00000  Uiso   1.00
H688   H     0.97335   0.86546   0.11049   0.00000  Uiso   1.00
N689   N     0.78403   0.83334   0.24999   0.00000  Uiso   1.00
N690   N     0.88264   0.83332   0.25001   0.00000  Uiso   1.00
O691   O     0.70625   0.77322   0.25000   0.00000  Uiso   1.00
O692   O     0.82577   0.89253   0.41351   0.00000  Uiso   1.00
O693   O     0.93857   0.70821   0.20831   0.00000  Uiso   1.00
O694   O     0.72801   0.95845   0.29181   0.00000  Uiso   1.00
O695   O     0.96042   0.89345   0.25000   0.00000  Uiso   1.00
O696   O     0.96039   0.77321   0.25000   0.00000  Uiso   1.00
O697   O     0.70628   0.89346   0.25000   0.00000  Uiso   1.00
O698   O     0.68519   0.83334   0.31492   0.00000  Uiso   1.00
O699   O     0.98148   0.83332   0.18508   0.00000  Uiso   1.00
O700   O     0.93933   0.83333   0.31492   0.00000  Uiso   1.00
O701   O     0.72733   0.83333   0.18508   0.00000  Uiso   1.00
O702   O     0.85546   0.85835   0.09530   0.00000  Uiso   1.00
C703   C     0.33331   0.08739   0.74951   0.00000  Uiso   1.00
C704   C     0.03147   0.02203   0.76902   0.00000  Uiso   1.00
C705   C     0.00032   0.29055   0.75068   0.00000  Uiso   1.00
C706   C     0.33302   0.04276   0.74933   0.00000  Uiso   1.00
C707   C     0.18336   0.13978   0.77657   0.00000  Uiso   1.00
C708   C     0.14987   0.19370   0.72366   0.00000  Uiso   1.00
C709   C     0.13376   0.13976   0.77653   0.00000  Uiso   1.00
C710   C     0.19953   0.19363   0.72355   0.00000  Uiso   1.00
C711   C     0.30587   0.16663   0.83624   0.00000  Uiso   1.00
C712   C     0.02752   0.16828   0.66382   0.00000  Uiso   1.00
C713   C     0.29082   0.16843   0.88565   0.00000  Uiso   1.00
C714   C     0.00003   0.24594   0.75050   0.00000  Uiso   1.00
C715   C     0.04332   0.17700   0.61523   0.00000  Uiso   1.00
C716   C     0.30965   0.16484   0.95715   0.00000  Uiso   1.00
C717   C     0.02913   0.20746   0.54845   0.00000  Uiso   1.00
C718   C     0.32474   0.16319   0.91036   0.00000  Uiso   1.00
C719   C     0.01151   0.19445   0.59310   0.00000  Uiso   1.00
C720   C     0.24198   0.17624   0.90823   0.00000  Uiso   1.00
C721   C     0.09273   0.17296   0.59231   0.00000  Uiso   1.00
C722   C     0.22677   0.18181   0.95514   0.00000  Uiso   1.00
C723   C     0.11182   0.18866   0.54854   0.00000  Uiso   1.00
C724   C     0.26097   0.17366   0.97968   0.00000  Uiso   1.00
C725   C     0.19857   0.18351   0.54979   0.00000  Uiso   1.00
C726   C     0.07881   0.20387   0.52576   0.00000  Uiso   1.00
C727   C     0.17805   0.19292   0.97858   0.00000  Uiso   1.00
C728   C     0.16253   0.18772   0.52618   0.00000  Uiso   1.00
C729   C     0.19463   0.23445   0.60047   0.00000  Uiso   1.00
C730   C     0.17757   0.26614   0.91438   0.00000  Uiso   1.00
C731   C     0.22221   0.03387   0.72989   0.00000  Uiso   1.00
C732   C     0.11105   0.29906   0.76996   0.00000  Uiso   1.00
C733   C     0.14466   0.21079   0.95705   0.00000  Uiso   1.00
C734   C     0.24660   0.17509   0.52643   0.00000  Uiso   1.00
C735   C     0.09578   0.21577   0.98081   0.00000  Uiso   1.00
C736   C     0.30066   0.02083   0.73070   0.00000  Uiso   1.00
C737   C     0.03265   0.31248   0.76932   0.00000  Uiso   1.00
C738   C     0.30188   0.31128   0.73097   0.00000  Uiso   1.00
Cu739  Cu    0.04689   0.16667   0.75000   0.00000  Uiso   1.00
Cu740  Cu    0.28645   0.16666   0.75000   0.00000  Uiso   1.00
H741   H     0.27283   0.17019   0.54533   0.00000  Uiso   1.00
H742   H     0.02932   0.15693   0.89364   0.00000  Uiso   1.00
H743   H     0.23191   0.24520   0.58190   0.00000  Uiso   1.00
H744   H     0.18988   0.24121   0.63652   0.00000  Uiso   1.00
H745   H     0.16661   0.25217   0.58952   0.00000  Uiso   1.00
H746   H     0.21020   0.26643   0.92745   0.00000  Uiso   1.00
H747   H     0.14913   0.28712   0.93459   0.00000  Uiso   1.00
H748   H     0.18903   0.27825   0.87942   0.00000  Uiso   1.00
H749   H     0.20003   0.05631   0.71707   0.00000  Uiso   1.00
H750   H     0.21342   0.03813   0.76706   0.00000  Uiso   1.00
H751   H     0.21128   0.00256   0.72179   0.00000  Uiso   1.00
H752   H     0.07093   0.22886   0.96362   0.00000  Uiso   1.00
H753   H     0.11966   0.29416   0.73290   0.00000  Uiso   1.00
H754   H     0.13314   0.27683   0.78317   0.00000  Uiso   1.00
H755   H     0.12223   0.33050   0.77737   0.00000  Uiso   1.00
H756   H     0.27879   0.29409   0.71482   0.00000  Uiso   1.00
H757   H     0.05458   0.03920   0.78516   0.00000  Uiso   1.00
H758   H     0.10856   0.11821   0.79778   0.00000  Uiso   1.00
H759   H     0.22470   0.21524   0.70237   0.00000  Uiso   1.00
H760   H     0.11571   0.15663   0.60895   0.00000  Uiso   1.00
H761   H     0.21602   0.17641   0.88873   0.00000  Uiso   1.00
H762   H     0.00281   0.15934   0.97573   0.00000  Uiso   1.00
H763   H     0.00408   0.22089   0.53177   0.00000  Uiso   1.00
H764   H     0.19555   0.11824   0.79785   0.00000  Uiso   1.00
H765   H     0.13734   0.21544   0.70288   0.00000  Uiso   1.00
H766   H     0.30668   0.19879   0.61049   0.00000  Uiso   1.00
N767   N     0.11736   0.16668   0.74999   0.00000  Uiso   1.00
N768   N     0.21597   0.16666   0.75001   0.00000  Uiso   1.00
O769   O     0.03958   0.10655   0.75000   0.00000  Uiso   1.00
O770   O     0.15911   0.22586   0.91351   0.00000  Uiso   1.00
O771   O     0.27190   0.04154   0.70831   0.00000  Uiso   1.00
O772   O     0.06134   0.29179   0.79181   0.00000  Uiso   1.00
O773   O     0.29375   0.22678   0.75000   0.00000  Uiso   1.00
O774   O     0.29372   0.10654   0.75000   0.00000  Uiso   1.00
O775   O     0.03961   0.22679   0.75000   0.00000  Uiso   1.00
O776   O     0.01852   0.16668   0.81492   0.00000  Uiso   1.00
O777   O     0.31481   0.16666   0.68508   0.00000  Uiso   1.00
O778   O     0.27267   0.16667   0.81492   0.00000  Uiso   1.00
O779   O     0.06067   0.16667   0.68508   0.00000  Uiso   1.00
O780   O     0.18879   0.19168   0.59530   0.00000  Uiso   1.00
C781   C     0.66664   0.08739   0.74951   0.00000  Uiso   1.00
C782   C     0.36480   0.02203   0.76902   0.00000  Uiso   1.00
C783   C     0.33365   0.29055   0.75068   0.00000  Uiso   1.00
C784   C     0.66635   0.04276   0.74933   0.00000  Uiso   1.00
C785   C     0.51669   0.13978   0.77657   0.00000  Uiso   1.00
C786   C     0.48320   0.19370   0.72366   0.00000  Uiso   1.00
C787   C     0.46709   0.13976   0.77653   0.00000  Uiso   1.00
C788   C     0.53286   0.19363   0.72355   0.00000  Uiso   1.00
C789   C     0.63921   0.16663   0.83624   0.00000  Uiso   1.00
C790   C     0.36085   0.16828   0.66382   0.00000  Uiso   1.00
C791   C     0.62415   0.16843   0.88565   0.00000  Uiso   1.00
C792   C     0.33336   0.24594   0.75050   0.00000  Uiso   1.00
C793   C     0.37666   0.17700   0.61523   0.00000  Uiso   1.00
C794   C     0.64299   0.16484   0.95715   0.00000  Uiso   1.00
C795   C     0.36246   0.20746   0.54845   0.00000  Uiso   1.00
C796   C     0.65807   0.16319   0.91036   0.00000  Uiso   1.00
C797   C     0.34484   0.19445   0.59310   0.00000  Uiso   1.00
C798   C     0.57531   0.17624   0.90823   0.00000  Uiso   1.00
C799   C     0.42606   0.17296   0.59231   0.00000  Uiso   1.00
C800   C     0.56010   0.18181   0.95514   0.00000  Uiso   1.00
C801   C     0.44516   0.18866   0.54854   0.00000  Uiso   1.00
C802   C     0.59430   0.17366   0.97968   0.00000  Uiso   1.00
C803   C     0.53190   0.18351   0.54979   0.00000  Uiso   1.00
C804   C     0.41215   0.20387   0.52576   0.00000  Uiso   1.00
C805   C     0.51138   0.19292   0.97858   0.00000  Uiso   1.00
C806   C     0.49586   0.18772   0.52618   0.00000  Uiso   1.00
C807   C     0.52797   0.23445   0.60047   0.00000  Uiso   1.00
C808   C     0.51090   0.26614   0.91438   0.00000  Uiso   1.00
C809   C     0.55554   0.03387   0.72989   0.00000  Uiso   1.00
C810   C     0.44438   0.29906   0.76996   0.00000  Uiso   1.00
C811   C     0.47799   0.21079   0.95705   0.00000  Uiso   1.00
C812   C     0.57993   0.17509   0.52643   0.00000  Uiso   1.00
C813   C     0.42911   0.21577   0.98081   0.00000  Uiso   1.00
C814   C     0.63400   0.02083   0.73070   0.00000  Uiso   1.00
C815   C     0.36599   0.31248   0.76932   0.00000  Uiso   1.00
C816   C     0.63521   0.31128   0.73097   0.00000  Uiso   1.00
Cu817  Cu    0.38022   0.16667   0.75000   0.00000  Uiso   1.00
Cu818  Cu    0.61978   0.16666   0.75000   0.00000  Uiso   1.00
H819   H     0.60616   0.17019   0.54533   0.00000  Uiso   1.00
H820   H     0.36265   0.15693   0.89364   0.00000  Uiso   1.00
H821   H     0.56525   0.24520   0.58190   0.00000  Uiso   1.00
H822   H     0.52322   0.24121   0.63652   0.00000  Uiso   1.00
H823   H     0.49994   0.25217   0.58952   0.00000  Uiso   1.00
H824   H     0.54353   0.26643   0.92745   0.00000  Uiso   1.00
H825   H     0.48247   0.28712   0.93459   0.00000  Uiso   1.00
H826   H     0.52236   0.27825   0.87942   0.00000  Uiso   1.00
H827   H     0.53336   0.05631   0.71707   0.00000  Uiso   1.00
H828   H     0.54676   0.03813   0.76706   0.00000  Uiso   1.00
H829   H     0.54461   0.00256   0.72179   0.00000  Uiso   1.00
H830   H     0.40426   0.22886   0.96362   0.00000  Uiso   1.00
H831   H     0.45299   0.29416   0.73290   0.00000  Uiso   1.00
H832   H     0.46647   0.27683   0.78317   0.00000  Uiso   1.00
H833   H     0.45557   0.33050   0.77737   0.00000  Uiso   1.00
H834   H     0.61213   0.29409   0.71482   0.00000  Uiso   1.00
H835   H     0.38791   0.03920   0.78516   0.00000  Uiso   1.00
H836   H     0.44190   0.11821   0.79778   0.00000  Uiso   1.00
H837   H     0.55803   0.21524   0.70237   0.00000  Uiso   1.00
H838   H     0.44904   0.15663   0.60895   0.00000  Uiso   1.00
H839   H     0.54936   0.17641   0.88873   0.00000  Uiso   1.00
H840   H     0.33614   0.15934   0.97573   0.00000  Uiso   1.00
H841   H     0.33741   0.22089   0.53177   0.00000  Uiso   1.00
H842   H     0.52888   0.11824   0.79785   0.00000  Uiso   1.00
H843   H     0.47067   0.21544   0.70288   0.00000  Uiso   1.00
H844   H     0.64001   0.19879   0.61049   0.00000  Uiso   1.00
N845   N     0.45069   0.16668   0.74999   0.00000  Uiso   1.00
N846   N     0.54931   0.16666   0.75001   0.00000  Uiso   1.00
O847   O     0.37291   0.10655   0.75000   0.00000  Uiso   1.00
O848   O     0.49244   0.22586   0.91351   0.00000  Uiso   1.00
O849   O     0.60523   0.04154   0.70831   0.00000  Uiso   1.00
O850   O     0.39467   0.29179   0.79181   0.00000  Uiso   1.00
O851   O     0.62709   0.22678   0.75000   0.00000  Uiso   1.00
O852   O     0.62706   0.10654   0.75000   0.00000  Uiso   1.00
O853   O     0.37294   0.22679   0.75000   0.00000  Uiso   1.00
O854   O     0.35186   0.16668   0.81492   0.00000  Uiso   1.00
O855   O     0.64814   0.16666   0.68508   0.00000  Uiso   1.00
O856   O     0.60600   0.16667   0.81492   0.00000  Uiso   1.00
O857   O     0.39400   0.16667   0.68508   0.00000  Uiso   1.00
O858   O     0.52212   0.19168   0.59530   0.00000  Uiso   1.00
C859   C     0.99997   0.08739   0.74951   0.00000  Uiso   1.00
C860   C     0.69814   0.02203   0.76902   0.00000  Uiso   1.00
C861   C     0.66698   0.29055   0.75068   0.00000  Uiso   1.00
C862   C     0.99969   0.04276   0.74933   0.00000  Uiso   1.00
C863   C     0.85002   0.13978   0.77657   0.00000  Uiso   1.00
C864   C     0.81654   0.19370   0.72366   0.00000  Uiso   1.00
C865   C     0.80042   0.13976   0.77653   0.00000  Uiso   1.00
C866   C     0.86620   0.19363   0.72355   0.00000  Uiso   1.00
C867   C     0.97254   0.16663   0.83624   0.00000  Uiso   1.00
C868   C     0.69419   0.16828   0.66382   0.00000  Uiso   1.00
C869   C     0.95749   0.16843   0.88565   0.00000  Uiso   1.00
C870   C     0.66669   0.24594   0.75050   0.00000  Uiso   1.00
C871   C     0.70999   0.17700   0.61523   0.00000  Uiso   1.00
C872   C     0.97632   0.16484   0.95715   0.00000  Uiso   1.00
C873   C     0.69580   0.20746   0.54845   0.00000  Uiso   1.00
C874   C     0.99140   0.16319   0.91036   0.00000  Uiso   1.00
C875   C     0.67817   0.19445   0.59310   0.00000  Uiso   1.00
C876   C     0.90865   0.17624   0.90823   0.00000  Uiso   1.00
C877   C     0.75939   0.17296   0.59231   0.00000  Uiso   1.00
C878   C     0.89343   0.18181   0.95514   0.00000  Uiso   1.00
C879   C     0.77849   0.18866   0.54854   0.00000  Uiso   1.00
C880   C     0.92764   0.17366   0.97968   0.00000  Uiso   1.00
C881   C     0.86523   0.18351   0.54979   0.00000  Uiso   1.00
C882   C     0.74548   0.20387   0.52576   0.00000  Uiso   1.00
C883   C     0.84471   0.19292   0.97858   0.00000  Uiso   1.00
C884   C     0.82920   0.18772   0.52618   0.00000  Uiso   1.00
C885   C     0.86130   0.23445   0.60047   0.00000  Uiso   1.00
C886   C     0.84424   0.26614   0.91438   0.00000  Uiso   1.00
C887   C     0.88887   0.03387   0.72989   0.00000  Uiso   1.00
C888   C     0.77772   0.29906   0.76996   0.00000  Uiso   1.00
C889   C     0.81132   0.21079   0.95705   0.00000  Uiso   1.00
C890   C     0.91326   0.17509   0.52643   0.00000  Uiso   1.00
C891   C     0.76245   0.21577   0.98081   0.00000  Uiso   1.00
C892   C     0.96733   0.02083   0.73070   0.00000  Uiso   1.00
C893   C     0.69932   0.31248   0.76932   0.00000  Uiso   1.00
C894   C     0.96854   0.31128   0.73097   0.00000  Uiso   1.00
Cu895  Cu    0.71355   0.16667   0.75000   0.00000  Uiso   1.00
Cu896  Cu    0.95311   0.16666   0.75000   0.00000  Uiso   1.00
H897   H     0.93949   0.17019   0.54533   0.00000  Uiso   1.00
H898   H     0.69599   0.15693   0.89364   0.00000  Uiso   1.00
H899   H     0.89858   0.24520   0.58190   0.00000  Uiso   1.00
H900   H     0.85655   0.24121   0.63652   0.00000  Uiso   1.00
H901   H     0.83327   0.25217   0.58952   0.00000  Uiso   1.00
H902   H     0.87687   0.26643   0.92745   0.00000  Uiso   1.00
H903   H     0.81580   0.28712   0.93459   0.00000  Uiso   1.00
H904   H     0.85570   0.27825   0.87942   0.00000  Uiso   1.00
H905   H     0.86669   0.05631   0.71707   0.00000  Uiso   1.00
H906   H     0.88009   0.03813   0.76706   0.00000  Uiso   1.00
H907   H     0.87795   0.00256   0.72179   0.00000  Uiso   1.00
H908   H     0.73760   0.22886   0.96362   0.00000  Uiso   1.00
H909   H     0.78633   0.29416   0.73290   0.00000  Uiso   1.00
H910   H     0.79980   0.27683   0.78317   0.00000  Uiso   1.00
H911   H     0.78890   0.33050   0.77737   0.00000  Uiso   1.00
H912   H     0.94546   0.29409   0.71482   0.00000  Uiso   1.00
H913   H     0.72125   0.03920   0.78516   0.00000  Uiso   1.00
H914   H     0.77523   0.11821   0.79778   0.00000  Uiso   1.00
H915   H     0.89136   0.21524   0.70237   0.00000  Uiso   1.00
H916   H     0.78238   0.15663   0.60895   0.00000  Uiso   1.00
H917   H     0.88269   0.17641   0.88873   0.00000  Uiso   1.00
H918   H     0.66947   0.15934   0.97573   0.00000  Uiso   1.00
H919   H     0.67075   0.22089   0.53177   0.00000  Uiso   1.00
H920   H     0.86222   0.11824   0.79785   0.00000  Uiso   1.00
H921   H     0.80401   0.21544   0.70288   0.00000  Uiso   1.00
H922   H     0.97335   0.19879   0.61049   0.00000  Uiso   1.00
N923   N     0.78403   0.16668   0.74999   0.00000  Uiso   1.00
N924   N     0.88264   0.16666   0.75001   0.00000  Uiso   1.00
O925   O     0.70625   0.10655   0.75000   0.00000  Uiso   1.00
O926   O     0.82577   0.22586   0.91351   0.00000  Uiso   1.00
O927   O     0.93857   0.04154   0.70831   0.00000  Uiso   1.00
O928   O     0.72801   0.29179   0.79181   0.00000  Uiso   1.00
O929   O     0.96042   0.22678   0.75000   0.00000  Uiso   1.00
O930   O     0.96039   0.10654   0.75000   0.00000  Uiso   1.00
O931   O     0.70628   0.22679   0.75000   0.00000  Uiso   1.00
O932   O     0.68519   0.16668   0.81492   0.00000  Uiso   1.00
O933   O     0.98148   0.16666   0.68508   0.00000  Uiso   1.00
O934   O     0.93933   0.16667   0.81492   0.00000  Uiso   1.00
O935   O     0.72733   0.16667   0.68508   0.00000  Uiso   1.00
O936   O     0.85546   0.19168   0.59530   0.00000  Uiso   1.00
C937   C     0.33331   0.42072   0.74951   0.00000  Uiso   1.00
C938   C     0.03147   0.35536   0.76902   0.00000  Uiso   1.00
C939   C     0.00032   0.62388   0.75068   0.00000  Uiso   1.00
C940   C     0.33302   0.37609   0.74933   0.00000  Uiso   1.00
C941   C     0.18336   0.47311   0.77657   0.00000  Uiso   1.00
C942   C     0.14987   0.52703   0.72366   0.00000  Uiso   1.00
C943   C     0.13376   0.47310   0.77653   0.00000  Uiso   1.00
C944   C     0.19953   0.52696   0.72355   0.00000  Uiso   1.00
C945   C     0.30587   0.49996   0.83624   0.00000  Uiso   1.00
C946   C     0.02752   0.50161   0.66382   0.00000  Uiso   1.00
C947   C     0.29082   0.50176   0.88565   0.00000  Uiso   1.00
C948   C     0.00003   0.57927   0.75050   0.00000  Uiso   1.00
C949   C     0.04332   0.51033   0.61523   0.00000  Uiso   1.00
C950   C     0.30965   0.49817   0.95715   0.00000  Uiso   1.00
C951   C     0.02913   0.54079   0.54845   0.00000  Uiso   1.00
C952   C     0.32474   0.49652   0.91036   0.00000  Uiso   1.00
C953   C     0.01151   0.52779   0.59310   0.00000  Uiso   1.00
C954   C     0.24198   0.50957   0.90823   0.00000  Uiso   1.00
C955   C     0.09273   0.50629   0.59231   0.00000  Uiso   1.00
C956   C     0.22677   0.51514   0.95514   0.00000  Uiso   1.00
C957   C     0.11182   0.52199   0.54854   0.00000  Uiso   1.00
C958   C     0.26097   0.50699   0.97968   0.00000  Uiso   1.00
C959   C     0.19857   0.51685   0.54979   0.00000  Uiso   1.00
C960   C     0.07881   0.53720   0.52576   0.00000  Uiso   1.00
C961   C     0.17805   0.52626   0.97858   0.00000  Uiso   1.00
C962   C     0.16253   0.52106   0.52618   0.00000  Uiso   1.00
C963   C     0.19463   0.56778   0.60047   0.00000  Uiso   1.00
C964   C     0.17757   0.59947   0.91438   0.00000  Uiso   1.00
C965   C     0.22221   0.36720   0.72989   0.00000  Uiso   1.00
C966   C     0.11105   0.63239   0.76996   0.00000  Uiso   1.00
C967   C     0.14466   0.54412   0.95705   0.00000  Uiso   1.00
C968   C     0.24660   0.50842   0.52643   0.00000  Uiso   1.00
C969   C     0.09578   0.54910   0.98081   0.00000  Uiso   1.00
C970   C     0.30066   0.35416   0.73070   0.00000  Uiso   1.00
C971   C     0.03265   0.64581   0.76932   0.00000  Uiso   1.00
C972   C     0.30188   0.64461   0.73097   0.00000  Uiso   1.00
Cu973  Cu    0.04689   0.50001   0.75000   0.00000  Uiso   1.00
Cu974  Cu    0.28645   0.49999   0.75000   0.00000  Uiso   1.00
H975   H     0.27283   0.50352   0.54533   0.00000  Uiso   1.00
H976   H     0.02932   0.49027   0.89364   0.00000  Uiso   1.00
H977   H     0.23191   0.57854   0.58190   0.00000  Uiso   1.00
H978   H     0.18988   0.57455   0.63652   0.00000  Uiso   1.00
H979   H     0.16661   0.58551   0.58952   0.00000  Uiso   1.00
H980   H     0.21020   0.59976   0.92745   0.00000  Uiso   1.00
H981   H     0.14913   0.62046   0.93459   0.00000  Uiso   1.00
H982   H     0.18903   0.61159   0.87942   0.00000  Uiso   1.00
H983   H     0.20003   0.38964   0.71707   0.00000  Uiso   1.00
H984   H     0.21342   0.37147   0.76706   0.00000  Uiso   1.00
H985   H     0.21128   0.33589   0.72179   0.00000  Uiso   1.00
H986   H     0.07093   0.56219   0.96362   0.00000  Uiso   1.00
H987   H     0.11966   0.62749   0.73290   0.00000  Uiso   1.00
H988   H     0.13314   0.61016   0.78317   0.00000  Uiso   1.00
H989   H     0.12223   0.66383   0.77737   0.00000  Uiso   1.00
H990   H     0.27879   0.62742   0.71482   0.00000  Uiso   1.00
H991   H     0.05458   0.37254   0.78516   0.00000  Uiso   1.00
H992   H     0.10856   0.45155   0.79778   0.00000  Uiso   1.00
H993   H     0.22470   0.54858   0.70237   0.00000  Uiso   1.00
H994   H     0.11571   0.48996   0.60895   0.00000  Uiso   1.00
H995   H     0.21602   0.50974   0.88873   0.00000  Uiso   1.00
H996   H     0.00281   0.49268   0.97573   0.00000  Uiso   1.00
H997   H     0.00408   0.55422   0.53177   0.00000  Uiso   1.00
H998   H     0.19555   0.45157   0.79785   0.00000  Uiso   1.00
H999   H     0.13734   0.54877   0.70288   0.00000  Uiso   1.00
H1000  H     0.30668   0.53212   0.61049   0.00000  Uiso   1.00
N1001  N     0.11736   0.50001   0.74999   0.00000  Uiso   1.00
N1002  N     0.21597   0.49999   0.75001   0.00000  Uiso   1.00
O1003  O     0.03958   0.43989   0.75000   0.00000  Uiso   1.00
O1004  O     0.15911   0.55919   0.91351   0.00000  Uiso   1.00
O1005  O     0.27190   0.37488   0.70831   0.00000  Uiso   1.00
O1006  O     0.06134   0.62512   0.79181   0.00000  Uiso   1.00
O1007  O     0.29375   0.56011   0.75000   0.00000  Uiso   1.00
O1008  O     0.29372   0.43988   0.75000   0.00000  Uiso   1.00
O1009  O     0.03961   0.56012   0.75000   0.00000  Uiso   1.00
O1010  O     0.01852   0.50001   0.81492   0.00000  Uiso   1.00
O1011  O     0.31481   0.49999   0.68508   0.00000  Uiso   1.00
O1012  O     0.27267   0.50000   0.81492   0.00000  Uiso   1.00
O1013  O     0.06067   0.50000   0.68508   0.00000  Uiso   1.00
O1014  O     0.18879   0.52501   0.59530   0.00000  Uiso   1.00
C1015  C     0.66664   0.42072   0.74951   0.00000  Uiso   1.00
C1016  C     0.36480   0.35536   0.76902   0.00000  Uiso   1.00
C1017  C     0.33365   0.62388   0.75068   0.00000  Uiso   1.00
C1018  C     0.66635   0.37609   0.74933   0.00000  Uiso   1.00
C1019  C     0.51669   0.47311   0.77657   0.00000  Uiso   1.00
C1020  C     0.48320   0.52703   0.72366   0.00000  Uiso   1.00
C1021  C     0.46709   0.47310   0.77653   0.00000  Uiso   1.00
C1022  C     0.53286   0.52696   0.72355   0.00000  Uiso   1.00
C1023  C     0.63921   0.49996   0.83624   0.00000  Uiso   1.00
C1024  C     0.36085   0.50161   0.66382   0.00000  Uiso   1.00
C1025  C     0.62415   0.50176   0.88565   0.00000  Uiso   1.00
C1026  C     0.33336   0.57927   0.75050   0.00000  Uiso   1.00
C1027  C     0.37666   0.51033   0.61523   0.00000  Uiso   1.00
C1028  C     0.64299   0.49817   0.95715   0.00000  Uiso   1.00
C1029  C     0.36246   0.54079   0.54845   0.00000  Uiso   1.00
C1030  C     0.65807   0.49652   0.91036   0.00000  Uiso   1.00
C1031  C     0.34484   0.52779   0.59310   0.00000  Uiso   1.00
C1032  C     0.57531   0.50957   0.90823   0.00000  Uiso   1.00
C1033  C     0.42606   0.50629   0.59231   0.00000  Uiso   1.00
C1034  C     0.56010   0.51514   0.95514   0.00000  Uiso   1.00
C1035  C     0.44516   0.52199   0.54854   0.00000  Uiso   1.00
C1036  C     0.59430   0.50699   0.97968   0.00000  Uiso   1.00
C1037  C     0.53190   0.51685   0.54979   0.00000  Uiso   1.00
C1038  C     0.41215   0.53720   0.52576   0.00000  Uiso   1.00
C1039  C     0.51138   0.52626   0.97858   0.00000  Uiso   1.00
C1040  C     0.49586   0.52106   0.52618   0.00000  Uiso   1.00
C1041  C     0.52797   0.56778   0.60047   0.00000  Uiso   1.00
C1042  C     0.51090   0.59947   0.91438   0.00000  Uiso   1.00
C1043  C     0.55554   0.36720   0.72989   0.00000  Uiso   1.00
C1044  C     0.44438   0.63239   0.76996   0.00000  Uiso   1.00
C1045  C     0.47799   0.54412   0.95705   0.00000  Uiso   1.00
C1046  C     0.57993   0.50842   0.52643   0.00000  Uiso   1.00
C1047  C     0.42911   0.54910   0.98081   0.00000  Uiso   1.00
C1048  C     0.63400   0.35416   0.73070   0.00000  Uiso   1.00
C1049  C     0.36599   0.64581   0.76932   0.00000  Uiso   1.00
C1050  C     0.63521   0.64461   0.73097   0.00000  Uiso   1.00
Cu1051 Cu    0.38022   0.50001   0.75000   0.00000  Uiso   1.00
Cu1052 Cu    0.61978   0.49999   0.75000   0.00000  Uiso   1.00
H1053  H     0.60616   0.50352   0.54533   0.00000  Uiso   1.00
H1054  H     0.36265   0.49027   0.89364   0.00000  Uiso   1.00
H1055  H     0.56525   0.57854   0.58190   0.00000  Uiso   1.00
H1056  H     0.52322   0.57455   0.63652   0.00000  Uiso   1.00
H1057  H     0.49994   0.58551   0.58952   0.00000  Uiso   1.00
H1058  H     0.54353   0.59976   0.92745   0.00000  Uiso   1.00
H1059  H     0.48247   0.62046   0.93459   0.00000  Uiso   1.00
H1060  H     0.52236   0.61159   0.87942   0.00000  Uiso   1.00
H1061  H     0.53336   0.38964   0.71707   0.00000  Uiso   1.00
H1062  H     0.54676   0.37147   0.76706   0.00000  Uiso   1.00
H1063  H     0.54461   0.33589   0.72179   0.00000  Uiso   1.00
H1064  H     0.40426   0.56219   0.96362   0.00000  Uiso   1.00
H1065  H     0.45299   0.62749   0.73290   0.00000  Uiso   1.00
H1066  H     0.46647   0.61016   0.78317   0.00000  Uiso   1.00
H1067  H     0.45557   0.66383   0.77737   0.00000  Uiso   1.00
H1068  H     0.61213   0.62742   0.71482   0.00000  Uiso   1.00
H1069  H     0.38791   0.37254   0.78516   0.00000  Uiso   1.00
H1070  H     0.44190   0.45155   0.79778   0.00000  Uiso   1.00
H1071  H     0.55803   0.54858   0.70237   0.00000  Uiso   1.00
H1072  H     0.44904   0.48996   0.60895   0.00000  Uiso   1.00
H1073  H     0.54936   0.50974   0.88873   0.00000  Uiso   1.00
H1074  H     0.33614   0.49268   0.97573   0.00000  Uiso   1.00
H1075  H     0.33741   0.55422   0.53177   0.00000  Uiso   1.00
H1076  H     0.52888   0.45157   0.79785   0.00000  Uiso   1.00
H1077  H     0.47067   0.54877   0.70288   0.00000  Uiso   1.00
H1078  H     0.64001   0.53212   0.61049   0.00000  Uiso   1.00
N1079  N     0.45069   0.50001   0.74999   0.00000  Uiso   1.00
N1080  N     0.54931   0.49999   0.75001   0.00000  Uiso   1.00
O1081  O     0.37291   0.43989   0.75000   0.00000  Uiso   1.00
O1082  O     0.49244   0.55919   0.91351   0.00000  Uiso   1.00
O1083  O     0.60523   0.37488   0.70831   0.00000  Uiso   1.00
O1084  O     0.39467   0.62512   0.79181   0.00000  Uiso   1.00
O1085  O     0.62709   0.56011   0.75000   0.00000  Uiso   1.00
O1086  O     0.62706   0.43988   0.75000   0.00000  Uiso   1.00
O1087  O     0.37294   0.56012   0.75000   0.00000  Uiso   1.00
O1088  O     0.35186   0.50001   0.81492   0.00000  Uiso   1.00
O1089  O     0.64814   0.49999   0.68508   0.00000  Uiso   1.00
O1090  O     0.60600   0.50000   0.81492   0.00000  Uiso   1.00
O1091  O     0.39400   0.50000   0.68508   0.00000  Uiso   1.00
O1092  O     0.52212   0.52501   0.59530   0.00000  Uiso   1.00
C1093  C     0.99997   0.42072   0.74951   0.00000  Uiso   1.00
C1094  C     0.69814   0.35536   0.76902   0.00000  Uiso   1.00
C1095  C     0.66698   0.62388   0.75068   0.00000  Uiso   1.00
C1096  C     0.99969   0.37609   0.74933   0.00000  Uiso   1.00
C1097  C     0.85002   0.47311   0.77657   0.00000  Uiso   1.00
C1098  C     0.81654   0.52703   0.72366   0.00000  Uiso   1.00
C1099  C     0.80042   0.47310   0.77653   0.00000  Uiso   1.00
C1100  C     0.86620   0.52696   0.72355   0.00000  Uiso   1.00
C1101  C     0.97254   0.49996   0.83624   0.00000  Uiso   1.00
C1102  C     0.69419   0.50161   0.66382   0.00000  Uiso   1.00
C1103  C     0.95749   0.50176   0.88565   0.00000  Uiso   1.00
C1104  C     0.66669   0.57927   0.75050   0.00000  Uiso   1.00
C1105  C     0.70999   0.51033   0.61523   0.00000  Uiso   1.00
C1106  C     0.97632   0.49817   0.95715   0.00000  Uiso   1.00
C1107  C     0.69580   0.54079   0.54845   0.00000  Uiso   1.00
C1108  C     0.99140   0.49652   0.91036   0.00000  Uiso   1.00
C1109  C     0.67817   0.52779   0.59310   0.00000  Uiso   1.00
C1110  C     0.90865   0.50957   0.90823   0.00000  Uiso   1.00
C1111  C     0.75939   0.50629   0.59231   0.00000  Uiso   1.00
C1112  C     0.89343   0.51514   0.95514   0.00000  Uiso   1.00
C1113  C     0.77849   0.52199   0.54854   0.00000  Uiso   1.00
C1114  C     0.92764   0.50699   0.97968   0.00000  Uiso   1.00
C1115  C     0.86523   0.51685   0.54979   0.00000  Uiso   1.00
C1116  C     0.74548   0.53720   0.52576   0.00000  Uiso   1.00
C1117  C     0.84471   0.52626   0.97858   0.00000  Uiso   1.00
C1118  C     0.82920   0.52106   0.52618   0.00000  Uiso   1.00
C1119  C     0.86130   0.56778   0.60047   0.00000  Uiso   1.00
C1120  C     0.84424   0.59947   0.91438   0.00000  Uiso   1.00
C1121  C     0.88887   0.36720   0.72989   0.00000  Uiso   1.00
C1122  C     0.77772   0.63239   0.76996   0.00000  Uiso   1.00
C1123  C     0.81132   0.54412   0.95705   0.00000  Uiso   1.00
C1124  C     0.91326   0.50842   0.52643   0.00000  Uiso   1.00
C1125  C     0.76245   0.54910   0.98081   0.00000  Uiso   1.00
C1126  C     0.96733   0.35416   0.73070   0.00000  Uiso   1.00
C1127  C     0.69932   0.64581   0.76932   0.00000  Uiso   1.00
C1128  C     0.96854   0.64461   0.73097   0.00000  Uiso   1.00
Cu1129 Cu    0.71355   0.50001   0.75000   0.00000  Uiso   1.00
Cu1130 Cu    0.95311   0.49999   0.75000   0.00000  Uiso   1.00
H1131  H     0.93949   0.50352   0.54533   0.00000  Uiso   1.00
H1132  H     0.69599   0.49027   0.89364   0.00000  Uiso   1.00
H1133  H     0.89858   0.57854   0.58190   0.00000  Uiso   1.00
H1134  H     0.85655   0.57455   0.63652   0.00000  Uiso   1.00
H1135  H     0.83327   0.58551   0.58952   0.00000  Uiso   1.00
H1136  H     0.87687   0.59976   0.92745   0.00000  Uiso   1.00
H1137  H     0.81580   0.62046   0.93459   0.00000  Uiso   1.00
H1138  H     0.85570   0.61159   0.87942   0.00000  Uiso   1.00
H1139  H     0.86669   0.38964   0.71707   0.00000  Uiso   1.00
H1140  H     0.88009   0.37147   0.76706   0.00000  Uiso   1.00
H1141  H     0.87795   0.33589   0.72179   0.00000  Uiso   1.00
H1142  H     0.73760   0.56219   0.96362   0.00000  Uiso   1.00
H1143  H     0.78633   0.62749   0.73290   0.00000  Uiso   1.00
H1144  H     0.79980   0.61016   0.78317   0.00000  Uiso   1.00
H1145  H     0.78890   0.66383   0.77737   0.00000  Uiso   1.00
H1146  H     0.94546   0.62742   0.71482   0.00000  Uiso   1.00
H1147  H     0.72125   0.37254   0.78516   0.00000  Uiso   1.00
H1148  H     0.77523   0.45155   0.79778   0.00000  Uiso   1.00
H1149  H     0.89136   0.54858   0.70237   0.00000  Uiso   1.00
H1150  H     0.78238   0.48996   0.60895   0.00000  Uiso   1.00
H1151  H     0.88269   0.50974   0.88873   0.00000  Uiso   1.00
H1152  H     0.66947   0.49268   0.97573   0.00000  Uiso   1.00
H1153  H     0.67075   0.55422   0.53177   0.00000  Uiso   1.00
H1154  H     0.86222   0.45157   0.79785   0.00000  Uiso   1.00
H1155  H     0.80401   0.54877   0.70288   0.00000  Uiso   1.00
H1156  H     0.97335   0.53212   0.61049   0.00000  Uiso   1.00
N1157  N     0.78403   0.50001   0.74999   0.00000  Uiso   1.00
N1158  N     0.88264   0.49999   0.75001   0.00000  Uiso   1.00
O1159  O     0.70625   0.43989   0.75000   0.00000  Uiso   1.00
O1160  O     0.82577   0.55919   0.91351   0.00000  Uiso   1.00
O1161  O     0.93857   0.37488   0.70831   0.00000  Uiso   1.00
O1162  O     0.72801   0.62512   0.79181   0.00000  Uiso   1.00
O1163  O     0.96042   0.56011   0.75000   0.00000  Uiso   1.00
O1164  O     0.96039   0.43988   0.75000   0.00000  Uiso   1.00
O1165  O     0.70628   0.56012   0.75000   0.00000  Uiso   1.00
O1166  O     0.68519   0.50001   0.81492   0.00000  Uiso   1.00
O1167  O     0.98148   0.49999   0.68508   0.00000  Uiso   1.00
O1168  O     0.93933   0.50000   0.81492   0.00000  Uiso   1.00
O1169  O     0.72733   0.50000   0.68508   0.00000  Uiso   1.00
O1170  O     0.85546   0.52501   0.59530   0.00000  Uiso   1.00
C1171  C     0.33331   0.75406   0.74951   0.00000  Uiso   1.00
C1172  C     0.03147   0.68870   0.76902   0.00000  Uiso   1.00
C1173  C     0.00032   0.95722   0.75068   0.00000  Uiso   1.00
C1174  C     0.33302   0.70943   0.74933   0.00000  Uiso   1.00
C1175  C     0.18336   0.80644   0.77657   0.00000  Uiso   1.00
C1176  C     0.14987   0.86036   0.72366   0.00000  Uiso   1.00
C1177  C     0.13376   0.80643   0.77653   0.00000  Uiso   1.00
C1178  C     0.19953   0.86030   0.72355   0.00000  Uiso   1.00
C1179  C     0.30587   0.83329   0.83624   0.00000  Uiso   1.00
C1180  C     0.02752   0.83495   0.66382   0.00000  Uiso   1.00
C1181  C     0.29082   0.83510   0.88565   0.00000  Uiso   1.00
C1182  C     0.00003   0.91260   0.75050   0.00000  Uiso   1.00
C1183  C     0.04332   0.84367   0.61523   0.00000  Uiso   1.00
C1184  C     0.30965   0.83150   0.95715   0.00000  Uiso   1.00
C1185  C     0.02913   0.87413   0.54845   0.00000  Uiso   1.00
C1186  C     0.32474   0.82986   0.91036   0.00000  Uiso   1.00
C1187  C     0.01151   0.86112   0.59310   0.00000  Uiso   1.00
C1188  C     0.24198   0.84291   0.90823   0.00000  Uiso   1.00
C1189  C     0.09273   0.83963   0.59231   0.00000  Uiso   1.00
C1190  C     0.22677   0.84848   0.95514   0.00000  Uiso   1.00
C1191  C     0.11182   0.85532   0.54854   0.00000  Uiso   1.00
C1192  C     0.26097   0.84032   0.97968   0.00000  Uiso   1.00
C1193  C     0.19857   0.85018   0.54979   0.00000  Uiso   1.00
C1194  C     0.07881   0.87053   0.52576   0.00000  Uiso   1.00
C1195  C     0.17805   0.85959   0.97858   0.00000  Uiso   1.00
C1196  C     0.16253   0.85439   0.52618   0.00000  Uiso   1.00
C1197  C     0.19463   0.90112   0.60047   0.00000  Uiso   1.00
C1198  C     0.17757   0.93280   0.91438   0.00000  Uiso   1.00
C1199  C     0.22221   0.70053   0.72989   0.00000  Uiso   1.00
C1200  C     0.11105   0.96573   0.76996   0.00000  Uiso   1.00
C1201  C     0.14466   0.87745   0.95705   0.00000  Uiso   1.00
C1202  C     0.24660   0.84175   0.52643   0.00000  Uiso   1.00
C1203  C     0.09578   0.88243   0.98081   0.00000  Uiso   1.00
C1204  C     0.30066   0.68750   0.73070   0.00000  Uiso   1.00
C1205  C     0.03265   0.97914   0.76932   0.00000  Uiso   1.00
C1206  C     0.30188   0.97794   0.73097   0.00000  Uiso   1.00
Cu1207 Cu    0.04689   0.83334   0.75000   0.00000  Uiso   1.00
Cu1208 Cu    0.28645   0.83333   0.75000   0.00000  Uiso   1.00
H1209  H     0.27283   0.83686   0.54533   0.00000  Uiso   1.00
H1210  H     0.02932   0.82360   0.89364   0.00000  Uiso   1.00
H1211  H     0.23191   0.91187   0.58190   0.00000  Uiso   1.00
H1212  H     0.18988   0.90788   0.63652   0.00000  Uiso   1.00
H1213  H     0.16661   0.91884   0.58952   0.00000  Uiso   1.00
H1214  H     0.21020   0.93310   0.92745   0.00000  Uiso   1.00
H1215  H     0.14913   0.95379   0.93459   0.00000  Uiso   1.00
H1216  H     0.18903   0.94492   0.87942   0.00000  Uiso   1.00
H1217  H     0.20003   0.72298   0.71707   0.00000  Uiso   1.00
H1218  H     0.21342   0.70480   0.76706   0.00000  Uiso   1.00
H1219  H     0.21128   0.66922   0.72179   0.00000  Uiso   1.00
H1220  H     0.07093   0.89552   0.96362   0.00000  Uiso   1.00
H1221  H     0.11966   0.96082   0.73290   0.00000  Uiso   1.00
H1222  H     0.13314   0.94349   0.78317   0.00000  Uiso   1.00
H1223  H     0.12223   0.99717   0.77737   0.00000  Uiso   1.00
H1224  H     0.27879   0.96076   0.71482   0.00000  Uiso   1.00
H1225  H     0.05458   0.70587   0.78516   0.00000  Uiso   1.00
H1226  H     0.10856   0.78488   0.79778   0.00000  Uiso   1.00
H1227  H     0.22470   0.88191   0.70237   0.00000  Uiso   1.00
H1228  H     0.11571   0.82329   0.60895   0.00000  Uiso   1.00
H1229  H     0.21602   0.84308   0.88873   0.00000  Uiso   1.00
H1230  H     0.00281   0.82601   0.97573   0.00000  Uiso   1.00
H1231  H     0.00408   0.88756   0.53177   0.00000  Uiso   1.00
H1232  H     0.19555   0.78490   0.79785   0.00000  Uiso   1.00
H1233  H     0.13734   0.88210   0.70288   0.00000  Uiso   1.00
H1234  H     0.30668   0.86546   0.61049   0.00000  Uiso   1.00
N1235  N     0.11736   0.83334   0.74999   0.00000  Uiso   1.00
N1236  N     0.21597   0.83332   0.75001   0.00000  Uiso   1.00
O1237  O     0.03958   0.77322   0.75000   0.00000  Uiso   1.00
O1238  O     0.15911   0.89253   0.91351   0.00000  Uiso   1.00
O1239  O     0.27190   0.70821   0.70831   0.00000  Uiso   1.00
O1240  O     0.06134   0.95845   0.79181   0.00000  Uiso   1.00
O1241  O     0.29375   0.89345   0.75000   0.00000  Uiso   1.00
O1242  O     0.29372   0.77321   0.75000   0.00000  Uiso   1.00
O1243  O     0.03961   0.89346   0.75000   0.00000  Uiso   1.00
O1244  O     0.01852   0.83334   0.81492   0.00000  Uiso   1.00
O1245  O     0.31481   0.83332   0.68508   0.00000  Uiso   1.00
O1246  O     0.27267   0.83333   0.81492   0.00000  Uiso   1.00
O1247  O     0.06067   0.83333   0.68508   0.00000  Uiso   1.00
O1248  O     0.18879   0.85835   0.59530   0.00000  Uiso   1.00
C1249  C     0.66664   0.75406   0.74951   0.00000  Uiso   1.00
C1250  C     0.36480   0.68870   0.76902   0.00000  Uiso   1.00
C1251  C     0.33365   0.95722   0.75068   0.00000  Uiso   1.00
C1252  C     0.66635   0.70943   0.74933   0.00000  Uiso   1.00
C1253  C     0.51669   0.80644   0.77657   0.00000  Uiso   1.00
C1254  C     0.48320   0.86036   0.72366   0.00000  Uiso   1.00
C1255  C     0.46709   0.80643   0.77653   0.00000  Uiso   1.00
C1256  C     0.53286   0.86030   0.72355   0.00000  Uiso   1.00
C1257  C     0.63921   0.83329   0.83624   0.00000  Uiso   1.00
C1258  C     0.36085   0.83495   0.66382   0.00000  Uiso   1.00
C1259  C     0.62415   0.83510   0.88565   0.00000  Uiso   1.00
C1260  C     0.33336   0.91260   0.75050   0.00000  Uiso   1.00
C1261  C     0.37666   0.84367   0.61523   0.00000  Uiso   1.00
C1262  C     0.64299   0.83150   0.95715   0.00000  Uiso   1.00
C1263  C     0.36246   0.87413   0.54845   0.00000  Uiso   1.00
C1264  C     0.65807   0.82986   0.91036   0.00000  Uiso   1.00
C1265  C     0.34484   0.86112   0.59310   0.00000  Uiso   1.00
C1266  C     0.57531   0.84291   0.90823   0.00000  Uiso   1.00
C1267  C     0.42606   0.83963   0.59231   0.00000  Uiso   1.00
C1268  C     0.56010   0.84848   0.95514   0.00000  Uiso   1.00
C1269  C     0.44516   0.85532   0.54854   0.00000  Uiso   1.00
C1270  C     0.59430   0.84032   0.97968   0.00000  Uiso   1.00
C1271  C     0.53190   0.85018   0.54979   0.00000  Uiso   1.00
C1272  C     0.41215   0.87053   0.52576   0.00000  Uiso   1.00
C1273  C     0.51138   0.85959   0.97858   0.00000  Uiso   1.00
C1274  C     0.49586   0.85439   0.52618   0.00000  Uiso   1.00
C1275  C     0.52797   0.90112   0.60047   0.00000  Uiso   1.00
C1276  C     0.51090   0.93280   0.91438   0.00000  Uiso   1.00
C1277  C     0.55554   0.70053   0.72989   0.00000  Uiso   1.00
C1278  C     0.44438   0.96573   0.76996   0.00000  Uiso   1.00
C1279  C     0.47799   0.87745   0.95705   0.00000  Uiso   1.00
C1280  C     0.57993   0.84175   0.52643   0.00000  Uiso   1.00
C1281  C     0.42911   0.88243   0.98081   0.00000  Uiso   1.00
C1282  C     0.63400   0.68750   0.73070   0.00000  Uiso   1.00
C1283  C     0.36599   0.97914   0.76932   0.00000  Uiso   1.00
C1284  C     0.63521   0.97794   0.73097   0.00000  Uiso   1.00
Cu1285 Cu    0.38022   0.83334   0.75000   0.00000  Uiso   1.00
Cu1286 Cu    0.61978   0.83333   0.75000   0.00000  Uiso   1.00
H1287  H     0.60616   0.83686   0.54533   0.00000  Uiso   1.00
H1288  H     0.36265   0.82360   0.89364   0.00000  Uiso   1.00
H1289  H     0.56525   0.91187   0.58190   0.00000  Uiso   1.00
H1290  H     0.52322   0.90788   0.63652   0.00000  Uiso   1.00
H1291  H     0.49994   0.91884   0.58952   0.00000  Uiso   1.00
H1292  H     0.54353   0.93310   0.92745   0.00000  Uiso   1.00
H1293  H     0.48247   0.95379   0.93459   0.00000  Uiso   1.00
H1294  H     0.52236   0.94492   0.87942   0.00000  Uiso   1.00
H1295  H     0.53336   0.72298   0.71707   0.00000  Uiso   1.00
H1296  H     0.54676   0.70480   0.76706   0.00000  Uiso   1.00
H1297  H     0.54461   0.66922   0.72179   0.00000  Uiso   1.00
H1298  H     0.40426   0.89552   0.96362   0.00000  Uiso   1.00
H1299  H     0.45299   0.96082   0.73290   0.00000  Uiso   1.00
H1300  H     0.46647   0.94349   0.78317   0.00000  Uiso   1.00
H1301  H     0.45557   0.99717   0.77737   0.00000  Uiso   1.00
H1302  H     0.61213   0.96076   0.71482   0.00000  Uiso   1.00
H1303  H     0.38791   0.70587   0.78516   0.00000  Uiso   1.00
H1304  H     0.44190   0.78488   0.79778   0.00000  Uiso   1.00
H1305  H     0.55803   0.88191   0.70237   0.00000  Uiso   1.00
H1306  H     0.44904   0.82329   0.60895   0.00000  Uiso   1.00
H1307  H     0.54936   0.84308   0.88873   0.00000  Uiso   1.00
H1308  H     0.33614   0.82601   0.97573   0.00000  Uiso   1.00
H1309  H     0.33741   0.88756   0.53177   0.00000  Uiso   1.00
H1310  H     0.52888   0.78490   0.79785   0.00000  Uiso   1.00
H1311  H     0.47067   0.88210   0.70288   0.00000  Uiso   1.00
H1312  H     0.64001   0.86546   0.61049   0.00000  Uiso   1.00
N1313  N     0.45069   0.83334   0.74999   0.00000  Uiso   1.00
N1314  N     0.54931   0.83332   0.75001   0.00000  Uiso   1.00
O1315  O     0.37291   0.77322   0.75000   0.00000  Uiso   1.00
O1316  O     0.49244   0.89253   0.91351   0.00000  Uiso   1.00
O1317  O     0.60523   0.70821   0.70831   0.00000  Uiso   1.00
O1318  O     0.39467   0.95845   0.79181   0.00000  Uiso   1.00
O1319  O     0.62709   0.89345   0.75000   0.00000  Uiso   1.00
O1320  O     0.62706   0.77321   0.75000   0.00000  Uiso   1.00
O1321  O     0.37294   0.89346   0.75000   0.00000  Uiso   1.00
O1322  O     0.35186   0.83334   0.81492   0.00000  Uiso   1.00
O1323  O     0.64814   0.83332   0.68508   0.00000  Uiso   1.00
O1324  O     0.60600   0.83333   0.81492   0.00000  Uiso   1.00
O1325  O     0.39400   0.83333   0.68508   0.00000  Uiso   1.00
O1326  O     0.52212   0.85835   0.59530   0.00000  Uiso   1.00
C1327  C     0.99997   0.75406   0.74951   0.00000  Uiso   1.00
C1328  C     0.69814   0.68870   0.76902   0.00000  Uiso   1.00
C1329  C     0.66698   0.95722   0.75068   0.00000  Uiso   1.00
C1330  C     0.99969   0.70943   0.74933   0.00000  Uiso   1.00
C1331  C     0.85002   0.80644   0.77657   0.00000  Uiso   1.00
C1332  C     0.81654   0.86036   0.72366   0.00000  Uiso   1.00
C1333  C     0.80042   0.80643   0.77653   0.00000  Uiso   1.00
C1334  C     0.86620   0.86030   0.72355   0.00000  Uiso   1.00
C1335  C     0.97254   0.83329   0.83624   0.00000  Uiso   1.00
C1336  C     0.69419   0.83495   0.66382   0.00000  Uiso   1.00
C1337  C     0.95749   0.83510   0.88565   0.00000  Uiso   1.00
C1338  C     0.66669   0.91260   0.75050   0.00000  Uiso   1.00
C1339  C     0.70999   0.84367   0.61523   0.00000  Uiso   1.00
C1340  C     0.97632   0.83150   0.95715   0.00000  Uiso   1.00
C1341  C     0.69580   0.87413   0.54845   0.00000  Uiso   1.00
C1342  C     0.99140   0.82986   0.91036   0.00000  Uiso   1.00
C1343  C     0.67817   0.86112   0.59310   0.00000  Uiso   1.00
C1344  C     0.90865   0.84291   0.90823   0.00000  Uiso   1.00
C1345  C     0.75939   0.83963   0.59231   0.00000  Uiso   1.00
C1346  C     0.89343   0.84848   0.95514   0.00000  Uiso   1.00
C1347  C     0.77849   0.85532   0.54854   0.00000  Uiso   1.00
C1348  C     0.92764   0.84032   0.97968   0.00000  Uiso   1.00
C1349  C     0.86523   0.85018   0.54979   0.00000  Uiso   1.00
C1350  C     0.74548   0.87053   0.52576   0.00000  Uiso   1.00
C1351  C     0.84471   0.85959   0.97858   0.00000  Uiso   1.00
C1352  C     0.82920   0.85439   0.52618   0.00000  Uiso   1.00
C1353  C     0.86130   0.90112   0.60047   0.00000  Uiso   1.00
C1354  C     0.84424   0.93280   0.91438   0.00000  Uiso   1.00
C1355  C     0.88887   0.70053   0.72989   0.00000  Uiso   1.00
C1356  C     0.77772   0.96573   0.76996   0.00000  Uiso   1.00
C1357  C     0.81132   0.87745   0.95705   0.00000  Uiso   1.00
C1358  C     0.91326   0.84175   0.52643   0.00000  Uiso   1.00
C1359  C     0.76245   0.88243   0.98081   0.00000  Uiso   1.00
C1360  C     0.96733   0.68750   0.73070   0.00000  Uiso   1.00
C1361  C     0.69932   0.97914   0.76932   0.00000  Uiso   1.00
C1362  C     0.96854   0.97794   0.73097   0.00000  Uiso   1.00
Cu1363 Cu    0.71355   0.83334   0.75000   0.00000  Uiso   1.00
Cu1364 Cu    0.95311   0.83333   0.75000   0.00000  Uiso   1.00
H1365  H     0.93949   0.83686   0.54533   0.00000  Uiso   1.00
H1366  H     0.69599   0.82360   0.89364   0.00000  Uiso   1.00
H1367  H     0.89858   0.91187   0.58190   0.00000  Uiso   1.00
H1368  H     0.85655   0.90788   0.63652   0.00000  Uiso   1.00
H1369  H     0.83327   0.91884   0.58952   0.00000  Uiso   1.00
H1370  H     0.87687   0.93310   0.92745   0.00000  Uiso   1.00
H1371  H     0.81580   0.95379   0.93459   0.00000  Uiso   1.00
H1372  H     0.85570   0.94492   0.87942   0.00000  Uiso   1.00
H1373  H     0.86669   0.72298   0.71707   0.00000  Uiso   1.00
H1374  H     0.88009   0.70480   0.76706   0.00000  Uiso   1.00
H1375  H     0.87795   0.66922   0.72179   0.00000  Uiso   1.00
H1376  H     0.73760   0.89552   0.96362   0.00000  Uiso   1.00
H1377  H     0.78633   0.96082   0.73290   0.00000  Uiso   1.00
H1378  H     0.79980   0.94349   0.78317   0.00000  Uiso   1.00
H1379  H     0.78890   0.99717   0.77737   0.00000  Uiso   1.00
H1380  H     0.94546   0.96076   0.71482   0.00000  Uiso   1.00
H1381  H     0.72125   0.70587   0.78516   0.00000  Uiso   1.00
H1382  H     0.77523   0.78488   0.79778   0.00000  Uiso   1.00
H1383  H     0.89136   0.88191   0.70237   0.00000  Uiso   1.00
H1384  H     0.78238   0.82329   0.60895   0.00000  Uiso   1.00
H1385  H     0.88269   0.84308   0.88873   0.00000  Uiso   1.00
H1386  H     0.66947   0.82601   0.97573   0.00000  Uiso   1.00
H1387  H     0.67075   0.88756   0.53177   0.00000  Uiso   1.00
H1388  H     0.86222   0.78490   0.79785   0.00000  Uiso   1.00
H1389  H     0.80401   0.88210   0.70288   0.00000  Uiso   1.00
H1390  H     0.97335   0.86546   0.61049   0.00000  Uiso   1.00
N1391  N     0.78403   0.83334   0.74999   0.00000  Uiso   1.00
N1392  N     0.88264   0.83332   0.75001   0.00000  Uiso   1.00
O1393  O     0.70625   0.77322   0.75000   0.00000  Uiso   1.00
O1394  O     0.82577   0.89253   0.91351   0.00000  Uiso   1.00
O1395  O     0.93857   0.70821   0.70831   0.00000  Uiso   1.00
O1396  O     0.72801   0.95845   0.79181   0.00000  Uiso   1.00
O1397  O     0.96042   0.89345   0.75000   0.00000  Uiso   1.00
O1398  O     0.96039   0.77321   0.75000   0.00000  Uiso   1.00
O1399  O     0.70628   0.89346   0.75000   0.00000  Uiso   1.00
O1400  O     0.68519   0.83334   0.81492   0.00000  Uiso   1.00
O1401  O     0.98148   0.83332   0.68508   0.00000  Uiso   1.00
O1402  O     0.93933   0.83333   0.81492   0.00000  Uiso   1.00
O1403  O     0.72733   0.83333   0.68508   0.00000  Uiso   1.00
O1404  O     0.85546   0.85835   0.59530   0.00000  Uiso   1.00
loop_
_geom_bond_atom_site_label_1
_geom_bond_atom_site_label_2
_geom_bond_distance
_geom_bond_site_symmetry_2
_ccdc_geom_bond_type
C1     O72     1.289   .     A
C1     C4      1.448   .     S
C1     O145    1.292   .     S
C2     H55     1.083   .     S
C2     C160    1.399   1_455 S
C2     C503    1.393   1_545 S
C3     C12     1.448   .     S
C3     C35     1.407   .     A
C3     C192    1.399   1_455 S
C4     C34     1.407   .     A
C4     C80     1.399   .     S
C5     C7      1.416   .     A
C5     N66     1.367   .     A
C5     H62     1.082   .     S
C6     N65     1.365   .     A
C6     H63     1.080   .     S
C6     C8      1.417   .     A
C7     H56     1.082   .     S
C7     N65     1.367   .     A
C8     N66     1.367   .     A
C8     H57     1.082   .     S
C9     O76     1.295   .     A
C9     C11     1.469   .     S
C9     O152    1.296   .     S
C10    O77     1.294   .     A
C10    C13     1.470   .     S
C10    O231    1.298   1_455 S
C11    C18     1.400   .     A
C11    C16     1.400   .     A
C12    O73     1.289   .     A
C12    O227    1.292   1_455 S
C13    C19     1.399   .     A
C13    C17     1.400   .     A
C14    C16     1.391   .     A
C14    C22     1.403   .     A
C14    H138    1.084   .     S
C15    H61     1.083   .     S
C15    C24     1.403   .     A
C15    C17     1.395   .     A
C16    H118    1.083   .     S
C17    H220    1.083   1_455 S
C18    C20     1.406   .     A
C18    H59     1.077   .     S
C19    C21     1.405   .     A
C19    H58     1.079   .     S
C20    C25     1.428   .     A
C20    C22     1.418   .     A
C21    C26     1.422   .     A
C21    C24     1.413   .     A
C22    C734    1.389   .     S
C23    C26     1.423   .     A
C23    O78     1.382   .     S
C23    C32     1.390   .     A
C24    C735    1.392   1_554 S
C25    C31     1.429   .     A
C25    C728    1.423   .     S
C26    C727    1.423   1_554 S
C27    O78     1.412   .     S
C27    H41     1.114   .     S
C27    H42     1.107   .     S
C27    H43     1.113   .     S
C28    H46     1.109   .     S
C28    H45     1.113   .     S
C28    H44     1.113   .     S
C28    O68     1.410   .     S
C29    H47     1.109   .     S
C29    O69     1.412   .     S
C29    H48     1.115   .     S
C29    H49     1.111   .     S
C30    H51     1.115   .     S
C30    H52     1.110   .     S
C30    O70     1.411   .     S
C30    H53     1.111   .     S
C31    C33     1.396   .     A
C31    O68     1.382   .     S
C32    H39     1.082   .     S
C32    C724    1.389   1_554 S
C33    H50     1.085   .     S
C33    C726    1.392   .     S
C34    O69     1.387   .     S
C34    C504    1.393   1_545 S
C35    O70     1.387   .     S
C35    C236    1.393   .     S
C36    H54     1.083   .     S
C36    C81     1.399   .     S
C36    C268    1.393   .     S
Cu37   O74     1.944   .     S
Cu37   N65     2.012   .     S
Cu37   O77     1.935   .     S
Cu37   O73     1.963   .     S
Cu37   O67     1.961   .     S
Cu37   Cu194   2.677   1_455 S
Cu38   O76     1.935   .     S
Cu38   N66     2.012   .     S
Cu38   O75     1.944   .     S
Cu38   O72     1.963   .     S
Cu38   O71     1.961   .     S
Cu38   Cu115   2.677   .     S
H40    C172    1.083   1_455 S
H60    C170    1.084   1_455 S
H64    C95     1.083   .     S
O67    C157    1.292   1_455 S
O71    C90     1.292   .     S
O74    C165    1.296   1_455 S
O75    C88     1.298   .     S
C79    O150    1.289   .     A
C79    C82     1.448   .     S
C79    O223    1.292   .     S
C80    H133    1.083   .     S
C80    C581    1.393   1_545 S
C81    C90     1.448   .     S
C81    C113    1.407   .     A
C82    C112    1.407   .     A
C82    C158    1.399   .     S
C83    C85     1.416   .     A
C83    N144    1.367   .     A
C83    H140    1.082   .     S
C84    N143    1.365   .     A
C84    H141    1.080   .     S
C84    C86     1.417   .     A
C85    H134    1.082   .     S
C85    N143    1.367   .     A
C86    N144    1.367   .     A
C86    H135    1.082   .     S
C87    O154    1.295   .     A
C87    C89     1.469   .     S
C87    O230    1.296   .     S
C88    O155    1.294   .     A
C88    C91     1.470   .     S
C89    C96     1.400   .     A
C89    C94     1.400   .     A
C90    O151    1.289   .     A
C91    C97     1.399   .     A
C91    C95     1.400   .     A
C92    C94     1.391   .     A
C92    C100    1.403   .     A
C92    H216    1.084   .     S
C93    H139    1.083   .     S
C93    C102    1.403   .     A
C93    C95     1.395   .     A
C94    H196    1.083   .     S
C96    C98     1.406   .     A
C96    H137    1.077   .     S
C97    C99     1.405   .     A
C97    H136    1.079   .     S
C98    C103    1.428   .     A
C98    C100    1.418   .     A
C99    C104    1.422   .     A
C99    C102    1.413   .     A
C100   C812    1.389   .     S
C101   C104    1.423   .     A
C101   O156    1.382   .     S
C101   C110    1.390   .     A
C102   C813    1.392   1_554 S
C103   C109    1.429   .     A
C103   C806    1.423   .     S
C104   C805    1.423   1_554 S
C105   O156    1.412   .     S
C105   H119    1.114   .     S
C105   H120    1.107   .     S
C105   H121    1.113   .     S
C106   H124    1.109   .     S
C106   H123    1.113   .     S
C106   H122    1.113   .     S
C106   O146    1.410   .     S
C107   H125    1.109   .     S
C107   O147    1.412   .     S
C107   H126    1.115   .     S
C107   H127    1.111   .     S
C108   H129    1.115   .     S
C108   H130    1.110   .     S
C108   O148    1.411   .     S
C108   H131    1.111   .     S
C109   C111    1.396   .     A
C109   O146    1.382   .     S
C110   H117    1.082   .     S
C110   C802    1.389   1_554 S
C111   H128    1.085   .     S
C111   C804    1.392   .     S
C112   O147    1.387   .     S
C112   C582    1.393   1_545 S
C113   O148    1.387   .     S
C113   C314    1.393   .     S
C114   H132    1.083   .     S
C114   C159    1.399   .     S
C114   C346    1.393   .     S
Cu115  O152    1.944   .     S
Cu115  N143    2.012   .     S
Cu115  O155    1.935   .     S
Cu115  O151    1.963   .     S
Cu115  O145    1.961   .     S
Cu116  O154    1.935   .     S
Cu116  N144    2.012   .     S
Cu116  O153    1.944   .     S
Cu116  O150    1.963   .     S
Cu116  O149    1.961   .     S
Cu116  Cu193   2.677   .     S
H142   C173    1.083   .     S
O149   C168    1.292   .     S
O153   C166    1.298   .     S
C157   O228    1.289   .     A
C157   C160    1.448   .     S
C157   O67     1.292   1_655 S
C158   H211    1.083   .     S
C158   C659    1.393   1_545 S
C159   C168    1.448   .     S
C159   C191    1.407   .     A
C160   C190    1.407   .     A
C160   C2      1.399   1_655 S
C161   C163    1.416   .     A
C161   N222    1.367   .     A
C161   H218    1.082   .     S
C162   N221    1.365   .     A
C162   H219    1.080   .     S
C162   C164    1.417   .     A
C163   H212    1.082   .     S
C163   N221    1.367   .     A
C164   N222    1.367   .     A
C164   H213    1.082   .     S
C165   O232    1.295   .     A
C165   C167    1.469   .     S
C165   O74     1.296   1_655 S
C166   O233    1.294   .     A
C166   C169    1.470   .     S
C167   C174    1.400   .     A
C167   C172    1.400   .     A
C168   O229    1.289   .     A
C169   C175    1.399   .     A
C169   C173    1.400   .     A
C170   C172    1.391   .     A
C170   C178    1.403   .     A
C170   H60     1.084   1_655 S
C171   H217    1.083   .     S
C171   C180    1.403   .     A
C171   C173    1.395   .     A
C172   H40     1.083   1_655 S
C174   C176    1.406   .     A
C174   H215    1.077   .     S
C175   C177    1.405   .     A
C175   H214    1.079   .     S
C176   C181    1.428   .     A
C176   C178    1.418   .     A
C177   C182    1.422   .     A
C177   C180    1.413   .     A
C178   C890    1.389   .     S
C179   C182    1.423   .     A
C179   O234    1.382   .     S
C179   C188    1.390   .     A
C180   C891    1.392   1_554 S
C181   C187    1.429   .     A
C181   C884    1.423   .     S
C182   C883    1.423   1_554 S
C183   O234    1.412   .     S
C183   H197    1.114   .     S
C183   H198    1.107   .     S
C183   H199    1.113   .     S
C184   H202    1.109   .     S
C184   H201    1.113   .     S
C184   H200    1.113   .     S
C184   O224    1.410   .     S
C185   H203    1.109   .     S
C185   O225    1.412   .     S
C185   H204    1.115   .     S
C185   H205    1.111   .     S
C186   H207    1.115   .     S
C186   H208    1.110   .     S
C186   O226    1.411   .     S
C186   H209    1.111   .     S
C187   C189    1.396   .     A
C187   O224    1.382   .     S
C188   H195    1.082   .     S
C188   C880    1.389   1_554 S
C189   H206    1.085   .     S
C189   C882    1.392   .     S
C190   O225    1.387   .     S
C190   C660    1.393   1_545 S
C191   O226    1.387   .     S
C191   C392    1.393   .     S
C192   H210    1.083   .     S
C192   C3      1.399   1_655 S
C192   C424    1.393   .     S
Cu193  O230    1.944   .     S
Cu193  N221    2.012   .     S
Cu193  O233    1.935   .     S
Cu193  O229    1.963   .     S
Cu193  O223    1.961   .     S
Cu194  O232    1.935   .     S
Cu194  N222    2.012   .     S
Cu194  O231    1.944   .     S
Cu194  O228    1.963   .     S
Cu194  O227    1.961   .     S
Cu194  Cu37    2.677   1_655 S
H220   C17     1.083   1_655 S
O227   C12     1.292   1_655 S
O231   C10     1.298   1_655 S
C235   O306    1.289   .     A
C235   C238    1.448   .     S
C235   O379    1.292   .     S
C236   H289    1.083   .     S
C236   C394    1.399   1_455 S
C237   C246    1.448   .     S
C237   C269    1.407   .     A
C237   C426    1.399   1_455 S
C238   C268    1.407   .     A
C238   C314    1.399   .     S
C239   C241    1.416   .     A
C239   N300    1.367   .     A
C239   H296    1.082   .     S
C240   N299    1.365   .     A
C240   H297    1.080   .     S
C240   C242    1.417   .     A
C241   H290    1.082   .     S
C241   N299    1.367   .     A
C242   N300    1.367   .     A
C242   H291    1.082   .     S
C243   O310    1.295   .     A
C243   C245    1.469   .     S
C243   O386    1.296   .     S
C244   O311    1.294   .     A
C244   C247    1.470   .     S
C244   O465    1.298   1_455 S
C245   C252    1.400   .     A
C245   C250    1.400   .     A
C246   O307    1.289   .     A
C246   O461    1.292   1_455 S
C247   C253    1.399   .     A
C247   C251    1.400   .     A
C248   C250    1.391   .     A
C248   C256    1.403   .     A
C248   H372    1.084   .     S
C249   H295    1.083   .     S
C249   C258    1.403   .     A
C249   C251    1.395   .     A
C250   H352    1.083   .     S
C251   H454    1.083   1_455 S
C252   C254    1.406   .     A
C252   H293    1.077   .     S
C253   C255    1.405   .     A
C253   H292    1.079   .     S
C254   C259    1.428   .     A
C254   C256    1.418   .     A
C255   C260    1.422   .     A
C255   C258    1.413   .     A
C256   C968    1.389   .     S
C257   C260    1.423   .     A
C257   O312    1.382   .     S
C257   C266    1.390   .     A
C258   C969    1.392   1_554 S
C259   C265    1.429   .     A
C259   C962    1.423   .     S
C260   C961    1.423   1_554 S
C261   O312    1.412   .     S
C261   H275    1.114   .     S
C261   H276    1.107   .     S
C261   H277    1.113   .     S
C262   H280    1.109   .     S
C262   H279    1.113   .     S
C262   H278    1.113   .     S
C262   O302    1.410   .     S
C263   H281    1.109   .     S
C263   O303    1.412   .     S
C263   H282    1.115   .     S
C263   H283    1.111   .     S
C264   H285    1.115   .     S
C264   H286    1.110   .     S
C264   O304    1.411   .     S
C264   H287    1.111   .     S
C265   C267    1.396   .     A
C265   O302    1.382   .     S
C266   H273    1.082   .     S
C266   C958    1.389   1_554 S
C267   H284    1.085   .     S
C267   C960    1.392   .     S
C268   O303    1.387   .     S
C269   O304    1.387   .     S
C269   C470    1.393   .     S
C270   H288    1.083   .     S
C270   C315    1.399   .     S
C270   C502    1.393   .     S
Cu271  O308    1.944   .     S
Cu271  N299    2.012   .     S
Cu271  O311    1.935   .     S
Cu271  O307    1.963   .     S
Cu271  O301    1.961   .     S
Cu271  Cu428   2.677   1_455 S
Cu272  O310    1.935   .     S
Cu272  N300    2.012   .     S
Cu272  O309    1.944   .     S
Cu272  O306    1.963   .     S
Cu272  O305    1.961   .     S
Cu272  Cu349   2.677   .     S
H274   C406    1.083   1_455 S
H294   C404    1.084   1_455 S
H298   C329    1.083   .     S
O301   C391    1.292   1_455 S
O305   C324    1.292   .     S
O308   C399    1.296   1_455 S
O309   C322    1.298   .     S
C313   O384    1.289   .     A
C313   C316    1.448   .     S
C313   O457    1.292   .     S
C314   H367    1.083   .     S
C315   C324    1.448   .     S
C315   C347    1.407   .     A
C316   C346    1.407   .     A
C316   C392    1.399   .     S
C317   C319    1.416   .     A
C317   N378    1.367   .     A
C317   H374    1.082   .     S
C318   N377    1.365   .     A
C318   H375    1.080   .     S
C318   C320    1.417   .     A
C319   H368    1.082   .     S
C319   N377    1.367   .     A
C320   N378    1.367   .     A
C320   H369    1.082   .     S
C321   O388    1.295   .     A
C321   C323    1.469   .     S
C321   O464    1.296   .     S
C322   O389    1.294   .     A
C322   C325    1.470   .     S
C323   C330    1.400   .     A
C323   C328    1.400   .     A
C324   O385    1.289   .     A
C325   C331    1.399   .     A
C325   C329    1.400   .     A
C326   C328    1.391   .     A
C326   C334    1.403   .     A
C326   H450    1.084   .     S
C327   H373    1.083   .     S
C327   C336    1.403   .     A
C327   C329    1.395   .     A
C328   H430    1.083   .     S
C330   C332    1.406   .     A
C330   H371    1.077   .     S
C331   C333    1.405   .     A
C331   H370    1.079   .     S
C332   C337    1.428   .     A
C332   C334    1.418   .     A
C333   C338    1.422   .     A
C333   C336    1.413   .     A
C334   C1046   1.389   .     S
C335   C338    1.423   .     A
C335   O390    1.382   .     S
C335   C344    1.390   .     A
C336   C1047   1.392   1_554 S
C337   C343    1.429   .     A
C337   C1040   1.423   .     S
C338   C1039   1.423   1_554 S
C339   O390    1.412   .     S
C339   H353    1.114   .     S
C339   H354    1.107   .     S
C339   H355    1.113   .     S
C340   H358    1.109   .     S
C340   H357    1.113   .     S
C340   H356    1.113   .     S
C340   O380    1.410   .     S
C341   H359    1.109   .     S
C341   O381    1.412   .     S
C341   H360    1.115   .     S
C341   H361    1.111   .     S
C342   H363    1.115   .     S
C342   H364    1.110   .     S
C342   O382    1.411   .     S
C342   H365    1.111   .     S
C343   C345    1.396   .     A
C343   O380    1.382   .     S
C344   H351    1.082   .     S
C344   C1036   1.389   1_554 S
C345   H362    1.085   .     S
C345   C1038   1.392   .     S
C346   O381    1.387   .     S
C347   O382    1.387   .     S
C347   C548    1.393   .     S
C348   H366    1.083   .     S
C348   C393    1.399   .     S
C348   C580    1.393   .     S
Cu349  O386    1.944   .     S
Cu349  N377    2.012   .     S
Cu349  O389    1.935   .     S
Cu349  O385    1.963   .     S
Cu349  O379    1.961   .     S
Cu350  O388    1.935   .     S
Cu350  N378    2.012   .     S
Cu350  O387    1.944   .     S
Cu350  O384    1.963   .     S
Cu350  O383    1.961   .     S
Cu350  Cu427   2.677   .     S
H376   C407    1.083   .     S
O383   C402    1.292   .     S
O387   C400    1.298   .     S
C391   O462    1.289   .     A
C391   C394    1.448   .     S
C391   O301    1.292   1_655 S
C392   H445    1.083   .     S
C393   C402    1.448   .     S
C393   C425    1.407   .     A
C394   C424    1.407   .     A
C394   C236    1.399   1_655 S
C395   C397    1.416   .     A
C395   N456    1.367   .     A
C395   H452    1.082   .     S
C396   N455    1.365   .     A
C396   H453    1.080   .     S
C396   C398    1.417   .     A
C397   H446    1.082   .     S
C397   N455    1.367   .     A
C398   N456    1.367   .     A
C398   H447    1.082   .     S
C399   O466    1.295   .     A
C399   C401    1.469   .     S
C399   O308    1.296   1_655 S
C400   O467    1.294   .     A
C400   C403    1.470   .     S
C401   C408    1.400   .     A
C401   C406    1.400   .     A
C402   O463    1.289   .     A
C403   C409    1.399   .     A
C403   C407    1.400   .     A
C404   C406    1.391   .     A
C404   C412    1.403   .     A
C404   H294    1.084   1_655 S
C405   H451    1.083   .     S
C405   C414    1.403   .     A
C405   C407    1.395   .     A
C406   H274    1.083   1_655 S
C408   C410    1.406   .     A
C408   H449    1.077   .     S
C409   C411    1.405   .     A
C409   H448    1.079   .     S
C410   C415    1.428   .     A
C410   C412    1.418   .     A
C411   C416    1.422   .     A
C411   C414    1.413   .     A
C412   C1124   1.389   .     S
C413   C416    1.423   .     A
C413   O468    1.382   .     S
C413   C422    1.390   .     A
C414   C1125   1.392   1_554 S
C415   C421    1.429   .     A
C415   C1118   1.423   .     S
C416   C1117   1.423   1_554 S
C417   O468    1.412   .     S
C417   H431    1.114   .     S
C417   H432    1.107   .     S
C417   H433    1.113   .     S
C418   H436    1.109   .     S
C418   H435    1.113   .     S
C418   H434    1.113   .     S
C418   O458    1.410   .     S
C419   H437    1.109   .     S
C419   O459    1.412   .     S
C419   H438    1.115   .     S
C419   H439    1.111   .     S
C420   H441    1.115   .     S
C420   H442    1.110   .     S
C420   O460    1.411   .     S
C420   H443    1.111   .     S
C421   C423    1.396   .     A
C421   O458    1.382   .     S
C422   H429    1.082   .     S
C422   C1114   1.389   1_554 S
C423   H440    1.085   .     S
C423   C1116   1.392   .     S
C424   O459    1.387   .     S
C425   O460    1.387   .     S
C425   C626    1.393   .     S
C426   H444    1.083   .     S
C426   C237    1.399   1_655 S
C426   C658    1.393   .     S
Cu427  O464    1.944   .     S
Cu427  N455    2.012   .     S
Cu427  O467    1.935   .     S
Cu427  O463    1.963   .     S
Cu427  O457    1.961   .     S
Cu428  O466    1.935   .     S
Cu428  N456    2.012   .     S
Cu428  O465    1.944   .     S
Cu428  O462    1.963   .     S
Cu428  O461    1.961   .     S
Cu428  Cu271   2.677   1_655 S
H454   C251    1.083   1_655 S
O461   C246    1.292   1_655 S
O465   C244    1.298   1_655 S
C469   O540    1.289   .     A
C469   C472    1.448   .     S
C469   O613    1.292   .     S
C470   H523    1.083   .     S
C470   C628    1.399   1_455 S
C471   C480    1.448   .     S
C471   C503    1.407   .     A
C471   C660    1.399   1_455 S
C472   C502    1.407   .     A
C472   C548    1.399   .     S
C473   C475    1.416   .     A
C473   N534    1.367   .     A
C473   H530    1.082   .     S
C474   N533    1.365   .     A
C474   H531    1.080   .     S
C474   C476    1.417   .     A
C475   H524    1.082   .     S
C475   N533    1.367   .     A
C476   N534    1.367   .     A
C476   H525    1.082   .     S
C477   O544    1.295   .     A
C477   C479    1.469   .     S
C477   O620    1.296   .     S
C478   O545    1.294   .     A
C478   C481    1.470   .     S
C478   O699    1.298   1_455 S
C479   C486    1.400   .     A
C479   C484    1.400   .     A
C480   O541    1.289   .     A
C480   O695    1.292   1_455 S
C481   C487    1.399   .     A
C481   C485    1.400   .     A
C482   C484    1.391   .     A
C482   C490    1.403   .     A
C482   H606    1.084   .     S
C483   H529    1.083   .     S
C483   C492    1.403   .     A
C483   C485    1.395   .     A
C484   H586    1.083   .     S
C485   H688    1.083   1_455 S
C486   C488    1.406   .     A
C486   H527    1.077   .     S
C487   C489    1.405   .     A
C487   H526    1.079   .     S
C488   C493    1.428   .     A
C488   C490    1.418   .     A
C489   C494    1.422   .     A
C489   C492    1.413   .     A
C490   C1202   1.389   .     S
C491   C494    1.423   .     A
C491   O546    1.382   .     S
C491   C500    1.390   .     A
C492   C1203   1.392   1_554 S
C493   C499    1.429   .     A
C493   C1196   1.423   .     S
C494   C1195   1.423   1_554 S
C495   O546    1.412   .     S
C495   H509    1.114   .     S
C495   H510    1.107   .     S
C495   H511    1.113   .     S
C496   H514    1.109   .     S
C496   H513    1.113   .     S
C496   H512    1.113   .     S
C496   O536    1.410   .     S
C497   H515    1.109   .     S
C497   O537    1.412   .     S
C497   H516    1.115   .     S
C497   H517    1.111   .     S
C498   H519    1.115   .     S
C498   H520    1.110   .     S
C498   O538    1.411   .     S
C498   H521    1.111   .     S
C499   C501    1.396   .     A
C499   O536    1.382   .     S
C500   H507    1.082   .     S
C500   C1192   1.389   1_554 S
C501   H518    1.085   .     S
C501   C1194   1.392   .     S
C502   O537    1.387   .     S
C503   O538    1.387   .     S
C503   C2      1.393   1_565 S
C504   H522    1.083   .     S
C504   C549    1.399   .     S
C504   C34     1.393   1_565 S
Cu505  O542    1.944   .     S
Cu505  N533    2.012   .     S
Cu505  O545    1.935   .     S
Cu505  O541    1.963   .     S
Cu505  O535    1.961   .     S
Cu505  Cu662   2.677   1_455 S
Cu506  O544    1.935   .     S
Cu506  N534    2.012   .     S
Cu506  O543    1.944   .     S
Cu506  O540    1.963   .     S
Cu506  O539    1.961   .     S
Cu506  Cu583   2.677   .     S
H508   C640    1.083   1_455 S
H528   C638    1.084   1_455 S
H532   C563    1.083   .     S
O535   C625    1.292   1_455 S
O539   C558    1.292   .     S
O542   C633    1.296   1_455 S
O543   C556    1.298   .     S
C547   O618    1.289   .     A
C547   C550    1.448   .     S
C547   O691    1.292   .     S
C548   H601    1.083   .     S
C549   C558    1.448   .     S
C549   C581    1.407   .     A
C550   C580    1.407   .     A
C550   C626    1.399   .     S
C551   C553    1.416   .     A
C551   N612    1.367   .     A
C551   H608    1.082   .     S
C552   N611    1.365   .     A
C552   H609    1.080   .     S
C552   C554    1.417   .     A
C553   H602    1.082   .     S
C553   N611    1.367   .     A
C554   N612    1.367   .     A
C554   H603    1.082   .     S
C555   O622    1.295   .     A
C555   C557    1.469   .     S
C555   O698    1.296   .     S
C556   O623    1.294   .     A
C556   C559    1.470   .     S
C557   C564    1.400   .     A
C557   C562    1.400   .     A
C558   O619    1.289   .     A
C559   C565    1.399   .     A
C559   C563    1.400   .     A
C560   C562    1.391   .     A
C560   C568    1.403   .     A
C560   H684    1.084   .     S
C561   H607    1.083   .     S
C561   C570    1.403   .     A
C561   C563    1.395   .     A
C562   H664    1.083   .     S
C564   C566    1.406   .     A
C564   H605    1.077   .     S
C565   C567    1.405   .     A
C565   H604    1.079   .     S
C566   C571    1.428   .     A
C566   C568    1.418   .     A
C567   C572    1.422   .     A
C567   C570    1.413   .     A
C568   C1280   1.389   .     S
C569   C572    1.423   .     A
C569   O624    1.382   .     S
C569   C578    1.390   .     A
C570   C1281   1.392   1_554 S
C571   C577    1.429   .     A
C571   C1274   1.423   .     S
C572   C1273   1.423   1_554 S
C573   O624    1.412   .     S
C573   H587    1.114   .     S
C573   H588    1.107   .     S
C573   H589    1.113   .     S
C574   H592    1.109   .     S
C574   H591    1.113   .     S
C574   H590    1.113   .     S
C574   O614    1.410   .     S
C575   H593    1.109   .     S
C575   O615    1.412   .     S
C575   H594    1.115   .     S
C575   H595    1.111   .     S
C576   H597    1.115   .     S
C576   H598    1.110   .     S
C576   O616    1.411   .     S
C576   H599    1.111   .     S
C577   C579    1.396   .     A
C577   O614    1.382   .     S
C578   H585    1.082   .     S
C578   C1270   1.389   1_554 S
C579   H596    1.085   .     S
C579   C1272   1.392   .     S
C580   O615    1.387   .     S
C581   O616    1.387   .     S
C581   C80     1.393   1_565 S
C582   H600    1.083   .     S
C582   C627    1.399   .     S
C582   C112    1.393   1_565 S
Cu583  O620    1.944   .     S
Cu583  N611    2.012   .     S
Cu583  O623    1.935   .     S
Cu583  O619    1.963   .     S
Cu583  O613    1.961   .     S
Cu584  O622    1.935   .     S
Cu584  N612    2.012   .     S
Cu584  O621    1.944   .     S
Cu584  O618    1.963   .     S
Cu584  O617    1.961   .     S
Cu584  Cu661   2.677   .     S
H610   C641    1.083   .     S
O617   C636    1.292   .     S
O621   C634    1.298   .     S
C625   O696    1.289   .     A
C625   C628    1.448   .     S
C625   O535    1.292   1_655 S
C626   H679    1.083   .     S
C627   C636    1.448   .     S
C627   C659    1.407   .     A
C628   C658    1.407   .     A
C628   C470    1.399   1_655 S
C629   C631    1.416   .     A
C629   N690    1.367   .     A
C629   H686    1.082   .     S
C630   N689    1.365   .     A
C630   H687    1.080   .     S
C630   C632    1.417   .     A
C631   H680    1.082   .     S
C631   N689    1.367   .     A
C632   N690    1.367   .     A
C632   H681    1.082   .     S
C633   O700    1.295   .     A
C633   C635    1.469   .     S
C633   O542    1.296   1_655 S
C634   O701    1.294   .     A
C634   C637    1.470   .     S
C635   C642    1.400   .     A
C635   C640    1.400   .     A
C636   O697    1.289   .     A
C637   C643    1.399   .     A
C637   C641    1.400   .     A
C638   C640    1.391   .     A
C638   C646    1.403   .     A
C638   H528    1.084   1_655 S
C639   H685    1.083   .     S
C639   C648    1.403   .     A
C639   C641    1.395   .     A
C640   H508    1.083   1_655 S
C642   C644    1.406   .     A
C642   H683    1.077   .     S
C643   C645    1.405   .     A
C643   H682    1.079   .     S
C644   C649    1.428   .     A
C644   C646    1.418   .     A
C645   C650    1.422   .     A
C645   C648    1.413   .     A
C646   C1358   1.389   .     S
C647   C650    1.423   .     A
C647   O702    1.382   .     S
C647   C656    1.390   .     A
C648   C1359   1.392   1_554 S
C649   C655    1.429   .     A
C649   C1352   1.423   .     S
C650   C1351   1.423   1_554 S
C651   O702    1.412   .     S
C651   H665    1.114   .     S
C651   H666    1.107   .     S
C651   H667    1.113   .     S
C652   H670    1.109   .     S
C652   H669    1.113   .     S
C652   H668    1.113   .     S
C652   O692    1.410   .     S
C653   H671    1.109   .     S
C653   O693    1.412   .     S
C653   H672    1.115   .     S
C653   H673    1.111   .     S
C654   H675    1.115   .     S
C654   H676    1.110   .     S
C654   O694    1.411   .     S
C654   H677    1.111   .     S
C655   C657    1.396   .     A
C655   O692    1.382   .     S
C656   H663    1.082   .     S
C656   C1348   1.389   1_554 S
C657   H674    1.085   .     S
C657   C1350   1.392   .     S
C658   O693    1.387   .     S
C659   O694    1.387   .     S
C659   C158    1.393   1_565 S
C660   H678    1.083   .     S
C660   C471    1.399   1_655 S
C660   C190    1.393   1_565 S
Cu661  O698    1.944   .     S
Cu661  N689    2.012   .     S
Cu661  O701    1.935   .     S
Cu661  O697    1.963   .     S
Cu661  O691    1.961   .     S
Cu662  O700    1.935   .     S
Cu662  N690    2.012   .     S
Cu662  O699    1.944   .     S
Cu662  O696    1.963   .     S
Cu662  O695    1.961   .     S
Cu662  Cu505   2.677   1_655 S
H688   C485    1.083   1_655 S
O695   C480    1.292   1_655 S
O699   C478    1.298   1_655 S
C703   O774    1.289   .     A
C703   C706    1.448   .     S
C703   O847    1.292   .     S
C704   H757    1.083   .     S
C704   C862    1.399   1_455 S
C704   C1205   1.393   1_545 S
C705   C714    1.448   .     S
C705   C737    1.407   .     A
C705   C894    1.399   1_455 S
C706   C736    1.407   .     A
C706   C782    1.399   .     S
C707   C709    1.416   .     A
C707   N768    1.367   .     A
C707   H764    1.082   .     S
C708   N767    1.365   .     A
C708   H765    1.080   .     S
C708   C710    1.417   .     A
C709   H758    1.082   .     S
C709   N767    1.367   .     A
C710   N768    1.367   .     A
C710   H759    1.082   .     S
C711   O778    1.295   .     A
C711   C713    1.469   .     S
C711   O854    1.296   .     S
C712   O779    1.294   .     A
C712   C715    1.470   .     S
C712   O933    1.298   1_455 S
C713   C720    1.400   .     A
C713   C718    1.400   .     A
C714   O775    1.289   .     A
C714   O929    1.292   1_455 S
C715   C721    1.399   .     A
C715   C719    1.400   .     A
C716   C718    1.391   .     A
C716   C724    1.403   .     A
C716   H840    1.084   .     S
C717   H763    1.083   .     S
C717   C726    1.403   .     A
C717   C719    1.395   .     A
C718   H820    1.083   .     S
C719   H922    1.083   1_455 S
C720   C722    1.406   .     A
C720   H761    1.077   .     S
C721   C723    1.405   .     A
C721   H760    1.079   .     S
C722   C727    1.428   .     A
C722   C724    1.418   .     A
C723   C728    1.422   .     A
C723   C726    1.413   .     A
C724   C32     1.389   1_556 S
C725   C728    1.423   .     A
C725   O780    1.382   .     S
C725   C734    1.390   .     A
C727   C733    1.429   .     A
C727   C26     1.423   1_556 S
C729   O780    1.412   .     S
C729   H743    1.114   .     S
C729   H744    1.107   .     S
C729   H745    1.113   .     S
C730   H748    1.109   .     S
C730   H747    1.113   .     S
C730   H746    1.113   .     S
C730   O770    1.410   .     S
C731   H749    1.109   .     S
C731   O771    1.412   .     S
C731   H750    1.115   .     S
C731   H751    1.111   .     S
C732   H753    1.115   .     S
C732   H754    1.110   .     S
C732   O772    1.411   .     S
C732   H755    1.111   .     S
C733   C735    1.396   .     A
C733   O770    1.382   .     S
C734   H741    1.082   .     S
C735   H752    1.085   .     S
C735   C24     1.392   1_556 S
C736   O771    1.387   .     S
C736   C1206   1.393   1_545 S
C737   O772    1.387   .     S
C737   C938    1.393   .     S
C738   H756    1.083   .     S
C738   C783    1.399   .     S
C738   C970    1.393   .     S
Cu739  O776    1.944   .     S
Cu739  N767    2.012   .     S
Cu739  O779    1.935   .     S
Cu739  O775    1.963   .     S
Cu739  O769    1.961   .     S
Cu739  Cu896   2.677   1_455 S
Cu740  O778    1.935   .     S
Cu740  N768    2.012   .     S
Cu740  O777    1.944   .     S
Cu740  O774    1.963   .     S
Cu740  O773    1.961   .     S
Cu740  Cu817   2.677   .     S
H742   C874    1.083   1_455 S
H762   C872    1.084   1_455 S
H766   C797    1.083   .     S
O769   C859    1.292   1_455 S
O773   C792    1.292   .     S
O776   C867    1.296   1_455 S
O777   C790    1.298   .     S
C781   O852    1.289   .     A
C781   C784    1.448   .     S
C781   O925    1.292   .     S
C782   H835    1.083   .     S
C782   C1283   1.393   1_545 S
C783   C792    1.448   .     S
C783   C815    1.407   .     A
C784   C814    1.407   .     A
C784   C860    1.399   .     S
C785   C787    1.416   .     A
C785   N846    1.367   .     A
C785   H842    1.082   .     S
C786   N845    1.365   .     A
C786   H843    1.080   .     S
C786   C788    1.417   .     A
C787   H836    1.082   .     S
C787   N845    1.367   .     A
C788   N846    1.367   .     A
C788   H837    1.082   .     S
C789   O856    1.295   .     A
C789   C791    1.469   .     S
C789   O932    1.296   .     S
C790   O857    1.294   .     A
C790   C793    1.470   .     S
C791   C798    1.400   .     A
C791   C796    1.400   .     A
C792   O853    1.289   .     A
C793   C799    1.399   .     A
C793   C797    1.400   .     A
C794   C796    1.391   .     A
C794   C802    1.403   .     A
C794   H918    1.084   .     S
C795   H841    1.083   .     S
C795   C804    1.403   .     A
C795   C797    1.395   .     A
C796   H898    1.083   .     S
C798   C800    1.406   .     A
C798   H839    1.077   .     S
C799   C801    1.405   .     A
C799   H838    1.079   .     S
C800   C805    1.428   .     A
C800   C802    1.418   .     A
C801   C806    1.422   .     A
C801   C804    1.413   .     A
C802   C110    1.389   1_556 S
C803   C806    1.423   .     A
C803   O858    1.382   .     S
C803   C812    1.390   .     A
C805   C811    1.429   .     A
C805   C104    1.423   1_556 S
C807   O858    1.412   .     S
C807   H821    1.114   .     S
C807   H822    1.107   .     S
C807   H823    1.113   .     S
C808   H826    1.109   .     S
C808   H825    1.113   .     S
C808   H824    1.113   .     S
C808   O848    1.410   .     S
C809   H827    1.109   .     S
C809   O849    1.412   .     S
C809   H828    1.115   .     S
C809   H829    1.111   .     S
C810   H831    1.115   .     S
C810   H832    1.110   .     S
C810   O850    1.411   .     S
C810   H833    1.111   .     S
C811   C813    1.396   .     A
C811   O848    1.382   .     S
C812   H819    1.082   .     S
C813   H830    1.085   .     S
C813   C102    1.392   1_556 S
C814   O849    1.387   .     S
C814   C1284   1.393   1_545 S
C815   O850    1.387   .     S
C815   C1016   1.393   .     S
C816   H834    1.083   .     S
C816   C861    1.399   .     S
C816   C1048   1.393   .     S
Cu817  O854    1.944   .     S
Cu817  N845    2.012   .     S
Cu817  O857    1.935   .     S
Cu817  O853    1.963   .     S
Cu817  O847    1.961   .     S
Cu818  O856    1.935   .     S
Cu818  N846    2.012   .     S
Cu818  O855    1.944   .     S
Cu818  O852    1.963   .     S
Cu818  O851    1.961   .     S
Cu818  Cu895   2.677   .     S
H844   C875    1.083   .     S
O851   C870    1.292   .     S
O855   C868    1.298   .     S
C859   O930    1.289   .     A
C859   C862    1.448   .     S
C859   O769    1.292   1_655 S
C860   H913    1.083   .     S
C860   C1361   1.393   1_545 S
C861   C870    1.448   .     S
C861   C893    1.407   .     A
C862   C892    1.407   .     A
C862   C704    1.399   1_655 S
C863   C865    1.416   .     A
C863   N924    1.367   .     A
C863   H920    1.082   .     S
C864   N923    1.365   .     A
C864   H921    1.080   .     S
C864   C866    1.417   .     A
C865   H914    1.082   .     S
C865   N923    1.367   .     A
C866   N924    1.367   .     A
C866   H915    1.082   .     S
C867   O934    1.295   .     A
C867   C869    1.469   .     S
C867   O776    1.296   1_655 S
C868   O935    1.294   .     A
C868   C871    1.470   .     S
C869   C876    1.400   .     A
C869   C874    1.400   .     A
C870   O931    1.289   .     A
C871   C877    1.399   .     A
C871   C875    1.400   .     A
C872   C874    1.391   .     A
C872   C880    1.403   .     A
C872   H762    1.084   1_655 S
C873   H919    1.083   .     S
C873   C882    1.403   .     A
C873   C875    1.395   .     A
C874   H742    1.083   1_655 S
C876   C878    1.406   .     A
C876   H917    1.077   .     S
C877   C879    1.405   .     A
C877   H916    1.079   .     S
C878   C883    1.428   .     A
C878   C880    1.418   .     A
C879   C884    1.422   .     A
C879   C882    1.413   .     A
C880   C188    1.389   1_556 S
C881   C884    1.423   .     A
C881   O936    1.382   .     S
C881   C890    1.390   .     A
C883   C889    1.429   .     A
C883   C182    1.423   1_556 S
C885   O936    1.412   .     S
C885   H899    1.114   .     S
C885   H900    1.107   .     S
C885   H901    1.113   .     S
C886   H904    1.109   .     S
C886   H903    1.113   .     S
C886   H902    1.113   .     S
C886   O926    1.410   .     S
C887   H905    1.109   .     S
C887   O927    1.412   .     S
C887   H906    1.115   .     S
C887   H907    1.111   .     S
C888   H909    1.115   .     S
C888   H910    1.110   .     S
C888   O928    1.411   .     S
C888   H911    1.111   .     S
C889   C891    1.396   .     A
C889   O926    1.382   .     S
C890   H897    1.082   .     S
C891   H908    1.085   .     S
C891   C180    1.392   1_556 S
C892   O927    1.387   .     S
C892   C1362   1.393   1_545 S
C893   O928    1.387   .     S
C893   C1094   1.393   .     S
C894   H912    1.083   .     S
C894   C705    1.399   1_655 S
C894   C1126   1.393   .     S
Cu895  O932    1.944   .     S
Cu895  N923    2.012   .     S
Cu895  O935    1.935   .     S
Cu895  O931    1.963   .     S
Cu895  O925    1.961   .     S
Cu896  O934    1.935   .     S
Cu896  N924    2.012   .     S
Cu896  O933    1.944   .     S
Cu896  O930    1.963   .     S
Cu896  O929    1.961   .     S
Cu896  Cu739   2.677   1_655 S
H922   C719    1.083   1_655 S
O929   C714    1.292   1_655 S
O933   C712    1.298   1_655 S
C937   O1008   1.289   .     A
C937   C940    1.448   .     S
C937   O1081   1.292   .     S
C938   H991    1.083   .     S
C938   C1096   1.399   1_455 S
C939   C948    1.448   .     S
C939   C971    1.407   .     A
C939   C1128   1.399   1_455 S
C940   C970    1.407   .     A
C940   C1016   1.399   .     S
C941   C943    1.416   .     A
C941   N1002   1.367   .     A
C941   H998    1.082   .     S
C942   N1001   1.365   .     A
C942   H999    1.080   .     S
C942   C944    1.417   .     A
C943   H992    1.082   .     S
C943   N1001   1.367   .     A
C944   N1002   1.367   .     A
C944   H993    1.082   .     S
C945   O1012   1.295   .     A
C945   C947    1.469   .     S
C945   O1088   1.296   .     S
C946   O1013   1.294   .     A
C946   C949    1.470   .     S
C946   O1167   1.298   1_455 S
C947   C954    1.400   .     A
C947   C952    1.400   .     A
C948   O1009   1.289   .     A
C948   O1163   1.292   1_455 S
C949   C955    1.399   .     A
C949   C953    1.400   .     A
C950   C952    1.391   .     A
C950   C958    1.403   .     A
C950   H1074   1.084   .     S
C951   H997    1.083   .     S
C951   C960    1.403   .     A
C951   C953    1.395   .     A
C952   H1054   1.083   .     S
C953   H1156   1.083   1_455 S
C954   C956    1.406   .     A
C954   H995    1.077   .     S
C955   C957    1.405   .     A
C955   H994    1.079   .     S
C956   C961    1.428   .     A
C956   C958    1.418   .     A
C957   C962    1.422   .     A
C957   C960    1.413   .     A
C958   C266    1.389   1_556 S
C959   C962    1.423   .     A
C959   O1014   1.382   .     S
C959   C968    1.390   .     A
C961   C967    1.429   .     A
C961   C260    1.423   1_556 S
C963   O1014   1.412   .     S
C963   H977    1.114   .     S
C963   H978    1.107   .     S
C963   H979    1.113   .     S
C964   H982    1.109   .     S
C964   H981    1.113   .     S
C964   H980    1.113   .     S
C964   O1004   1.410   .     S
C965   H983    1.109   .     S
C965   O1005   1.412   .     S
C965   H984    1.115   .     S
C965   H985    1.111   .     S
C966   H987    1.115   .     S
C966   H988    1.110   .     S
C966   O1006   1.411   .     S
C966   H989    1.111   .     S
C967   C969    1.396   .     A
C967   O1004   1.382   .     S
C968   H975    1.082   .     S
C969   H986    1.085   .     S
C969   C258    1.392   1_556 S
C970   O1005   1.387   .     S
C971   O1006   1.387   .     S
C971   C1172   1.393   .     S
C972   H990    1.083   .     S
C972   C1017   1.399   .     S
C972   C1204   1.393   .     S
Cu973  O1010   1.944   .     S
Cu973  N1001   2.012   .     S
Cu973  O1013   1.935   .     S
Cu973  O1009   1.963   .     S
Cu973  O1003   1.961   .     S
Cu973  Cu1130  2.677   1_455 S
Cu974  O1012   1.935   .     S
Cu974  N1002   2.012   .     S
Cu974  O1011   1.944   .     S
Cu974  O1008   1.963   .     S
Cu974  O1007   1.961   .     S
Cu974  Cu1051  2.677   .     S
H976   C1108   1.083   1_455 S
H996   C1106   1.084   1_455 S
H1000  C1031   1.083   .     S
O1003  C1093   1.292   1_455 S
O1007  C1026   1.292   .     S
O1010  C1101   1.296   1_455 S
O1011  C1024   1.298   .     S
C1015  O1086   1.289   .     A
C1015  C1018   1.448   .     S
C1015  O1159   1.292   .     S
C1016  H1069   1.083   .     S
C1017  C1026   1.448   .     S
C1017  C1049   1.407   .     A
C1018  C1048   1.407   .     A
C1018  C1094   1.399   .     S
C1019  C1021   1.416   .     A
C1019  N1080   1.367   .     A
C1019  H1076   1.082   .     S
C1020  N1079   1.365   .     A
C1020  H1077   1.080   .     S
C1020  C1022   1.417   .     A
C1021  H1070   1.082   .     S
C1021  N1079   1.367   .     A
C1022  N1080   1.367   .     A
C1022  H1071   1.082   .     S
C1023  O1090   1.295   .     A
C1023  C1025   1.469   .     S
C1023  O1166   1.296   .     S
C1024  O1091   1.294   .     A
C1024  C1027   1.470   .     S
C1025  C1032   1.400   .     A
C1025  C1030   1.400   .     A
C1026  O1087   1.289   .     A
C1027  C1033   1.399   .     A
C1027  C1031   1.400   .     A
C1028  C1030   1.391   .     A
C1028  C1036   1.403   .     A
C1028  H1152   1.084   .     S
C1029  H1075   1.083   .     S
C1029  C1038   1.403   .     A
C1029  C1031   1.395   .     A
C1030  H1132   1.083   .     S
C1032  C1034   1.406   .     A
C1032  H1073   1.077   .     S
C1033  C1035   1.405   .     A
C1033  H1072   1.079   .     S
C1034  C1039   1.428   .     A
C1034  C1036   1.418   .     A
C1035  C1040   1.422   .     A
C1035  C1038   1.413   .     A
C1036  C344    1.389   1_556 S
C1037  C1040   1.423   .     A
C1037  O1092   1.382   .     S
C1037  C1046   1.390   .     A
C1039  C1045   1.429   .     A
C1039  C338    1.423   1_556 S
C1041  O1092   1.412   .     S
C1041  H1055   1.114   .     S
C1041  H1056   1.107   .     S
C1041  H1057   1.113   .     S
C1042  H1060   1.109   .     S
C1042  H1059   1.113   .     S
C1042  H1058   1.113   .     S
C1042  O1082   1.410   .     S
C1043  H1061   1.109   .     S
C1043  O1083   1.412   .     S
C1043  H1062   1.115   .     S
C1043  H1063   1.111   .     S
C1044  H1065   1.115   .     S
C1044  H1066   1.110   .     S
C1044  O1084   1.411   .     S
C1044  H1067   1.111   .     S
C1045  C1047   1.396   .     A
C1045  O1082   1.382   .     S
C1046  H1053   1.082   .     S
C1047  H1064   1.085   .     S
C1047  C336    1.392   1_556 S
C1048  O1083   1.387   .     S
C1049  O1084   1.387   .     S
C1049  C1250   1.393   .     S
C1050  H1068   1.083   .     S
C1050  C1095   1.399   .     S
C1050  C1282   1.393   .     S
Cu1051 O1088   1.944   .     S
Cu1051 N1079   2.012   .     S
Cu1051 O1091   1.935   .     S
Cu1051 O1087   1.963   .     S
Cu1051 O1081   1.961   .     S
Cu1052 O1090   1.935   .     S
Cu1052 N1080   2.012   .     S
Cu1052 O1089   1.944   .     S
Cu1052 O1086   1.963   .     S
Cu1052 O1085   1.961   .     S
Cu1052 Cu1129  2.677   .     S
H1078  C1109   1.083   .     S
O1085  C1104   1.292   .     S
O1089  C1102   1.298   .     S
C1093  O1164   1.289   .     A
C1093  C1096   1.448   .     S
C1093  O1003   1.292   1_655 S
C1094  H1147   1.083   .     S
C1095  C1104   1.448   .     S
C1095  C1127   1.407   .     A
C1096  C1126   1.407   .     A
C1096  C938    1.399   1_655 S
C1097  C1099   1.416   .     A
C1097  N1158   1.367   .     A
C1097  H1154   1.082   .     S
C1098  N1157   1.365   .     A
C1098  H1155   1.080   .     S
C1098  C1100   1.417   .     A
C1099  H1148   1.082   .     S
C1099  N1157   1.367   .     A
C1100  N1158   1.367   .     A
C1100  H1149   1.082   .     S
C1101  O1168   1.295   .     A
C1101  C1103   1.469   .     S
C1101  O1010   1.296   1_655 S
C1102  O1169   1.294   .     A
C1102  C1105   1.470   .     S
C1103  C1110   1.400   .     A
C1103  C1108   1.400   .     A
C1104  O1165   1.289   .     A
C1105  C1111   1.399   .     A
C1105  C1109   1.400   .     A
C1106  C1108   1.391   .     A
C1106  C1114   1.403   .     A
C1106  H996    1.084   1_655 S
C1107  H1153   1.083   .     S
C1107  C1116   1.403   .     A
C1107  C1109   1.395   .     A
C1108  H976    1.083   1_655 S
C1110  C1112   1.406   .     A
C1110  H1151   1.077   .     S
C1111  C1113   1.405   .     A
C1111  H1150   1.079   .     S
C1112  C1117   1.428   .     A
C1112  C1114   1.418   .     A
C1113  C1118   1.422   .     A
C1113  C1116   1.413   .     A
C1114  C422    1.389   1_556 S
C1115  C1118   1.423   .     A
C1115  O1170   1.382   .     S
C1115  C1124   1.390   .     A
C1117  C1123   1.429   .     A
C1117  C416    1.423   1_556 S
C1119  O1170   1.412   .     S
C1119  H1133   1.114   .     S
C1119  H1134   1.107   .     S
C1119  H1135   1.113   .     S
C1120  H1138   1.109   .     S
C1120  H1137   1.113   .     S
C1120  H1136   1.113   .     S
C1120  O1160   1.410   .     S
C1121  H1139   1.109   .     S
C1121  O1161   1.412   .     S
C1121  H1140   1.115   .     S
C1121  H1141   1.111   .     S
C1122  H1143   1.115   .     S
C1122  H1144   1.110   .     S
C1122  O1162   1.411   .     S
C1122  H1145   1.111   .     S
C1123  C1125   1.396   .     A
C1123  O1160   1.382   .     S
C1124  H1131   1.082   .     S
C1125  H1142   1.085   .     S
C1125  C414    1.392   1_556 S
C1126  O1161   1.387   .     S
C1127  O1162   1.387   .     S
C1127  C1328   1.393   .     S
C1128  H1146   1.083   .     S
C1128  C939    1.399   1_655 S
C1128  C1360   1.393   .     S
Cu1129 O1166   1.944   .     S
Cu1129 N1157   2.012   .     S
Cu1129 O1169   1.935   .     S
Cu1129 O1165   1.963   .     S
Cu1129 O1159   1.961   .     S
Cu1130 O1168   1.935   .     S
Cu1130 N1158   2.012   .     S
Cu1130 O1167   1.944   .     S
Cu1130 O1164   1.963   .     S
Cu1130 O1163   1.961   .     S
Cu1130 Cu973   2.677   1_655 S
H1156  C953    1.083   1_655 S
O1163  C948    1.292   1_655 S
O1167  C946    1.298   1_655 S
C1171  O1242   1.289   .     A
C1171  C1174   1.448   .     S
C1171  O1315   1.292   .     S
C1172  H1225   1.083   .     S
C1172  C1330   1.399   1_455 S
C1173  C1182   1.448   .     S
C1173  C1205   1.407   .     A
C1173  C1362   1.399   1_455 S
C1174  C1204   1.407   .     A
C1174  C1250   1.399   .     S
C1175  C1177   1.416   .     A
C1175  N1236   1.367   .     A
C1175  H1232   1.082   .     S
C1176  N1235   1.365   .     A
C1176  H1233   1.080   .     S
C1176  C1178   1.417   .     A
C1177  H1226   1.082   .     S
C1177  N1235   1.367   .     A
C1178  N1236   1.367   .     A
C1178  H1227   1.082   .     S
C1179  O1246   1.295   .     A
C1179  C1181   1.469   .     S
C1179  O1322   1.296   .     S
C1180  O1247   1.294   .     A
C1180  C1183   1.470   .     S
C1180  O1401   1.298   1_455 S
C1181  C1188   1.400   .     A
C1181  C1186   1.400   .     A
C1182  O1243   1.289   .     A
C1182  O1397   1.292   1_455 S
C1183  C1189   1.399   .     A
C1183  C1187   1.400   .     A
C1184  C1186   1.391   .     A
C1184  C1192   1.403   .     A
C1184  H1308   1.084   .     S
C1185  H1231   1.083   .     S
C1185  C1194   1.403   .     A
C1185  C1187   1.395   .     A
C1186  H1288   1.083   .     S
C1187  H1390   1.083   1_455 S
C1188  C1190   1.406   .     A
C1188  H1229   1.077   .     S
C1189  C1191   1.405   .     A
C1189  H1228   1.079   .     S
C1190  C1195   1.428   .     A
C1190  C1192   1.418   .     A
C1191  C1196   1.422   .     A
C1191  C1194   1.413   .     A
C1192  C500    1.389   1_556 S
C1193  C1196   1.423   .     A
C1193  O1248   1.382   .     S
C1193  C1202   1.390   .     A
C1195  C1201   1.429   .     A
C1195  C494    1.423   1_556 S
C1197  O1248   1.412   .     S
C1197  H1211   1.114   .     S
C1197  H1212   1.107   .     S
C1197  H1213   1.113   .     S
C1198  H1216   1.109   .     S
C1198  H1215   1.113   .     S
C1198  H1214   1.113   .     S
C1198  O1238   1.410   .     S
C1199  H1217   1.109   .     S
C1199  O1239   1.412   .     S
C1199  H1218   1.115   .     S
C1199  H1219   1.111   .     S
C1200  H1221   1.115   .     S
C1200  H1222   1.110   .     S
C1200  O1240   1.411   .     S
C1200  H1223   1.111   .     S
C1201  C1203   1.396   .     A
C1201  O1238   1.382   .     S
C1202  H1209   1.082   .     S
C1203  H1220   1.085   .     S
C1203  C492    1.392   1_556 S
C1204  O1239   1.387   .     S
C1205  O1240   1.387   .     S
C1205  C704    1.393   1_565 S
C1206  H1224   1.083   .     S
C1206  C1251   1.399   .     S
C1206  C736    1.393   1_565 S
Cu1207 O1244   1.944   .     S
Cu1207 N1235   2.012   .     S
Cu1207 O1247   1.935   .     S
Cu1207 O1243   1.963   .     S
Cu1207 O1237   1.961   .     S
Cu1207 Cu1364  2.677   1_455 S
Cu1208 O1246   1.935   .     S
Cu1208 N1236   2.012   .     S
Cu1208 O1245   1.944   .     S
Cu1208 O1242   1.963   .     S
Cu1208 O1241   1.961   .     S
Cu1208 Cu1285  2.677   .     S
H1210  C1342   1.083   1_455 S
H1230  C1340   1.084   1_455 S
H1234  C1265   1.083   .     S
O1237  C1327   1.292   1_455 S
O1241  C1260   1.292   .     S
O1244  C1335   1.296   1_455 S
O1245  C1258   1.298   .     S
C1249  O1320   1.289   .     A
C1249  C1252   1.448   .     S
C1249  O1393   1.292   .     S
C1250  H1303   1.083   .     S
C1251  C1260   1.448   .     S
C1251  C1283   1.407   .     A
C1252  C1282   1.407   .     A
C1252  C1328   1.399   .     S
C1253  C1255   1.416   .     A
C1253  N1314   1.367   .     A
C1253  H1310   1.082   .     S
C1254  N1313   1.365   .     A
C1254  H1311   1.080   .     S
C1254  C1256   1.417   .     A
C1255  H1304   1.082   .     S
C1255  N1313   1.367   .     A
C1256  N1314   1.367   .     A
C1256  H1305   1.082   .     S
C1257  O1324   1.295   .     A
C1257  C1259   1.469   .     S
C1257  O1400   1.296   .     S
C1258  O1325   1.294   .     A
C1258  C1261   1.470   .     S
C1259  C1266   1.400   .     A
C1259  C1264   1.400   .     A
C1260  O1321   1.289   .     A
C1261  C1267   1.399   .     A
C1261  C1265   1.400   .     A
C1262  C1264   1.391   .     A
C1262  C1270   1.403   .     A
C1262  H1386   1.084   .     S
C1263  H1309   1.083   .     S
C1263  C1272   1.403   .     A
C1263  C1265   1.395   .     A
C1264  H1366   1.083   .     S
C1266  C1268   1.406   .     A
C1266  H1307   1.077   .     S
C1267  C1269   1.405   .     A
C1267  H1306   1.079   .     S
C1268  C1273   1.428   .     A
C1268  C1270   1.418   .     A
C1269  C1274   1.422   .     A
C1269  C1272   1.413   .     A
C1270  C578    1.389   1_556 S
C1271  C1274   1.423   .     A
C1271  O1326   1.382   .     S
C1271  C1280   1.390   .     A
C1273  C1279   1.429   .     A
C1273  C572    1.423   1_556 S
C1275  O1326   1.412   .     S
C1275  H1289   1.114   .     S
C1275  H1290   1.107   .     S
C1275  H1291   1.113   .     S
C1276  H1294   1.109   .     S
C1276  H1293   1.113   .     S
C1276  H1292   1.113   .     S
C1276  O1316   1.410   .     S
C1277  H1295   1.109   .     S
C1277  O1317   1.412   .     S
C1277  H1296   1.115   .     S
C1277  H1297   1.111   .     S
C1278  H1299   1.115   .     S
C1278  H1300   1.110   .     S
C1278  O1318   1.411   .     S
C1278  H1301   1.111   .     S
C1279  C1281   1.396   .     A
C1279  O1316   1.382   .     S
C1280  H1287   1.082   .     S
C1281  H1298   1.085   .     S
C1281  C570    1.392   1_556 S
C1282  O1317   1.387   .     S
C1283  O1318   1.387   .     S
C1283  C782    1.393   1_565 S
C1284  H1302   1.083   .     S
C1284  C1329   1.399   .     S
C1284  C814    1.393   1_565 S
Cu1285 O1322   1.944   .     S
Cu1285 N1313   2.012   .     S
Cu1285 O1325   1.935   .     S
Cu1285 O1321   1.963   .     S
Cu1285 O1315   1.961   .     S
Cu1286 O1324   1.935   .     S
Cu1286 N1314   2.012   .     S
Cu1286 O1323   1.944   .     S
Cu1286 O1320   1.963   .     S
Cu1286 O1319   1.961   .     S
Cu1286 Cu1363  2.677   .     S
H1312  C1343   1.083   .     S
O1319  C1338   1.292   .     S
O1323  C1336   1.298   .     S
C1327  O1398   1.289   .     A
C1327  C1330   1.448   .     S
C1327  O1237   1.292   1_655 S
C1328  H1381   1.083   .     S
C1329  C1338   1.448   .     S
C1329  C1361   1.407   .     A
C1330  C1360   1.407   .     A
C1330  C1172   1.399   1_655 S
C1331  C1333   1.416   .     A
C1331  N1392   1.367   .     A
C1331  H1388   1.082   .     S
C1332  N1391   1.365   .     A
C1332  H1389   1.080   .     S
C1332  C1334   1.417   .     A
C1333  H1382   1.082   .     S
C1333  N1391   1.367   .     A
C1334  N1392   1.367   .     A
C1334  H1383   1.082   .     S
C1335  O1402   1.295   .     A
C1335  C1337   1.469   .     S
C1335  O1244   1.296   1_655 S
C1336  O1403   1.294   .     A
C1336  C1339   1.470   .     S
C1337  C1344   1.400   .     A
C1337  C1342   1.400   .     A
C1338  O1399   1.289   .     A
C1339  C1345   1.399   .     A
C1339  C1343   1.400   .     A
C1340  C1342   1.391   .     A
C1340  C1348   1.403   .     A
C1340  H1230   1.084   1_655 S
C1341  H1387   1.083   .     S
C1341  C1350   1.403   .     A
C1341  C1343   1.395   .     A
C1342  H1210   1.083   1_655 S
C1344  C1346   1.406   .     A
C1344  H1385   1.077   .     S
C1345  C1347   1.405   .     A
C1345  H1384   1.079   .     S
C1346  C1351   1.428   .     A
C1346  C1348   1.418   .     A
C1347  C1352   1.422   .     A
C1347  C1350   1.413   .     A
C1348  C656    1.389   1_556 S
C1349  C1352   1.423   .     A
C1349  O1404   1.382   .     S
C1349  C1358   1.390   .     A
C1351  C1357   1.429   .     A
C1351  C650    1.423   1_556 S
C1353  O1404   1.412   .     S
C1353  H1367   1.114   .     S
C1353  H1368   1.107   .     S
C1353  H1369   1.113   .     S
C1354  H1372   1.109   .     S
C1354  H1371   1.113   .     S
C1354  H1370   1.113   .     S
C1354  O1394   1.410   .     S
C1355  H1373   1.109   .     S
C1355  O1395   1.412   .     S
C1355  H1374   1.115   .     S
C1355  H1375   1.111   .     S
C1356  H1377   1.115   .     S
C1356  H1378   1.110   .     S
C1356  O1396   1.411   .     S
C1356  H1379   1.111   .     S
C1357  C1359   1.396   .     A
C1357  O1394   1.382   .     S
C1358  H1365   1.082   .     S
C1359  H1376   1.085   .     S
C1359  C648    1.392   1_556 S
C1360  O1395   1.387   .     S
C1361  O1396   1.387   .     S
C1361  C860    1.393   1_565 S
C1362  H1380   1.083   .     S
C1362  C1173   1.399   1_655 S
C1362  C892    1.393   1_565 S
Cu1363 O1400   1.944   .     S
Cu1363 N1391   2.012   .     S
Cu1363 O1403   1.935   .     S
Cu1363 O1399   1.963   .     S
Cu1363 O1393   1.961   .     S
Cu1364 O1402   1.935   .     S
Cu1364 N1392   2.012   .     S
Cu1364 O1401   1.944   .     S
Cu1364 O1398   1.963   .     S
Cu1364 O1397   1.961   .     S
Cu1364 Cu1207  2.677   1_655 S
H1390  C1187   1.083   1_655 S
O1397  C1182   1.292   1_655 S
O1401  C1180   1.298   1_655 S
