data_str_m2_o2_o10_pcu_sym.199
_audit_creation_date              2020-01-03
_audit_creation_method            'Materials Studio'
_symmetry_space_group_name_H-M    'P1'
_symmetry_Int_Tables_number       1
_symmetry_cell_setting            triclinic
loop_
_symmetry_equiv_pos_as_xyz
  x,y,z
_cell_length_a                    26.1940
_cell_length_b                    30.2723
_cell_length_c                    27.7886
_cell_angle_alpha                 90.2375
_cell_angle_beta                  98.1281
_cell_angle_gamma                 90.3953
loop_
_atom_site_label
_atom_site_type_symbol
_atom_site_fract_x
_atom_site_fract_y
_atom_site_fract_z
_atom_site_U_iso_or_equiv
_atom_site_adp_type
_atom_site_occupancy
C1     C     0.16655   0.16497   0.24990   0.00000  Uiso   1.00
C2     C     0.16667   0.33505   0.25008   0.00000  Uiso   1.00
C3     C     0.20580   0.27176   0.05951   0.00000  Uiso   1.00
C4     C     0.14009   0.21714   0.44209   0.00000  Uiso   1.00
C5     C     0.20426   0.27222   0.10990   0.00000  Uiso   1.00
C6     C     0.13964   0.21845   0.39144   0.00000  Uiso   1.00
C7     C     0.13005   0.22628   0.09978   0.00000  Uiso   1.00
C8     C     0.19540   0.28066   0.39920   0.00000  Uiso   1.00
C9     C     0.12858   0.22750   0.04868   0.00000  Uiso   1.00
C10    C     0.19404   0.28195   0.44991   0.00000  Uiso   1.00
C11    C     0.16719   0.24964   0.02743   0.00000  Uiso   1.00
C12    C     0.16706   0.24954   0.47267   0.00000  Uiso   1.00
C13    C     0.06790   0.24997   0.23753   0.00000  Uiso   1.00
C14    C     0.26544   0.25007   0.26248   0.00000  Uiso   1.00
C15    C     0.01257   0.24996   0.23069   0.00000  Uiso   1.00
C16    C     0.32076   0.25013   0.26933   0.00000  Uiso   1.00
C17    C     0.14913   0.04773   0.28817   0.00000  Uiso   1.00
C18    C     0.15162   0.45213   0.20661   0.00000  Uiso   1.00
C19    C     0.14950   0.09364   0.28829   0.00000  Uiso   1.00
C20    C     0.15205   0.40623   0.20664   0.00000  Uiso   1.00
C21    C     0.16631   0.11675   0.24976   0.00000  Uiso   1.00
C22    C     0.16651   0.38331   0.25013   0.00000  Uiso   1.00
C23    C     0.18303   0.09349   0.21125   0.00000  Uiso   1.00
C24    C     0.18083   0.40685   0.29354   0.00000  Uiso   1.00
C25    C     0.18327   0.04757   0.21142   0.00000  Uiso   1.00
C26    C     0.18104   0.45277   0.29341   0.00000  Uiso   1.00
C27    C     0.16621   0.02433   0.24984   0.00000  Uiso   1.00
C28    C     0.16629   0.47577   0.24996   0.00000  Uiso   1.00
Cu29   Cu    0.16667   0.24999   0.29822   0.00000  Uiso   1.00
Cu30   Cu    0.16667   0.25000   0.20179   0.00000  Uiso   1.00
H31    H     0.32580   0.24982   0.19368   0.00000  Uiso   1.00
H32    H     0.00752   0.25029   0.30635   0.00000  Uiso   1.00
H33    H     0.13495   0.03056   0.31778   0.00000  Uiso   1.00
H34    H     0.13924   0.46910   0.17278   0.00000  Uiso   1.00
H35    H     0.13602   0.11104   0.31817   0.00000  Uiso   1.00
H36    H     0.14043   0.38870   0.17276   0.00000  Uiso   1.00
H37    H     0.19673   0.11076   0.18145   0.00000  Uiso   1.00
H38    H     0.19252   0.38982   0.32746   0.00000  Uiso   1.00
H39    H     0.19747   0.03028   0.18186   0.00000  Uiso   1.00
H40    H     0.19335   0.47026   0.32717   0.00000  Uiso   1.00
H41    H     0.23760   0.28851   0.04634   0.00000  Uiso   1.00
H42    H     0.11958   0.19041   0.45672   0.00000  Uiso   1.00
H43    H     0.23375   0.29008   0.13358   0.00000  Uiso   1.00
H44    H     0.11797   0.19371   0.36874   0.00000  Uiso   1.00
H45    H     0.09670   0.21156   0.02618   0.00000  Uiso   1.00
H46    H     0.21360   0.30879   0.47080   0.00000  Uiso   1.00
N47    N     0.16667   0.25001   0.12935   0.00000  Uiso   1.00
N48    N     0.16667   0.24999   0.37066   0.00000  Uiso   1.00
O49    O     0.16667   0.18572   0.29072   0.00000  Uiso   1.00
O50    O     0.16666   0.31427   0.20929   0.00000  Uiso   1.00
O51    O     0.16667   0.18573   0.20928   0.00000  Uiso   1.00
O52    O     0.16666   0.31427   0.29072   0.00000  Uiso   1.00
O53    O     0.09161   0.24999   0.28132   0.00000  Uiso   1.00
O54    O     0.24172   0.25000   0.21868   0.00000  Uiso   1.00
O55    O     0.09161   0.25000   0.19989   0.00000  Uiso   1.00
O56    O     0.24172   0.25000   0.30012   0.00000  Uiso   1.00
O57    O     0.09271   0.20341   0.12033   0.00000  Uiso   1.00
C58    C     0.09420   0.15807   0.10858   0.00000  Uiso   1.00
H59    H     0.07341   0.13933   0.13413   0.00000  Uiso   1.00
H60    H     0.13432   0.14518   0.11256   0.00000  Uiso   1.00
H61    H     0.07406   0.15159   0.07128   0.00000  Uiso   1.00
O62    O     0.22305   0.31205   0.37745   0.00000  Uiso   1.00
C63    C     0.27609   0.30847   0.39513   0.00000  Uiso   1.00
H64    H     0.29816   0.32719   0.37057   0.00000  Uiso   1.00
H65    H     0.28955   0.27360   0.39539   0.00000  Uiso   1.00
H66    H     0.28517   0.32344   0.43193   0.00000  Uiso   1.00
C67    C     0.49988   0.16497   0.24990   0.00000  Uiso   1.00
C68    C     0.50000   0.33505   0.25008   0.00000  Uiso   1.00
C69    C     0.53914   0.27176   0.05951   0.00000  Uiso   1.00
C70    C     0.47343   0.21714   0.44209   0.00000  Uiso   1.00
C71    C     0.53759   0.27222   0.10990   0.00000  Uiso   1.00
C72    C     0.47297   0.21845   0.39144   0.00000  Uiso   1.00
C73    C     0.46339   0.22628   0.09978   0.00000  Uiso   1.00
C74    C     0.52873   0.28066   0.39920   0.00000  Uiso   1.00
C75    C     0.46192   0.22750   0.04868   0.00000  Uiso   1.00
C76    C     0.52738   0.28195   0.44991   0.00000  Uiso   1.00
C77    C     0.50053   0.24964   0.02743   0.00000  Uiso   1.00
C78    C     0.50040   0.24954   0.47267   0.00000  Uiso   1.00
C79    C     0.40123   0.24997   0.23753   0.00000  Uiso   1.00
C80    C     0.59877   0.25007   0.26248   0.00000  Uiso   1.00
C81    C     0.34591   0.24996   0.23069   0.00000  Uiso   1.00
C82    C     0.65409   0.25013   0.26933   0.00000  Uiso   1.00
C83    C     0.48247   0.04773   0.28817   0.00000  Uiso   1.00
C84    C     0.48496   0.45213   0.20661   0.00000  Uiso   1.00
C85    C     0.48284   0.09364   0.28829   0.00000  Uiso   1.00
C86    C     0.48538   0.40623   0.20664   0.00000  Uiso   1.00
C87    C     0.49965   0.11675   0.24976   0.00000  Uiso   1.00
C88    C     0.49984   0.38331   0.25013   0.00000  Uiso   1.00
C89    C     0.51636   0.09349   0.21125   0.00000  Uiso   1.00
C90    C     0.51416   0.40685   0.29354   0.00000  Uiso   1.00
C91    C     0.51660   0.04757   0.21142   0.00000  Uiso   1.00
C92    C     0.51438   0.45277   0.29341   0.00000  Uiso   1.00
C93    C     0.49955   0.02433   0.24984   0.00000  Uiso   1.00
C94    C     0.49963   0.47577   0.24996   0.00000  Uiso   1.00
Cu95   Cu    0.50000   0.24999   0.29822   0.00000  Uiso   1.00
Cu96   Cu    0.50000   0.25000   0.20179   0.00000  Uiso   1.00
H97    H     0.65913   0.24982   0.19368   0.00000  Uiso   1.00
H98    H     0.34086   0.25029   0.30635   0.00000  Uiso   1.00
H99    H     0.46828   0.03056   0.31778   0.00000  Uiso   1.00
H100   H     0.47257   0.46910   0.17278   0.00000  Uiso   1.00
H101   H     0.46935   0.11104   0.31817   0.00000  Uiso   1.00
H102   H     0.47376   0.38870   0.17276   0.00000  Uiso   1.00
H103   H     0.53006   0.11076   0.18145   0.00000  Uiso   1.00
H104   H     0.52585   0.38982   0.32746   0.00000  Uiso   1.00
H105   H     0.53081   0.03028   0.18186   0.00000  Uiso   1.00
H106   H     0.52669   0.47026   0.32717   0.00000  Uiso   1.00
H107   H     0.57093   0.28851   0.04634   0.00000  Uiso   1.00
H108   H     0.45292   0.19041   0.45672   0.00000  Uiso   1.00
H109   H     0.56709   0.29008   0.13358   0.00000  Uiso   1.00
H110   H     0.45130   0.19371   0.36874   0.00000  Uiso   1.00
H111   H     0.43003   0.21156   0.02618   0.00000  Uiso   1.00
H112   H     0.54694   0.30879   0.47080   0.00000  Uiso   1.00
N113   N     0.50000   0.25001   0.12935   0.00000  Uiso   1.00
N114   N     0.50000   0.24999   0.37066   0.00000  Uiso   1.00
O115   O     0.50000   0.18572   0.29072   0.00000  Uiso   1.00
O116   O     0.50000   0.31427   0.20929   0.00000  Uiso   1.00
O117   O     0.50000   0.18573   0.20928   0.00000  Uiso   1.00
O118   O     0.50000   0.31427   0.29072   0.00000  Uiso   1.00
O119   O     0.42495   0.24999   0.28132   0.00000  Uiso   1.00
O120   O     0.57505   0.25000   0.21868   0.00000  Uiso   1.00
O121   O     0.42495   0.25000   0.19989   0.00000  Uiso   1.00
O122   O     0.57505   0.25000   0.30012   0.00000  Uiso   1.00
O123   O     0.42604   0.20341   0.12033   0.00000  Uiso   1.00
C124   C     0.42754   0.15807   0.10858   0.00000  Uiso   1.00
H125   H     0.40675   0.13933   0.13413   0.00000  Uiso   1.00
H126   H     0.46766   0.14518   0.11256   0.00000  Uiso   1.00
H127   H     0.40740   0.15159   0.07128   0.00000  Uiso   1.00
O128   O     0.55638   0.31205   0.37745   0.00000  Uiso   1.00
C129   C     0.60942   0.30847   0.39513   0.00000  Uiso   1.00
H130   H     0.63149   0.32719   0.37057   0.00000  Uiso   1.00
H131   H     0.62289   0.27360   0.39539   0.00000  Uiso   1.00
H132   H     0.61850   0.32344   0.43193   0.00000  Uiso   1.00
C133   C     0.83321   0.16497   0.24990   0.00000  Uiso   1.00
C134   C     0.83334   0.33505   0.25008   0.00000  Uiso   1.00
C135   C     0.87247   0.27176   0.05951   0.00000  Uiso   1.00
C136   C     0.80676   0.21714   0.44209   0.00000  Uiso   1.00
C137   C     0.87092   0.27222   0.10990   0.00000  Uiso   1.00
C138   C     0.80631   0.21845   0.39144   0.00000  Uiso   1.00
C139   C     0.79672   0.22628   0.09978   0.00000  Uiso   1.00
C140   C     0.86207   0.28066   0.39920   0.00000  Uiso   1.00
C141   C     0.79525   0.22750   0.04868   0.00000  Uiso   1.00
C142   C     0.86071   0.28195   0.44991   0.00000  Uiso   1.00
C143   C     0.83386   0.24964   0.02743   0.00000  Uiso   1.00
C144   C     0.83373   0.24954   0.47267   0.00000  Uiso   1.00
C145   C     0.73456   0.24997   0.23753   0.00000  Uiso   1.00
C146   C     0.93210   0.25007   0.26248   0.00000  Uiso   1.00
C147   C     0.67924   0.24996   0.23069   0.00000  Uiso   1.00
C148   C     0.98743   0.25013   0.26933   0.00000  Uiso   1.00
C149   C     0.81580   0.04773   0.28817   0.00000  Uiso   1.00
C150   C     0.81829   0.45213   0.20661   0.00000  Uiso   1.00
C151   C     0.81617   0.09364   0.28829   0.00000  Uiso   1.00
C152   C     0.81871   0.40623   0.20664   0.00000  Uiso   1.00
C153   C     0.83298   0.11675   0.24976   0.00000  Uiso   1.00
C154   C     0.83317   0.38331   0.25013   0.00000  Uiso   1.00
C155   C     0.84969   0.09349   0.21125   0.00000  Uiso   1.00
C156   C     0.84749   0.40685   0.29354   0.00000  Uiso   1.00
C157   C     0.84994   0.04757   0.21142   0.00000  Uiso   1.00
C158   C     0.84771   0.45277   0.29341   0.00000  Uiso   1.00
C159   C     0.83288   0.02433   0.24984   0.00000  Uiso   1.00
C160   C     0.83296   0.47577   0.24996   0.00000  Uiso   1.00
Cu161  Cu    0.83333   0.24999   0.29822   0.00000  Uiso   1.00
Cu162  Cu    0.83333   0.25000   0.20179   0.00000  Uiso   1.00
H163   H     0.99246   0.24982   0.19368   0.00000  Uiso   1.00
H164   H     0.67419   0.25029   0.30635   0.00000  Uiso   1.00
H165   H     0.80161   0.03056   0.31778   0.00000  Uiso   1.00
H166   H     0.80590   0.46910   0.17278   0.00000  Uiso   1.00
H167   H     0.80269   0.11104   0.31817   0.00000  Uiso   1.00
H168   H     0.80709   0.38870   0.17276   0.00000  Uiso   1.00
H169   H     0.86340   0.11076   0.18145   0.00000  Uiso   1.00
H170   H     0.85919   0.38982   0.32746   0.00000  Uiso   1.00
H171   H     0.86414   0.03028   0.18186   0.00000  Uiso   1.00
H172   H     0.86002   0.47026   0.32717   0.00000  Uiso   1.00
H173   H     0.90427   0.28851   0.04634   0.00000  Uiso   1.00
H174   H     0.78625   0.19041   0.45672   0.00000  Uiso   1.00
H175   H     0.90042   0.29008   0.13358   0.00000  Uiso   1.00
H176   H     0.78464   0.19371   0.36874   0.00000  Uiso   1.00
H177   H     0.76337   0.21156   0.02618   0.00000  Uiso   1.00
H178   H     0.88027   0.30879   0.47080   0.00000  Uiso   1.00
N179   N     0.83333   0.25001   0.12935   0.00000  Uiso   1.00
N180   N     0.83333   0.24999   0.37066   0.00000  Uiso   1.00
O181   O     0.83334   0.18572   0.29072   0.00000  Uiso   1.00
O182   O     0.83333   0.31427   0.20929   0.00000  Uiso   1.00
O183   O     0.83334   0.18573   0.20928   0.00000  Uiso   1.00
O184   O     0.83333   0.31427   0.29072   0.00000  Uiso   1.00
O185   O     0.75828   0.24999   0.28132   0.00000  Uiso   1.00
O186   O     0.90839   0.25000   0.21868   0.00000  Uiso   1.00
O187   O     0.75828   0.25000   0.19989   0.00000  Uiso   1.00
O188   O     0.90839   0.25000   0.30012   0.00000  Uiso   1.00
O189   O     0.75937   0.20341   0.12033   0.00000  Uiso   1.00
C190   C     0.76087   0.15807   0.10858   0.00000  Uiso   1.00
H191   H     0.74008   0.13933   0.13413   0.00000  Uiso   1.00
H192   H     0.80099   0.14518   0.11256   0.00000  Uiso   1.00
H193   H     0.74073   0.15159   0.07128   0.00000  Uiso   1.00
O194   O     0.88972   0.31205   0.37745   0.00000  Uiso   1.00
C195   C     0.94276   0.30847   0.39513   0.00000  Uiso   1.00
H196   H     0.96482   0.32719   0.37057   0.00000  Uiso   1.00
H197   H     0.95622   0.27360   0.39539   0.00000  Uiso   1.00
H198   H     0.95184   0.32344   0.43193   0.00000  Uiso   1.00
C199   C     0.16655   0.66497   0.24990   0.00000  Uiso   1.00
C200   C     0.16667   0.83505   0.25008   0.00000  Uiso   1.00
C201   C     0.20580   0.77176   0.05951   0.00000  Uiso   1.00
C202   C     0.14009   0.71714   0.44209   0.00000  Uiso   1.00
C203   C     0.20426   0.77222   0.10990   0.00000  Uiso   1.00
C204   C     0.13964   0.71845   0.39144   0.00000  Uiso   1.00
C205   C     0.13005   0.72628   0.09978   0.00000  Uiso   1.00
C206   C     0.19540   0.78066   0.39920   0.00000  Uiso   1.00
C207   C     0.12858   0.72750   0.04868   0.00000  Uiso   1.00
C208   C     0.19404   0.78195   0.44991   0.00000  Uiso   1.00
C209   C     0.16719   0.74964   0.02743   0.00000  Uiso   1.00
C210   C     0.16706   0.74954   0.47267   0.00000  Uiso   1.00
C211   C     0.06790   0.74997   0.23753   0.00000  Uiso   1.00
C212   C     0.26544   0.75007   0.26248   0.00000  Uiso   1.00
C213   C     0.01257   0.74996   0.23069   0.00000  Uiso   1.00
C214   C     0.32076   0.75013   0.26933   0.00000  Uiso   1.00
C215   C     0.14913   0.54773   0.28817   0.00000  Uiso   1.00
C216   C     0.15162   0.95213   0.20661   0.00000  Uiso   1.00
C217   C     0.14950   0.59364   0.28829   0.00000  Uiso   1.00
C218   C     0.15205   0.90623   0.20664   0.00000  Uiso   1.00
C219   C     0.16631   0.61675   0.24976   0.00000  Uiso   1.00
C220   C     0.16651   0.88331   0.25013   0.00000  Uiso   1.00
C221   C     0.18303   0.59349   0.21125   0.00000  Uiso   1.00
C222   C     0.18083   0.90685   0.29354   0.00000  Uiso   1.00
C223   C     0.18327   0.54757   0.21142   0.00000  Uiso   1.00
C224   C     0.18104   0.95277   0.29341   0.00000  Uiso   1.00
C225   C     0.16621   0.52433   0.24984   0.00000  Uiso   1.00
C226   C     0.16629   0.97577   0.24996   0.00000  Uiso   1.00
Cu227  Cu    0.16667   0.74999   0.29822   0.00000  Uiso   1.00
Cu228  Cu    0.16667   0.75000   0.20179   0.00000  Uiso   1.00
H229   H     0.32580   0.74982   0.19368   0.00000  Uiso   1.00
H230   H     0.00752   0.75029   0.30635   0.00000  Uiso   1.00
H231   H     0.13495   0.53056   0.31778   0.00000  Uiso   1.00
H232   H     0.13924   0.96910   0.17278   0.00000  Uiso   1.00
H233   H     0.13602   0.61104   0.31817   0.00000  Uiso   1.00
H234   H     0.14043   0.88870   0.17276   0.00000  Uiso   1.00
H235   H     0.19673   0.61076   0.18145   0.00000  Uiso   1.00
H236   H     0.19252   0.88982   0.32746   0.00000  Uiso   1.00
H237   H     0.19747   0.53028   0.18186   0.00000  Uiso   1.00
H238   H     0.19335   0.97026   0.32717   0.00000  Uiso   1.00
H239   H     0.23760   0.78851   0.04634   0.00000  Uiso   1.00
H240   H     0.11958   0.69041   0.45672   0.00000  Uiso   1.00
H241   H     0.23375   0.79008   0.13358   0.00000  Uiso   1.00
H242   H     0.11797   0.69371   0.36874   0.00000  Uiso   1.00
H243   H     0.09670   0.71156   0.02618   0.00000  Uiso   1.00
H244   H     0.21360   0.80879   0.47080   0.00000  Uiso   1.00
N245   N     0.16667   0.75001   0.12935   0.00000  Uiso   1.00
N246   N     0.16667   0.74999   0.37066   0.00000  Uiso   1.00
O247   O     0.16667   0.68572   0.29072   0.00000  Uiso   1.00
O248   O     0.16666   0.81427   0.20929   0.00000  Uiso   1.00
O249   O     0.16667   0.68573   0.20928   0.00000  Uiso   1.00
O250   O     0.16666   0.81427   0.29072   0.00000  Uiso   1.00
O251   O     0.09161   0.74999   0.28132   0.00000  Uiso   1.00
O252   O     0.24172   0.75000   0.21868   0.00000  Uiso   1.00
O253   O     0.09161   0.75000   0.19989   0.00000  Uiso   1.00
O254   O     0.24172   0.75000   0.30012   0.00000  Uiso   1.00
O255   O     0.09271   0.70341   0.12033   0.00000  Uiso   1.00
C256   C     0.09420   0.65807   0.10858   0.00000  Uiso   1.00
H257   H     0.07341   0.63933   0.13413   0.00000  Uiso   1.00
H258   H     0.13432   0.64518   0.11256   0.00000  Uiso   1.00
H259   H     0.07406   0.65159   0.07128   0.00000  Uiso   1.00
O260   O     0.22305   0.81205   0.37745   0.00000  Uiso   1.00
C261   C     0.27609   0.80847   0.39513   0.00000  Uiso   1.00
H262   H     0.29816   0.82719   0.37057   0.00000  Uiso   1.00
H263   H     0.28955   0.77360   0.39539   0.00000  Uiso   1.00
H264   H     0.28517   0.82344   0.43193   0.00000  Uiso   1.00
C265   C     0.49988   0.66497   0.24990   0.00000  Uiso   1.00
C266   C     0.50000   0.83505   0.25008   0.00000  Uiso   1.00
C267   C     0.53914   0.77176   0.05951   0.00000  Uiso   1.00
C268   C     0.47343   0.71714   0.44209   0.00000  Uiso   1.00
C269   C     0.53759   0.77222   0.10990   0.00000  Uiso   1.00
C270   C     0.47297   0.71845   0.39144   0.00000  Uiso   1.00
C271   C     0.46339   0.72628   0.09978   0.00000  Uiso   1.00
C272   C     0.52873   0.78066   0.39920   0.00000  Uiso   1.00
C273   C     0.46192   0.72750   0.04868   0.00000  Uiso   1.00
C274   C     0.52738   0.78195   0.44991   0.00000  Uiso   1.00
C275   C     0.50053   0.74964   0.02743   0.00000  Uiso   1.00
C276   C     0.50040   0.74954   0.47267   0.00000  Uiso   1.00
C277   C     0.40123   0.74997   0.23753   0.00000  Uiso   1.00
C278   C     0.59877   0.75007   0.26248   0.00000  Uiso   1.00
C279   C     0.34591   0.74996   0.23069   0.00000  Uiso   1.00
C280   C     0.65409   0.75013   0.26933   0.00000  Uiso   1.00
C281   C     0.48247   0.54773   0.28817   0.00000  Uiso   1.00
C282   C     0.48496   0.95213   0.20661   0.00000  Uiso   1.00
C283   C     0.48284   0.59364   0.28829   0.00000  Uiso   1.00
C284   C     0.48538   0.90623   0.20664   0.00000  Uiso   1.00
C285   C     0.49965   0.61675   0.24976   0.00000  Uiso   1.00
C286   C     0.49984   0.88331   0.25013   0.00000  Uiso   1.00
C287   C     0.51636   0.59349   0.21125   0.00000  Uiso   1.00
C288   C     0.51416   0.90685   0.29354   0.00000  Uiso   1.00
C289   C     0.51660   0.54757   0.21142   0.00000  Uiso   1.00
C290   C     0.51438   0.95277   0.29341   0.00000  Uiso   1.00
C291   C     0.49955   0.52433   0.24984   0.00000  Uiso   1.00
C292   C     0.49963   0.97577   0.24996   0.00000  Uiso   1.00
Cu293  Cu    0.50000   0.74999   0.29822   0.00000  Uiso   1.00
Cu294  Cu    0.50000   0.75000   0.20179   0.00000  Uiso   1.00
H295   H     0.65913   0.74982   0.19368   0.00000  Uiso   1.00
H296   H     0.34086   0.75029   0.30635   0.00000  Uiso   1.00
H297   H     0.46828   0.53056   0.31778   0.00000  Uiso   1.00
H298   H     0.47257   0.96910   0.17278   0.00000  Uiso   1.00
H299   H     0.46935   0.61104   0.31817   0.00000  Uiso   1.00
H300   H     0.47376   0.88870   0.17276   0.00000  Uiso   1.00
H301   H     0.53006   0.61076   0.18145   0.00000  Uiso   1.00
H302   H     0.52585   0.88982   0.32746   0.00000  Uiso   1.00
H303   H     0.53081   0.53028   0.18186   0.00000  Uiso   1.00
H304   H     0.52669   0.97026   0.32717   0.00000  Uiso   1.00
H305   H     0.57093   0.78851   0.04634   0.00000  Uiso   1.00
H306   H     0.45292   0.69041   0.45672   0.00000  Uiso   1.00
H307   H     0.56709   0.79008   0.13358   0.00000  Uiso   1.00
H308   H     0.45130   0.69371   0.36874   0.00000  Uiso   1.00
H309   H     0.43003   0.71156   0.02618   0.00000  Uiso   1.00
H310   H     0.54694   0.80879   0.47080   0.00000  Uiso   1.00
N311   N     0.50000   0.75001   0.12935   0.00000  Uiso   1.00
N312   N     0.50000   0.74999   0.37066   0.00000  Uiso   1.00
O313   O     0.50000   0.68572   0.29072   0.00000  Uiso   1.00
O314   O     0.50000   0.81427   0.20929   0.00000  Uiso   1.00
O315   O     0.50000   0.68573   0.20928   0.00000  Uiso   1.00
O316   O     0.50000   0.81427   0.29072   0.00000  Uiso   1.00
O317   O     0.42495   0.74999   0.28132   0.00000  Uiso   1.00
O318   O     0.57505   0.75000   0.21868   0.00000  Uiso   1.00
O319   O     0.42495   0.75000   0.19989   0.00000  Uiso   1.00
O320   O     0.57505   0.75000   0.30012   0.00000  Uiso   1.00
O321   O     0.42604   0.70341   0.12033   0.00000  Uiso   1.00
C322   C     0.42754   0.65807   0.10858   0.00000  Uiso   1.00
H323   H     0.40675   0.63933   0.13413   0.00000  Uiso   1.00
H324   H     0.46766   0.64518   0.11256   0.00000  Uiso   1.00
H325   H     0.40740   0.65159   0.07128   0.00000  Uiso   1.00
O326   O     0.55638   0.81205   0.37745   0.00000  Uiso   1.00
C327   C     0.60942   0.80847   0.39513   0.00000  Uiso   1.00
H328   H     0.63149   0.82719   0.37057   0.00000  Uiso   1.00
H329   H     0.62289   0.77360   0.39539   0.00000  Uiso   1.00
H330   H     0.61850   0.82344   0.43193   0.00000  Uiso   1.00
C331   C     0.83321   0.66497   0.24990   0.00000  Uiso   1.00
C332   C     0.83334   0.83505   0.25008   0.00000  Uiso   1.00
C333   C     0.87247   0.77176   0.05951   0.00000  Uiso   1.00
C334   C     0.80676   0.71714   0.44209   0.00000  Uiso   1.00
C335   C     0.87092   0.77222   0.10990   0.00000  Uiso   1.00
C336   C     0.80631   0.71845   0.39144   0.00000  Uiso   1.00
C337   C     0.79672   0.72628   0.09978   0.00000  Uiso   1.00
C338   C     0.86207   0.78066   0.39920   0.00000  Uiso   1.00
C339   C     0.79525   0.72750   0.04868   0.00000  Uiso   1.00
C340   C     0.86071   0.78195   0.44991   0.00000  Uiso   1.00
C341   C     0.83386   0.74964   0.02743   0.00000  Uiso   1.00
C342   C     0.83373   0.74954   0.47267   0.00000  Uiso   1.00
C343   C     0.73456   0.74997   0.23753   0.00000  Uiso   1.00
C344   C     0.93210   0.75007   0.26248   0.00000  Uiso   1.00
C345   C     0.67924   0.74996   0.23069   0.00000  Uiso   1.00
C346   C     0.98743   0.75013   0.26933   0.00000  Uiso   1.00
C347   C     0.81580   0.54773   0.28817   0.00000  Uiso   1.00
C348   C     0.81829   0.95213   0.20661   0.00000  Uiso   1.00
C349   C     0.81617   0.59364   0.28829   0.00000  Uiso   1.00
C350   C     0.81871   0.90623   0.20664   0.00000  Uiso   1.00
C351   C     0.83298   0.61675   0.24976   0.00000  Uiso   1.00
C352   C     0.83317   0.88331   0.25013   0.00000  Uiso   1.00
C353   C     0.84969   0.59349   0.21125   0.00000  Uiso   1.00
C354   C     0.84749   0.90685   0.29354   0.00000  Uiso   1.00
C355   C     0.84994   0.54757   0.21142   0.00000  Uiso   1.00
C356   C     0.84771   0.95277   0.29341   0.00000  Uiso   1.00
C357   C     0.83288   0.52433   0.24984   0.00000  Uiso   1.00
C358   C     0.83296   0.97577   0.24996   0.00000  Uiso   1.00
Cu359  Cu    0.83333   0.74999   0.29822   0.00000  Uiso   1.00
Cu360  Cu    0.83333   0.75000   0.20179   0.00000  Uiso   1.00
H361   H     0.99246   0.74982   0.19368   0.00000  Uiso   1.00
H362   H     0.67419   0.75029   0.30635   0.00000  Uiso   1.00
H363   H     0.80161   0.53056   0.31778   0.00000  Uiso   1.00
H364   H     0.80590   0.96910   0.17278   0.00000  Uiso   1.00
H365   H     0.80269   0.61104   0.31817   0.00000  Uiso   1.00
H366   H     0.80709   0.88870   0.17276   0.00000  Uiso   1.00
H367   H     0.86340   0.61076   0.18145   0.00000  Uiso   1.00
H368   H     0.85919   0.88982   0.32746   0.00000  Uiso   1.00
H369   H     0.86414   0.53028   0.18186   0.00000  Uiso   1.00
H370   H     0.86002   0.97026   0.32717   0.00000  Uiso   1.00
H371   H     0.90427   0.78851   0.04634   0.00000  Uiso   1.00
H372   H     0.78625   0.69041   0.45672   0.00000  Uiso   1.00
H373   H     0.90042   0.79008   0.13358   0.00000  Uiso   1.00
H374   H     0.78464   0.69371   0.36874   0.00000  Uiso   1.00
H375   H     0.76337   0.71156   0.02618   0.00000  Uiso   1.00
H376   H     0.88027   0.80879   0.47080   0.00000  Uiso   1.00
N377   N     0.83333   0.75001   0.12935   0.00000  Uiso   1.00
N378   N     0.83333   0.74999   0.37066   0.00000  Uiso   1.00
O379   O     0.83334   0.68572   0.29072   0.00000  Uiso   1.00
O380   O     0.83333   0.81427   0.20929   0.00000  Uiso   1.00
O381   O     0.83334   0.68573   0.20928   0.00000  Uiso   1.00
O382   O     0.83333   0.81427   0.29072   0.00000  Uiso   1.00
O383   O     0.75828   0.74999   0.28132   0.00000  Uiso   1.00
O384   O     0.90839   0.75000   0.21868   0.00000  Uiso   1.00
O385   O     0.75828   0.75000   0.19989   0.00000  Uiso   1.00
O386   O     0.90839   0.75000   0.30012   0.00000  Uiso   1.00
O387   O     0.75937   0.70341   0.12033   0.00000  Uiso   1.00
C388   C     0.76087   0.65807   0.10858   0.00000  Uiso   1.00
H389   H     0.74008   0.63933   0.13413   0.00000  Uiso   1.00
H390   H     0.80099   0.64518   0.11256   0.00000  Uiso   1.00
H391   H     0.74073   0.65159   0.07128   0.00000  Uiso   1.00
O392   O     0.88972   0.81205   0.37745   0.00000  Uiso   1.00
C393   C     0.94276   0.80847   0.39513   0.00000  Uiso   1.00
H394   H     0.96482   0.82719   0.37057   0.00000  Uiso   1.00
H395   H     0.95622   0.77360   0.39539   0.00000  Uiso   1.00
H396   H     0.95184   0.82344   0.43193   0.00000  Uiso   1.00
C397   C     0.16655   0.16497   0.74990   0.00000  Uiso   1.00
C398   C     0.16667   0.33505   0.75008   0.00000  Uiso   1.00
C399   C     0.20580   0.27176   0.55951   0.00000  Uiso   1.00
C400   C     0.14009   0.21714   0.94209   0.00000  Uiso   1.00
C401   C     0.20426   0.27222   0.60990   0.00000  Uiso   1.00
C402   C     0.13964   0.21845   0.89144   0.00000  Uiso   1.00
C403   C     0.13005   0.22628   0.59978   0.00000  Uiso   1.00
C404   C     0.19540   0.28066   0.89920   0.00000  Uiso   1.00
C405   C     0.12858   0.22750   0.54868   0.00000  Uiso   1.00
C406   C     0.19404   0.28195   0.94991   0.00000  Uiso   1.00
C407   C     0.16719   0.24964   0.52743   0.00000  Uiso   1.00
C408   C     0.16706   0.24954   0.97267   0.00000  Uiso   1.00
C409   C     0.06790   0.24997   0.73753   0.00000  Uiso   1.00
C410   C     0.26544   0.25007   0.76248   0.00000  Uiso   1.00
C411   C     0.01257   0.24996   0.73069   0.00000  Uiso   1.00
C412   C     0.32076   0.25013   0.76933   0.00000  Uiso   1.00
C413   C     0.14913   0.04773   0.78817   0.00000  Uiso   1.00
C414   C     0.15162   0.45213   0.70661   0.00000  Uiso   1.00
C415   C     0.14950   0.09364   0.78829   0.00000  Uiso   1.00
C416   C     0.15205   0.40623   0.70664   0.00000  Uiso   1.00
C417   C     0.16631   0.11675   0.74976   0.00000  Uiso   1.00
C418   C     0.16651   0.38331   0.75013   0.00000  Uiso   1.00
C419   C     0.18303   0.09349   0.71125   0.00000  Uiso   1.00
C420   C     0.18083   0.40685   0.79354   0.00000  Uiso   1.00
C421   C     0.18327   0.04757   0.71142   0.00000  Uiso   1.00
C422   C     0.18104   0.45277   0.79341   0.00000  Uiso   1.00
C423   C     0.16621   0.02433   0.74984   0.00000  Uiso   1.00
C424   C     0.16629   0.47577   0.74996   0.00000  Uiso   1.00
Cu425  Cu    0.16667   0.24999   0.79822   0.00000  Uiso   1.00
Cu426  Cu    0.16667   0.25000   0.70179   0.00000  Uiso   1.00
H427   H     0.32580   0.24982   0.69368   0.00000  Uiso   1.00
H428   H     0.00752   0.25029   0.80635   0.00000  Uiso   1.00
H429   H     0.13495   0.03056   0.81778   0.00000  Uiso   1.00
H430   H     0.13924   0.46910   0.67278   0.00000  Uiso   1.00
H431   H     0.13602   0.11104   0.81817   0.00000  Uiso   1.00
H432   H     0.14043   0.38870   0.67276   0.00000  Uiso   1.00
H433   H     0.19673   0.11076   0.68145   0.00000  Uiso   1.00
H434   H     0.19252   0.38982   0.82746   0.00000  Uiso   1.00
H435   H     0.19747   0.03028   0.68186   0.00000  Uiso   1.00
H436   H     0.19335   0.47026   0.82717   0.00000  Uiso   1.00
H437   H     0.23760   0.28851   0.54634   0.00000  Uiso   1.00
H438   H     0.11958   0.19041   0.95672   0.00000  Uiso   1.00
H439   H     0.23375   0.29008   0.63358   0.00000  Uiso   1.00
H440   H     0.11797   0.19371   0.86874   0.00000  Uiso   1.00
H441   H     0.09670   0.21156   0.52618   0.00000  Uiso   1.00
H442   H     0.21360   0.30879   0.97080   0.00000  Uiso   1.00
N443   N     0.16667   0.25001   0.62935   0.00000  Uiso   1.00
N444   N     0.16667   0.24999   0.87066   0.00000  Uiso   1.00
O445   O     0.16667   0.18572   0.79072   0.00000  Uiso   1.00
O446   O     0.16666   0.31427   0.70929   0.00000  Uiso   1.00
O447   O     0.16667   0.18573   0.70928   0.00000  Uiso   1.00
O448   O     0.16666   0.31427   0.79072   0.00000  Uiso   1.00
O449   O     0.09161   0.24999   0.78132   0.00000  Uiso   1.00
O450   O     0.24172   0.25000   0.71868   0.00000  Uiso   1.00
O451   O     0.09161   0.25000   0.69989   0.00000  Uiso   1.00
O452   O     0.24172   0.25000   0.80012   0.00000  Uiso   1.00
O453   O     0.09271   0.20341   0.62033   0.00000  Uiso   1.00
C454   C     0.09420   0.15807   0.60858   0.00000  Uiso   1.00
H455   H     0.07341   0.13933   0.63413   0.00000  Uiso   1.00
H456   H     0.13432   0.14518   0.61256   0.00000  Uiso   1.00
H457   H     0.07406   0.15159   0.57128   0.00000  Uiso   1.00
O458   O     0.22305   0.31205   0.87745   0.00000  Uiso   1.00
C459   C     0.27609   0.30847   0.89513   0.00000  Uiso   1.00
H460   H     0.29816   0.32719   0.87057   0.00000  Uiso   1.00
H461   H     0.28955   0.27360   0.89539   0.00000  Uiso   1.00
H462   H     0.28517   0.32344   0.93193   0.00000  Uiso   1.00
C463   C     0.49988   0.16497   0.74990   0.00000  Uiso   1.00
C464   C     0.50000   0.33505   0.75008   0.00000  Uiso   1.00
C465   C     0.53914   0.27176   0.55951   0.00000  Uiso   1.00
C466   C     0.47343   0.21714   0.94209   0.00000  Uiso   1.00
C467   C     0.53759   0.27222   0.60990   0.00000  Uiso   1.00
C468   C     0.47297   0.21845   0.89144   0.00000  Uiso   1.00
C469   C     0.46339   0.22628   0.59978   0.00000  Uiso   1.00
C470   C     0.52873   0.28066   0.89920   0.00000  Uiso   1.00
C471   C     0.46192   0.22750   0.54868   0.00000  Uiso   1.00
C472   C     0.52738   0.28195   0.94991   0.00000  Uiso   1.00
C473   C     0.50053   0.24964   0.52743   0.00000  Uiso   1.00
C474   C     0.50040   0.24954   0.97267   0.00000  Uiso   1.00
C475   C     0.40123   0.24997   0.73753   0.00000  Uiso   1.00
C476   C     0.59877   0.25007   0.76248   0.00000  Uiso   1.00
C477   C     0.34591   0.24996   0.73069   0.00000  Uiso   1.00
C478   C     0.65409   0.25013   0.76933   0.00000  Uiso   1.00
C479   C     0.48247   0.04773   0.78817   0.00000  Uiso   1.00
C480   C     0.48496   0.45213   0.70661   0.00000  Uiso   1.00
C481   C     0.48284   0.09364   0.78829   0.00000  Uiso   1.00
C482   C     0.48538   0.40623   0.70664   0.00000  Uiso   1.00
C483   C     0.49965   0.11675   0.74976   0.00000  Uiso   1.00
C484   C     0.49984   0.38331   0.75013   0.00000  Uiso   1.00
C485   C     0.51636   0.09349   0.71125   0.00000  Uiso   1.00
C486   C     0.51416   0.40685   0.79354   0.00000  Uiso   1.00
C487   C     0.51660   0.04757   0.71142   0.00000  Uiso   1.00
C488   C     0.51438   0.45277   0.79341   0.00000  Uiso   1.00
C489   C     0.49955   0.02433   0.74984   0.00000  Uiso   1.00
C490   C     0.49963   0.47577   0.74996   0.00000  Uiso   1.00
Cu491  Cu    0.50000   0.24999   0.79822   0.00000  Uiso   1.00
Cu492  Cu    0.50000   0.25000   0.70179   0.00000  Uiso   1.00
H493   H     0.65913   0.24982   0.69368   0.00000  Uiso   1.00
H494   H     0.34086   0.25029   0.80635   0.00000  Uiso   1.00
H495   H     0.46828   0.03056   0.81778   0.00000  Uiso   1.00
H496   H     0.47257   0.46910   0.67278   0.00000  Uiso   1.00
H497   H     0.46935   0.11104   0.81817   0.00000  Uiso   1.00
H498   H     0.47376   0.38870   0.67276   0.00000  Uiso   1.00
H499   H     0.53006   0.11076   0.68145   0.00000  Uiso   1.00
H500   H     0.52585   0.38982   0.82746   0.00000  Uiso   1.00
H501   H     0.53081   0.03028   0.68186   0.00000  Uiso   1.00
H502   H     0.52669   0.47026   0.82717   0.00000  Uiso   1.00
H503   H     0.57093   0.28851   0.54634   0.00000  Uiso   1.00
H504   H     0.45292   0.19041   0.95672   0.00000  Uiso   1.00
H505   H     0.56709   0.29008   0.63358   0.00000  Uiso   1.00
H506   H     0.45130   0.19371   0.86874   0.00000  Uiso   1.00
H507   H     0.43003   0.21156   0.52618   0.00000  Uiso   1.00
H508   H     0.54694   0.30879   0.97080   0.00000  Uiso   1.00
N509   N     0.50000   0.25001   0.62935   0.00000  Uiso   1.00
N510   N     0.50000   0.24999   0.87066   0.00000  Uiso   1.00
O511   O     0.50000   0.18572   0.79072   0.00000  Uiso   1.00
O512   O     0.50000   0.31427   0.70929   0.00000  Uiso   1.00
O513   O     0.50000   0.18573   0.70928   0.00000  Uiso   1.00
O514   O     0.50000   0.31427   0.79072   0.00000  Uiso   1.00
O515   O     0.42495   0.24999   0.78132   0.00000  Uiso   1.00
O516   O     0.57505   0.25000   0.71868   0.00000  Uiso   1.00
O517   O     0.42495   0.25000   0.69989   0.00000  Uiso   1.00
O518   O     0.57505   0.25000   0.80012   0.00000  Uiso   1.00
O519   O     0.42604   0.20341   0.62033   0.00000  Uiso   1.00
C520   C     0.42754   0.15807   0.60858   0.00000  Uiso   1.00
H521   H     0.40675   0.13933   0.63413   0.00000  Uiso   1.00
H522   H     0.46766   0.14518   0.61256   0.00000  Uiso   1.00
H523   H     0.40740   0.15159   0.57128   0.00000  Uiso   1.00
O524   O     0.55638   0.31205   0.87745   0.00000  Uiso   1.00
C525   C     0.60942   0.30847   0.89513   0.00000  Uiso   1.00
H526   H     0.63149   0.32719   0.87057   0.00000  Uiso   1.00
H527   H     0.62289   0.27360   0.89539   0.00000  Uiso   1.00
H528   H     0.61850   0.32344   0.93193   0.00000  Uiso   1.00
C529   C     0.83321   0.16497   0.74990   0.00000  Uiso   1.00
C530   C     0.83334   0.33505   0.75008   0.00000  Uiso   1.00
C531   C     0.87247   0.27176   0.55951   0.00000  Uiso   1.00
C532   C     0.80676   0.21714   0.94209   0.00000  Uiso   1.00
C533   C     0.87092   0.27222   0.60990   0.00000  Uiso   1.00
C534   C     0.80631   0.21845   0.89144   0.00000  Uiso   1.00
C535   C     0.79672   0.22628   0.59978   0.00000  Uiso   1.00
C536   C     0.86207   0.28066   0.89920   0.00000  Uiso   1.00
C537   C     0.79525   0.22750   0.54868   0.00000  Uiso   1.00
C538   C     0.86071   0.28195   0.94991   0.00000  Uiso   1.00
C539   C     0.83386   0.24964   0.52743   0.00000  Uiso   1.00
C540   C     0.83373   0.24954   0.97267   0.00000  Uiso   1.00
C541   C     0.73456   0.24997   0.73753   0.00000  Uiso   1.00
C542   C     0.93210   0.25007   0.76248   0.00000  Uiso   1.00
C543   C     0.67924   0.24996   0.73069   0.00000  Uiso   1.00
C544   C     0.98743   0.25013   0.76933   0.00000  Uiso   1.00
C545   C     0.81580   0.04773   0.78817   0.00000  Uiso   1.00
C546   C     0.81829   0.45213   0.70661   0.00000  Uiso   1.00
C547   C     0.81617   0.09364   0.78829   0.00000  Uiso   1.00
C548   C     0.81871   0.40623   0.70664   0.00000  Uiso   1.00
C549   C     0.83298   0.11675   0.74976   0.00000  Uiso   1.00
C550   C     0.83317   0.38331   0.75013   0.00000  Uiso   1.00
C551   C     0.84969   0.09349   0.71125   0.00000  Uiso   1.00
C552   C     0.84749   0.40685   0.79354   0.00000  Uiso   1.00
C553   C     0.84994   0.04757   0.71142   0.00000  Uiso   1.00
C554   C     0.84771   0.45277   0.79341   0.00000  Uiso   1.00
C555   C     0.83288   0.02433   0.74984   0.00000  Uiso   1.00
C556   C     0.83296   0.47577   0.74996   0.00000  Uiso   1.00
Cu557  Cu    0.83333   0.24999   0.79822   0.00000  Uiso   1.00
Cu558  Cu    0.83333   0.25000   0.70179   0.00000  Uiso   1.00
H559   H     0.99246   0.24982   0.69368   0.00000  Uiso   1.00
H560   H     0.67419   0.25029   0.80635   0.00000  Uiso   1.00
H561   H     0.80161   0.03056   0.81778   0.00000  Uiso   1.00
H562   H     0.80590   0.46910   0.67278   0.00000  Uiso   1.00
H563   H     0.80269   0.11104   0.81817   0.00000  Uiso   1.00
H564   H     0.80709   0.38870   0.67276   0.00000  Uiso   1.00
H565   H     0.86340   0.11076   0.68145   0.00000  Uiso   1.00
H566   H     0.85919   0.38982   0.82746   0.00000  Uiso   1.00
H567   H     0.86414   0.03028   0.68186   0.00000  Uiso   1.00
H568   H     0.86002   0.47026   0.82717   0.00000  Uiso   1.00
H569   H     0.90427   0.28851   0.54634   0.00000  Uiso   1.00
H570   H     0.78625   0.19041   0.95672   0.00000  Uiso   1.00
H571   H     0.90042   0.29008   0.63358   0.00000  Uiso   1.00
H572   H     0.78464   0.19371   0.86874   0.00000  Uiso   1.00
H573   H     0.76337   0.21156   0.52618   0.00000  Uiso   1.00
H574   H     0.88027   0.30879   0.97080   0.00000  Uiso   1.00
N575   N     0.83333   0.25001   0.62935   0.00000  Uiso   1.00
N576   N     0.83333   0.24999   0.87066   0.00000  Uiso   1.00
O577   O     0.83334   0.18572   0.79072   0.00000  Uiso   1.00
O578   O     0.83333   0.31427   0.70929   0.00000  Uiso   1.00
O579   O     0.83334   0.18573   0.70928   0.00000  Uiso   1.00
O580   O     0.83333   0.31427   0.79072   0.00000  Uiso   1.00
O581   O     0.75828   0.24999   0.78132   0.00000  Uiso   1.00
O582   O     0.90839   0.25000   0.71868   0.00000  Uiso   1.00
O583   O     0.75828   0.25000   0.69989   0.00000  Uiso   1.00
O584   O     0.90839   0.25000   0.80012   0.00000  Uiso   1.00
O585   O     0.75937   0.20341   0.62033   0.00000  Uiso   1.00
C586   C     0.76087   0.15807   0.60858   0.00000  Uiso   1.00
H587   H     0.74008   0.13933   0.63413   0.00000  Uiso   1.00
H588   H     0.80099   0.14518   0.61256   0.00000  Uiso   1.00
H589   H     0.74073   0.15159   0.57128   0.00000  Uiso   1.00
O590   O     0.88972   0.31205   0.87745   0.00000  Uiso   1.00
C591   C     0.94276   0.30847   0.89513   0.00000  Uiso   1.00
H592   H     0.96482   0.32719   0.87057   0.00000  Uiso   1.00
H593   H     0.95622   0.27360   0.89539   0.00000  Uiso   1.00
H594   H     0.95184   0.32344   0.93193   0.00000  Uiso   1.00
C595   C     0.16655   0.66497   0.74990   0.00000  Uiso   1.00
C596   C     0.16667   0.83505   0.75008   0.00000  Uiso   1.00
C597   C     0.20580   0.77176   0.55951   0.00000  Uiso   1.00
C598   C     0.14009   0.71714   0.94209   0.00000  Uiso   1.00
C599   C     0.20426   0.77222   0.60990   0.00000  Uiso   1.00
C600   C     0.13964   0.71845   0.89144   0.00000  Uiso   1.00
C601   C     0.13005   0.72628   0.59978   0.00000  Uiso   1.00
C602   C     0.19540   0.78066   0.89920   0.00000  Uiso   1.00
C603   C     0.12858   0.72750   0.54868   0.00000  Uiso   1.00
C604   C     0.19404   0.78195   0.94991   0.00000  Uiso   1.00
C605   C     0.16719   0.74964   0.52743   0.00000  Uiso   1.00
C606   C     0.16706   0.74954   0.97267   0.00000  Uiso   1.00
C607   C     0.06790   0.74997   0.73753   0.00000  Uiso   1.00
C608   C     0.26544   0.75007   0.76248   0.00000  Uiso   1.00
C609   C     0.01257   0.74996   0.73069   0.00000  Uiso   1.00
C610   C     0.32076   0.75013   0.76933   0.00000  Uiso   1.00
C611   C     0.14913   0.54773   0.78817   0.00000  Uiso   1.00
C612   C     0.15162   0.95213   0.70661   0.00000  Uiso   1.00
C613   C     0.14950   0.59364   0.78829   0.00000  Uiso   1.00
C614   C     0.15205   0.90623   0.70664   0.00000  Uiso   1.00
C615   C     0.16631   0.61675   0.74976   0.00000  Uiso   1.00
C616   C     0.16651   0.88331   0.75013   0.00000  Uiso   1.00
C617   C     0.18303   0.59349   0.71125   0.00000  Uiso   1.00
C618   C     0.18083   0.90685   0.79354   0.00000  Uiso   1.00
C619   C     0.18327   0.54757   0.71142   0.00000  Uiso   1.00
C620   C     0.18104   0.95277   0.79341   0.00000  Uiso   1.00
C621   C     0.16621   0.52433   0.74984   0.00000  Uiso   1.00
C622   C     0.16629   0.97577   0.74996   0.00000  Uiso   1.00
Cu623  Cu    0.16667   0.74999   0.79822   0.00000  Uiso   1.00
Cu624  Cu    0.16667   0.75000   0.70179   0.00000  Uiso   1.00
H625   H     0.32580   0.74982   0.69368   0.00000  Uiso   1.00
H626   H     0.00752   0.75029   0.80635   0.00000  Uiso   1.00
H627   H     0.13495   0.53056   0.81778   0.00000  Uiso   1.00
H628   H     0.13924   0.96910   0.67278   0.00000  Uiso   1.00
H629   H     0.13602   0.61104   0.81817   0.00000  Uiso   1.00
H630   H     0.14043   0.88870   0.67276   0.00000  Uiso   1.00
H631   H     0.19673   0.61076   0.68145   0.00000  Uiso   1.00
H632   H     0.19252   0.88982   0.82746   0.00000  Uiso   1.00
H633   H     0.19747   0.53028   0.68186   0.00000  Uiso   1.00
H634   H     0.19335   0.97026   0.82717   0.00000  Uiso   1.00
H635   H     0.23760   0.78851   0.54634   0.00000  Uiso   1.00
H636   H     0.11958   0.69041   0.95672   0.00000  Uiso   1.00
H637   H     0.23375   0.79008   0.63358   0.00000  Uiso   1.00
H638   H     0.11797   0.69371   0.86874   0.00000  Uiso   1.00
H639   H     0.09670   0.71156   0.52618   0.00000  Uiso   1.00
H640   H     0.21360   0.80879   0.97080   0.00000  Uiso   1.00
N641   N     0.16667   0.75001   0.62935   0.00000  Uiso   1.00
N642   N     0.16667   0.74999   0.87066   0.00000  Uiso   1.00
O643   O     0.16667   0.68572   0.79072   0.00000  Uiso   1.00
O644   O     0.16666   0.81427   0.70929   0.00000  Uiso   1.00
O645   O     0.16667   0.68573   0.70928   0.00000  Uiso   1.00
O646   O     0.16666   0.81427   0.79072   0.00000  Uiso   1.00
O647   O     0.09161   0.74999   0.78132   0.00000  Uiso   1.00
O648   O     0.24172   0.75000   0.71868   0.00000  Uiso   1.00
O649   O     0.09161   0.75000   0.69989   0.00000  Uiso   1.00
O650   O     0.24172   0.75000   0.80012   0.00000  Uiso   1.00
O651   O     0.09271   0.70341   0.62033   0.00000  Uiso   1.00
C652   C     0.09420   0.65807   0.60858   0.00000  Uiso   1.00
H653   H     0.07341   0.63933   0.63413   0.00000  Uiso   1.00
H654   H     0.13432   0.64518   0.61256   0.00000  Uiso   1.00
H655   H     0.07406   0.65159   0.57128   0.00000  Uiso   1.00
O656   O     0.22305   0.81205   0.87745   0.00000  Uiso   1.00
C657   C     0.27609   0.80847   0.89513   0.00000  Uiso   1.00
H658   H     0.29816   0.82719   0.87057   0.00000  Uiso   1.00
H659   H     0.28955   0.77360   0.89539   0.00000  Uiso   1.00
H660   H     0.28517   0.82344   0.93193   0.00000  Uiso   1.00
C661   C     0.49988   0.66497   0.74990   0.00000  Uiso   1.00
C662   C     0.50000   0.83505   0.75008   0.00000  Uiso   1.00
C663   C     0.53914   0.77176   0.55951   0.00000  Uiso   1.00
C664   C     0.47343   0.71714   0.94209   0.00000  Uiso   1.00
C665   C     0.53759   0.77222   0.60990   0.00000  Uiso   1.00
C666   C     0.47297   0.71845   0.89144   0.00000  Uiso   1.00
C667   C     0.46339   0.72628   0.59978   0.00000  Uiso   1.00
C668   C     0.52873   0.78066   0.89920   0.00000  Uiso   1.00
C669   C     0.46192   0.72750   0.54868   0.00000  Uiso   1.00
C670   C     0.52738   0.78195   0.94991   0.00000  Uiso   1.00
C671   C     0.50053   0.74964   0.52743   0.00000  Uiso   1.00
C672   C     0.50040   0.74954   0.97267   0.00000  Uiso   1.00
C673   C     0.40123   0.74997   0.73753   0.00000  Uiso   1.00
C674   C     0.59877   0.75007   0.76248   0.00000  Uiso   1.00
C675   C     0.34591   0.74996   0.73069   0.00000  Uiso   1.00
C676   C     0.65409   0.75013   0.76933   0.00000  Uiso   1.00
C677   C     0.48247   0.54773   0.78817   0.00000  Uiso   1.00
C678   C     0.48496   0.95213   0.70661   0.00000  Uiso   1.00
C679   C     0.48284   0.59364   0.78829   0.00000  Uiso   1.00
C680   C     0.48538   0.90623   0.70664   0.00000  Uiso   1.00
C681   C     0.49965   0.61675   0.74976   0.00000  Uiso   1.00
C682   C     0.49984   0.88331   0.75013   0.00000  Uiso   1.00
C683   C     0.51636   0.59349   0.71125   0.00000  Uiso   1.00
C684   C     0.51416   0.90685   0.79354   0.00000  Uiso   1.00
C685   C     0.51660   0.54757   0.71142   0.00000  Uiso   1.00
C686   C     0.51438   0.95277   0.79341   0.00000  Uiso   1.00
C687   C     0.49955   0.52433   0.74984   0.00000  Uiso   1.00
C688   C     0.49963   0.97577   0.74996   0.00000  Uiso   1.00
Cu689  Cu    0.50000   0.74999   0.79822   0.00000  Uiso   1.00
Cu690  Cu    0.50000   0.75000   0.70179   0.00000  Uiso   1.00
H691   H     0.65913   0.74982   0.69368   0.00000  Uiso   1.00
H692   H     0.34086   0.75029   0.80635   0.00000  Uiso   1.00
H693   H     0.46828   0.53056   0.81778   0.00000  Uiso   1.00
H694   H     0.47257   0.96910   0.67278   0.00000  Uiso   1.00
H695   H     0.46935   0.61104   0.81817   0.00000  Uiso   1.00
H696   H     0.47376   0.88870   0.67276   0.00000  Uiso   1.00
H697   H     0.53006   0.61076   0.68145   0.00000  Uiso   1.00
H698   H     0.52585   0.88982   0.82746   0.00000  Uiso   1.00
H699   H     0.53081   0.53028   0.68186   0.00000  Uiso   1.00
H700   H     0.52669   0.97026   0.82717   0.00000  Uiso   1.00
H701   H     0.57093   0.78851   0.54634   0.00000  Uiso   1.00
H702   H     0.45292   0.69041   0.95672   0.00000  Uiso   1.00
H703   H     0.56709   0.79008   0.63358   0.00000  Uiso   1.00
H704   H     0.45130   0.69371   0.86874   0.00000  Uiso   1.00
H705   H     0.43003   0.71156   0.52618   0.00000  Uiso   1.00
H706   H     0.54694   0.80879   0.97080   0.00000  Uiso   1.00
N707   N     0.50000   0.75001   0.62935   0.00000  Uiso   1.00
N708   N     0.50000   0.74999   0.87066   0.00000  Uiso   1.00
O709   O     0.50000   0.68572   0.79072   0.00000  Uiso   1.00
O710   O     0.50000   0.81427   0.70929   0.00000  Uiso   1.00
O711   O     0.50000   0.68573   0.70928   0.00000  Uiso   1.00
O712   O     0.50000   0.81427   0.79072   0.00000  Uiso   1.00
O713   O     0.42495   0.74999   0.78132   0.00000  Uiso   1.00
O714   O     0.57505   0.75000   0.71868   0.00000  Uiso   1.00
O715   O     0.42495   0.75000   0.69989   0.00000  Uiso   1.00
O716   O     0.57505   0.75000   0.80012   0.00000  Uiso   1.00
O717   O     0.42604   0.70341   0.62033   0.00000  Uiso   1.00
C718   C     0.42754   0.65807   0.60858   0.00000  Uiso   1.00
H719   H     0.40675   0.63933   0.63413   0.00000  Uiso   1.00
H720   H     0.46766   0.64518   0.61256   0.00000  Uiso   1.00
H721   H     0.40740   0.65159   0.57128   0.00000  Uiso   1.00
O722   O     0.55638   0.81205   0.87745   0.00000  Uiso   1.00
C723   C     0.60942   0.80847   0.89513   0.00000  Uiso   1.00
H724   H     0.63149   0.82719   0.87057   0.00000  Uiso   1.00
H725   H     0.62289   0.77360   0.89539   0.00000  Uiso   1.00
H726   H     0.61850   0.82344   0.93193   0.00000  Uiso   1.00
C727   C     0.83321   0.66497   0.74990   0.00000  Uiso   1.00
C728   C     0.83334   0.83505   0.75008   0.00000  Uiso   1.00
C729   C     0.87247   0.77176   0.55951   0.00000  Uiso   1.00
C730   C     0.80676   0.71714   0.94209   0.00000  Uiso   1.00
C731   C     0.87092   0.77222   0.60990   0.00000  Uiso   1.00
C732   C     0.80631   0.71845   0.89144   0.00000  Uiso   1.00
C733   C     0.79672   0.72628   0.59978   0.00000  Uiso   1.00
C734   C     0.86207   0.78066   0.89920   0.00000  Uiso   1.00
C735   C     0.79525   0.72750   0.54868   0.00000  Uiso   1.00
C736   C     0.86071   0.78195   0.94991   0.00000  Uiso   1.00
C737   C     0.83386   0.74964   0.52743   0.00000  Uiso   1.00
C738   C     0.83373   0.74954   0.97267   0.00000  Uiso   1.00
C739   C     0.73456   0.74997   0.73753   0.00000  Uiso   1.00
C740   C     0.93210   0.75007   0.76248   0.00000  Uiso   1.00
C741   C     0.67924   0.74996   0.73069   0.00000  Uiso   1.00
C742   C     0.98743   0.75013   0.76933   0.00000  Uiso   1.00
C743   C     0.81580   0.54773   0.78817   0.00000  Uiso   1.00
C744   C     0.81829   0.95213   0.70661   0.00000  Uiso   1.00
C745   C     0.81617   0.59364   0.78829   0.00000  Uiso   1.00
C746   C     0.81871   0.90623   0.70664   0.00000  Uiso   1.00
C747   C     0.83298   0.61675   0.74976   0.00000  Uiso   1.00
C748   C     0.83317   0.88331   0.75013   0.00000  Uiso   1.00
C749   C     0.84969   0.59349   0.71125   0.00000  Uiso   1.00
C750   C     0.84749   0.90685   0.79354   0.00000  Uiso   1.00
C751   C     0.84994   0.54757   0.71142   0.00000  Uiso   1.00
C752   C     0.84771   0.95277   0.79341   0.00000  Uiso   1.00
C753   C     0.83288   0.52433   0.74984   0.00000  Uiso   1.00
C754   C     0.83296   0.97577   0.74996   0.00000  Uiso   1.00
Cu755  Cu    0.83333   0.74999   0.79822   0.00000  Uiso   1.00
Cu756  Cu    0.83333   0.75000   0.70179   0.00000  Uiso   1.00
H757   H     0.99246   0.74982   0.69368   0.00000  Uiso   1.00
H758   H     0.67419   0.75029   0.80635   0.00000  Uiso   1.00
H759   H     0.80161   0.53056   0.81778   0.00000  Uiso   1.00
H760   H     0.80590   0.96910   0.67278   0.00000  Uiso   1.00
H761   H     0.80269   0.61104   0.81817   0.00000  Uiso   1.00
H762   H     0.80709   0.88870   0.67276   0.00000  Uiso   1.00
H763   H     0.86340   0.61076   0.68145   0.00000  Uiso   1.00
H764   H     0.85919   0.88982   0.82746   0.00000  Uiso   1.00
H765   H     0.86414   0.53028   0.68186   0.00000  Uiso   1.00
H766   H     0.86002   0.97026   0.82717   0.00000  Uiso   1.00
H767   H     0.90427   0.78851   0.54634   0.00000  Uiso   1.00
H768   H     0.78625   0.69041   0.95672   0.00000  Uiso   1.00
H769   H     0.90042   0.79008   0.63358   0.00000  Uiso   1.00
H770   H     0.78464   0.69371   0.86874   0.00000  Uiso   1.00
H771   H     0.76337   0.71156   0.52618   0.00000  Uiso   1.00
H772   H     0.88027   0.80879   0.97080   0.00000  Uiso   1.00
N773   N     0.83333   0.75001   0.62935   0.00000  Uiso   1.00
N774   N     0.83333   0.74999   0.87066   0.00000  Uiso   1.00
O775   O     0.83334   0.68572   0.79072   0.00000  Uiso   1.00
O776   O     0.83333   0.81427   0.70929   0.00000  Uiso   1.00
O777   O     0.83334   0.68573   0.70928   0.00000  Uiso   1.00
O778   O     0.83333   0.81427   0.79072   0.00000  Uiso   1.00
O779   O     0.75828   0.74999   0.78132   0.00000  Uiso   1.00
O780   O     0.90839   0.75000   0.71868   0.00000  Uiso   1.00
O781   O     0.75828   0.75000   0.69989   0.00000  Uiso   1.00
O782   O     0.90839   0.75000   0.80012   0.00000  Uiso   1.00
O783   O     0.75937   0.70341   0.62033   0.00000  Uiso   1.00
C784   C     0.76087   0.65807   0.60858   0.00000  Uiso   1.00
H785   H     0.74008   0.63933   0.63413   0.00000  Uiso   1.00
H786   H     0.80099   0.64518   0.61256   0.00000  Uiso   1.00
H787   H     0.74073   0.65159   0.57128   0.00000  Uiso   1.00
O788   O     0.88972   0.81205   0.87745   0.00000  Uiso   1.00
C789   C     0.94276   0.80847   0.89513   0.00000  Uiso   1.00
H790   H     0.96482   0.82719   0.87057   0.00000  Uiso   1.00
H791   H     0.95622   0.77360   0.89539   0.00000  Uiso   1.00
H792   H     0.95184   0.82344   0.93193   0.00000  Uiso   1.00
loop_
_geom_bond_atom_site_label_1
_geom_bond_atom_site_label_2
_geom_bond_distance
_geom_bond_site_symmetry_2
_ccdc_geom_bond_type
C1     C21     1.460   .     S
C1     O51     1.295   .     A
C1     O49     1.294   .     A
C2     C22     1.461   .     S
C2     O52     1.295   .     A
C2     O50     1.294   .     A
C3     C5      1.407   .     A
C3     C11     1.413   .     A
C3     H41     1.080   .     S
C4     H42     1.080   .     S
C4     C6      1.407   .     A
C4     C12     1.413   .     A
C5     H43     1.082   .     S
C5     N47     1.363   .     A
C6     N48     1.363   .     A
C6     H44     1.082   .     S
C7     N47     1.369   .     A
C7     C9      1.416   .     A
C7     O57     1.384   .     S
C8     N48     1.369   .     A
C8     C10     1.415   .     A
C8     O62     1.383   .     S
C9     H45     1.080   .     S
C9     C11     1.408   .     A
C10    H46     1.080   .     S
C10    C12     1.409   .     A
C11    C408    1.521   1_554 S
C12    C407    1.521   .     S
C13    O53     1.286   .     A
C13    C15     1.435   .     S
C13    O55     1.290   .     A
C14    O56     1.290   .     A
C14    C16     1.435   .     S
C14    O54     1.286   .     A
C15    C148    1.337   1_455 S
C15    H163    1.087   1_455 S
C16    C81     1.337   .     S
C16    H98     1.087   .     S
C17    H33     1.083   .     S
C17    C27     1.403   .     A
C17    C19     1.390   .     A
C18    H34     1.083   .     S
C18    C28     1.403   .     A
C18    C20     1.390   .     A
C19    C21     1.402   .     A
C19    H35     1.083   .     S
C20    C22     1.402   .     A
C20    H36     1.083   .     S
C21    C23     1.401   .     A
C22    C24     1.402   .     A
C23    H37     1.083   .     S
C23    C25     1.390   .     A
C24    C26     1.390   .     A
C24    H38     1.083   .     S
C25    H39     1.083   .     S
C25    C27     1.404   .     A
C26    H40     1.083   .     S
C26    C28     1.404   .     A
C27    C226    1.470   1_545 S
C28    C225    1.470   .     S
Cu29   Cu30    2.680   .     S
Cu29   O56     1.959   .     S
Cu29   O49     1.956   .     S
Cu29   N48     2.013   .     S
Cu29   O53     1.956   .     S
Cu29   O52     1.958   .     S
Cu30   O51     1.958   .     S
Cu30   O55     1.959   .     S
Cu30   O50     1.956   .     S
Cu30   O54     1.956   .     S
Cu30   N47     2.013   .     S
H31    C81     1.087   .     S
H32    C148    1.087   1_455 S
O57    C58     1.412   .     S
C58    H61     1.111   .     S
C58    H60     1.114   .     S
C58    H59     1.109   .     S
O62    C63     1.412   .     S
C63    H65     1.115   .     S
C63    H66     1.111   .     S
C63    H64     1.109   .     S
C67    C87     1.460   .     S
C67    O117    1.295   .     A
C67    O115    1.294   .     A
C68    C88     1.461   .     S
C68    O118    1.295   .     A
C68    O116    1.294   .     A
C69    C71     1.407   .     A
C69    C77     1.413   .     A
C69    H107    1.080   .     S
C70    H108    1.080   .     S
C70    C72     1.407   .     A
C70    C78     1.413   .     A
C71    H109    1.082   .     S
C71    N113    1.363   .     A
C72    N114    1.363   .     A
C72    H110    1.082   .     S
C73    N113    1.369   .     A
C73    C75     1.416   .     A
C73    O123    1.384   .     S
C74    N114    1.369   .     A
C74    C76     1.415   .     A
C74    O128    1.383   .     S
C75    H111    1.080   .     S
C75    C77     1.408   .     A
C76    H112    1.080   .     S
C76    C78     1.409   .     A
C77    C474    1.521   1_554 S
C78    C473    1.521   .     S
C79    O119    1.286   .     A
C79    C81     1.435   .     S
C79    O121    1.290   .     A
C80    O122    1.290   .     A
C80    C82     1.435   .     S
C80    O120    1.286   .     A
C82    C147    1.337   .     S
C82    H164    1.087   .     S
C83    H99     1.083   .     S
C83    C93     1.403   .     A
C83    C85     1.390   .     A
C84    H100    1.083   .     S
C84    C94     1.403   .     A
C84    C86     1.390   .     A
C85    C87     1.402   .     A
C85    H101    1.083   .     S
C86    C88     1.402   .     A
C86    H102    1.083   .     S
C87    C89     1.401   .     A
C88    C90     1.402   .     A
C89    H103    1.083   .     S
C89    C91     1.390   .     A
C90    C92     1.390   .     A
C90    H104    1.083   .     S
C91    H105    1.083   .     S
C91    C93     1.404   .     A
C92    H106    1.083   .     S
C92    C94     1.404   .     A
C93    C292    1.470   1_545 S
C94    C291    1.470   .     S
Cu95   Cu96    2.680   .     S
Cu95   O122    1.959   .     S
Cu95   O115    1.956   .     S
Cu95   N114    2.013   .     S
Cu95   O119    1.956   .     S
Cu95   O118    1.958   .     S
Cu96   O117    1.958   .     S
Cu96   O121    1.959   .     S
Cu96   O116    1.956   .     S
Cu96   O120    1.956   .     S
Cu96   N113    2.013   .     S
H97    C147    1.087   .     S
O123   C124    1.412   .     S
C124   H127    1.111   .     S
C124   H126    1.114   .     S
C124   H125    1.109   .     S
O128   C129    1.412   .     S
C129   H131    1.115   .     S
C129   H132    1.111   .     S
C129   H130    1.109   .     S
C133   C153    1.460   .     S
C133   O183    1.295   .     A
C133   O181    1.294   .     A
C134   C154    1.461   .     S
C134   O184    1.295   .     A
C134   O182    1.294   .     A
C135   C137    1.407   .     A
C135   C143    1.413   .     A
C135   H173    1.080   .     S
C136   H174    1.080   .     S
C136   C138    1.407   .     A
C136   C144    1.413   .     A
C137   H175    1.082   .     S
C137   N179    1.363   .     A
C138   N180    1.363   .     A
C138   H176    1.082   .     S
C139   N179    1.369   .     A
C139   C141    1.416   .     A
C139   O189    1.384   .     S
C140   N180    1.369   .     A
C140   C142    1.415   .     A
C140   O194    1.383   .     S
C141   H177    1.080   .     S
C141   C143    1.408   .     A
C142   H178    1.080   .     S
C142   C144    1.409   .     A
C143   C540    1.521   1_554 S
C144   C539    1.521   .     S
C145   O185    1.286   .     A
C145   C147    1.435   .     S
C145   O187    1.290   .     A
C146   O188    1.290   .     A
C146   C148    1.435   .     S
C146   O186    1.286   .     A
C148   C15     1.337   1_655 S
C148   H32     1.087   1_655 S
C149   H165    1.083   .     S
C149   C159    1.403   .     A
C149   C151    1.390   .     A
C150   H166    1.083   .     S
C150   C160    1.403   .     A
C150   C152    1.390   .     A
C151   C153    1.402   .     A
C151   H167    1.083   .     S
C152   C154    1.402   .     A
C152   H168    1.083   .     S
C153   C155    1.401   .     A
C154   C156    1.402   .     A
C155   H169    1.083   .     S
C155   C157    1.390   .     A
C156   C158    1.390   .     A
C156   H170    1.083   .     S
C157   H171    1.083   .     S
C157   C159    1.404   .     A
C158   H172    1.083   .     S
C158   C160    1.404   .     A
C159   C358    1.470   1_545 S
C160   C357    1.470   .     S
Cu161  Cu162   2.680   .     S
Cu161  O188    1.959   .     S
Cu161  O181    1.956   .     S
Cu161  N180    2.013   .     S
Cu161  O185    1.956   .     S
Cu161  O184    1.958   .     S
Cu162  O183    1.958   .     S
Cu162  O187    1.959   .     S
Cu162  O182    1.956   .     S
Cu162  O186    1.956   .     S
Cu162  N179    2.013   .     S
H163   C15     1.087   1_655 S
O189   C190    1.412   .     S
C190   H193    1.111   .     S
C190   H192    1.114   .     S
C190   H191    1.109   .     S
O194   C195    1.412   .     S
C195   H197    1.115   .     S
C195   H198    1.111   .     S
C195   H196    1.109   .     S
C199   C219    1.460   .     S
C199   O249    1.295   .     A
C199   O247    1.294   .     A
C200   C220    1.461   .     S
C200   O250    1.295   .     A
C200   O248    1.294   .     A
C201   C203    1.407   .     A
C201   C209    1.413   .     A
C201   H239    1.080   .     S
C202   H240    1.080   .     S
C202   C204    1.407   .     A
C202   C210    1.413   .     A
C203   H241    1.082   .     S
C203   N245    1.363   .     A
C204   N246    1.363   .     A
C204   H242    1.082   .     S
C205   N245    1.369   .     A
C205   C207    1.416   .     A
C205   O255    1.384   .     S
C206   N246    1.369   .     A
C206   C208    1.415   .     A
C206   O260    1.383   .     S
C207   H243    1.080   .     S
C207   C209    1.408   .     A
C208   H244    1.080   .     S
C208   C210    1.409   .     A
C209   C606    1.521   1_554 S
C210   C605    1.521   .     S
C211   O251    1.286   .     A
C211   C213    1.435   .     S
C211   O253    1.290   .     A
C212   O254    1.290   .     A
C212   C214    1.435   .     S
C212   O252    1.286   .     A
C213   C346    1.337   1_455 S
C213   H361    1.087   1_455 S
C214   C279    1.337   .     S
C214   H296    1.087   .     S
C215   H231    1.083   .     S
C215   C225    1.403   .     A
C215   C217    1.390   .     A
C216   H232    1.083   .     S
C216   C226    1.403   .     A
C216   C218    1.390   .     A
C217   C219    1.402   .     A
C217   H233    1.083   .     S
C218   C220    1.402   .     A
C218   H234    1.083   .     S
C219   C221    1.401   .     A
C220   C222    1.402   .     A
C221   H235    1.083   .     S
C221   C223    1.390   .     A
C222   C224    1.390   .     A
C222   H236    1.083   .     S
C223   H237    1.083   .     S
C223   C225    1.404   .     A
C224   H238    1.083   .     S
C224   C226    1.404   .     A
C226   C27     1.470   1_565 S
Cu227  Cu228   2.680   .     S
Cu227  O254    1.959   .     S
Cu227  O247    1.956   .     S
Cu227  N246    2.013   .     S
Cu227  O251    1.956   .     S
Cu227  O250    1.958   .     S
Cu228  O249    1.958   .     S
Cu228  O253    1.959   .     S
Cu228  O248    1.956   .     S
Cu228  O252    1.956   .     S
Cu228  N245    2.013   .     S
H229   C279    1.087   .     S
H230   C346    1.087   1_455 S
O255   C256    1.412   .     S
C256   H259    1.111   .     S
C256   H258    1.114   .     S
C256   H257    1.109   .     S
O260   C261    1.412   .     S
C261   H263    1.115   .     S
C261   H264    1.111   .     S
C261   H262    1.109   .     S
C265   C285    1.460   .     S
C265   O315    1.295   .     A
C265   O313    1.294   .     A
C266   C286    1.461   .     S
C266   O316    1.295   .     A
C266   O314    1.294   .     A
C267   C269    1.407   .     A
C267   C275    1.413   .     A
C267   H305    1.080   .     S
C268   H306    1.080   .     S
C268   C270    1.407   .     A
C268   C276    1.413   .     A
C269   H307    1.082   .     S
C269   N311    1.363   .     A
C270   N312    1.363   .     A
C270   H308    1.082   .     S
C271   N311    1.369   .     A
C271   C273    1.416   .     A
C271   O321    1.384   .     S
C272   N312    1.369   .     A
C272   C274    1.415   .     A
C272   O326    1.383   .     S
C273   H309    1.080   .     S
C273   C275    1.408   .     A
C274   H310    1.080   .     S
C274   C276    1.409   .     A
C275   C672    1.521   1_554 S
C276   C671    1.521   .     S
C277   O317    1.286   .     A
C277   C279    1.435   .     S
C277   O319    1.290   .     A
C278   O320    1.290   .     A
C278   C280    1.435   .     S
C278   O318    1.286   .     A
C280   C345    1.337   .     S
C280   H362    1.087   .     S
C281   H297    1.083   .     S
C281   C291    1.403   .     A
C281   C283    1.390   .     A
C282   H298    1.083   .     S
C282   C292    1.403   .     A
C282   C284    1.390   .     A
C283   C285    1.402   .     A
C283   H299    1.083   .     S
C284   C286    1.402   .     A
C284   H300    1.083   .     S
C285   C287    1.401   .     A
C286   C288    1.402   .     A
C287   H301    1.083   .     S
C287   C289    1.390   .     A
C288   C290    1.390   .     A
C288   H302    1.083   .     S
C289   H303    1.083   .     S
C289   C291    1.404   .     A
C290   H304    1.083   .     S
C290   C292    1.404   .     A
C292   C93     1.470   1_565 S
Cu293  Cu294   2.680   .     S
Cu293  O320    1.959   .     S
Cu293  O313    1.956   .     S
Cu293  N312    2.013   .     S
Cu293  O317    1.956   .     S
Cu293  O316    1.958   .     S
Cu294  O315    1.958   .     S
Cu294  O319    1.959   .     S
Cu294  O314    1.956   .     S
Cu294  O318    1.956   .     S
Cu294  N311    2.013   .     S
H295   C345    1.087   .     S
O321   C322    1.412   .     S
C322   H325    1.111   .     S
C322   H324    1.114   .     S
C322   H323    1.109   .     S
O326   C327    1.412   .     S
C327   H329    1.115   .     S
C327   H330    1.111   .     S
C327   H328    1.109   .     S
C331   C351    1.460   .     S
C331   O381    1.295   .     A
C331   O379    1.294   .     A
C332   C352    1.461   .     S
C332   O382    1.295   .     A
C332   O380    1.294   .     A
C333   C335    1.407   .     A
C333   C341    1.413   .     A
C333   H371    1.080   .     S
C334   H372    1.080   .     S
C334   C336    1.407   .     A
C334   C342    1.413   .     A
C335   H373    1.082   .     S
C335   N377    1.363   .     A
C336   N378    1.363   .     A
C336   H374    1.082   .     S
C337   N377    1.369   .     A
C337   C339    1.416   .     A
C337   O387    1.384   .     S
C338   N378    1.369   .     A
C338   C340    1.415   .     A
C338   O392    1.383   .     S
C339   H375    1.080   .     S
C339   C341    1.408   .     A
C340   H376    1.080   .     S
C340   C342    1.409   .     A
C341   C738    1.521   1_554 S
C342   C737    1.521   .     S
C343   O383    1.286   .     A
C343   C345    1.435   .     S
C343   O385    1.290   .     A
C344   O386    1.290   .     A
C344   C346    1.435   .     S
C344   O384    1.286   .     A
C346   C213    1.337   1_655 S
C346   H230    1.087   1_655 S
C347   H363    1.083   .     S
C347   C357    1.403   .     A
C347   C349    1.390   .     A
C348   H364    1.083   .     S
C348   C358    1.403   .     A
C348   C350    1.390   .     A
C349   C351    1.402   .     A
C349   H365    1.083   .     S
C350   C352    1.402   .     A
C350   H366    1.083   .     S
C351   C353    1.401   .     A
C352   C354    1.402   .     A
C353   H367    1.083   .     S
C353   C355    1.390   .     A
C354   C356    1.390   .     A
C354   H368    1.083   .     S
C355   H369    1.083   .     S
C355   C357    1.404   .     A
C356   H370    1.083   .     S
C356   C358    1.404   .     A
C358   C159    1.470   1_565 S
Cu359  Cu360   2.680   .     S
Cu359  O386    1.959   .     S
Cu359  O379    1.956   .     S
Cu359  N378    2.013   .     S
Cu359  O383    1.956   .     S
Cu359  O382    1.958   .     S
Cu360  O381    1.958   .     S
Cu360  O385    1.959   .     S
Cu360  O380    1.956   .     S
Cu360  O384    1.956   .     S
Cu360  N377    2.013   .     S
H361   C213    1.087   1_655 S
O387   C388    1.412   .     S
C388   H391    1.111   .     S
C388   H390    1.114   .     S
C388   H389    1.109   .     S
O392   C393    1.412   .     S
C393   H395    1.115   .     S
C393   H396    1.111   .     S
C393   H394    1.109   .     S
C397   C417    1.460   .     S
C397   O447    1.295   .     A
C397   O445    1.294   .     A
C398   C418    1.461   .     S
C398   O448    1.295   .     A
C398   O446    1.294   .     A
C399   C401    1.407   .     A
C399   C407    1.413   .     A
C399   H437    1.080   .     S
C400   H438    1.080   .     S
C400   C402    1.407   .     A
C400   C408    1.413   .     A
C401   H439    1.082   .     S
C401   N443    1.363   .     A
C402   N444    1.363   .     A
C402   H440    1.082   .     S
C403   N443    1.369   .     A
C403   C405    1.416   .     A
C403   O453    1.384   .     S
C404   N444    1.369   .     A
C404   C406    1.415   .     A
C404   O458    1.383   .     S
C405   H441    1.080   .     S
C405   C407    1.408   .     A
C406   H442    1.080   .     S
C406   C408    1.409   .     A
C408   C11     1.521   1_556 S
C409   O449    1.286   .     A
C409   C411    1.435   .     S
C409   O451    1.290   .     A
C410   O452    1.290   .     A
C410   C412    1.435   .     S
C410   O450    1.286   .     A
C411   C544    1.337   1_455 S
C411   H559    1.087   1_455 S
C412   C477    1.337   .     S
C412   H494    1.087   .     S
C413   H429    1.083   .     S
C413   C423    1.403   .     A
C413   C415    1.390   .     A
C414   H430    1.083   .     S
C414   C424    1.403   .     A
C414   C416    1.390   .     A
C415   C417    1.402   .     A
C415   H431    1.083   .     S
C416   C418    1.402   .     A
C416   H432    1.083   .     S
C417   C419    1.401   .     A
C418   C420    1.402   .     A
C419   H433    1.083   .     S
C419   C421    1.390   .     A
C420   C422    1.390   .     A
C420   H434    1.083   .     S
C421   H435    1.083   .     S
C421   C423    1.404   .     A
C422   H436    1.083   .     S
C422   C424    1.404   .     A
C423   C622    1.470   1_545 S
C424   C621    1.470   .     S
Cu425  Cu426   2.680   .     S
Cu425  O452    1.959   .     S
Cu425  O445    1.956   .     S
Cu425  N444    2.013   .     S
Cu425  O449    1.956   .     S
Cu425  O448    1.958   .     S
Cu426  O447    1.958   .     S
Cu426  O451    1.959   .     S
Cu426  O446    1.956   .     S
Cu426  O450    1.956   .     S
Cu426  N443    2.013   .     S
H427   C477    1.087   .     S
H428   C544    1.087   1_455 S
O453   C454    1.412   .     S
C454   H457    1.111   .     S
C454   H456    1.114   .     S
C454   H455    1.109   .     S
O458   C459    1.412   .     S
C459   H461    1.115   .     S
C459   H462    1.111   .     S
C459   H460    1.109   .     S
C463   C483    1.460   .     S
C463   O513    1.295   .     A
C463   O511    1.294   .     A
C464   C484    1.461   .     S
C464   O514    1.295   .     A
C464   O512    1.294   .     A
C465   C467    1.407   .     A
C465   C473    1.413   .     A
C465   H503    1.080   .     S
C466   H504    1.080   .     S
C466   C468    1.407   .     A
C466   C474    1.413   .     A
C467   H505    1.082   .     S
C467   N509    1.363   .     A
C468   N510    1.363   .     A
C468   H506    1.082   .     S
C469   N509    1.369   .     A
C469   C471    1.416   .     A
C469   O519    1.384   .     S
C470   N510    1.369   .     A
C470   C472    1.415   .     A
C470   O524    1.383   .     S
C471   H507    1.080   .     S
C471   C473    1.408   .     A
C472   H508    1.080   .     S
C472   C474    1.409   .     A
C474   C77     1.521   1_556 S
C475   O515    1.286   .     A
C475   C477    1.435   .     S
C475   O517    1.290   .     A
C476   O518    1.290   .     A
C476   C478    1.435   .     S
C476   O516    1.286   .     A
C478   C543    1.337   .     S
C478   H560    1.087   .     S
C479   H495    1.083   .     S
C479   C489    1.403   .     A
C479   C481    1.390   .     A
C480   H496    1.083   .     S
C480   C490    1.403   .     A
C480   C482    1.390   .     A
C481   C483    1.402   .     A
C481   H497    1.083   .     S
C482   C484    1.402   .     A
C482   H498    1.083   .     S
C483   C485    1.401   .     A
C484   C486    1.402   .     A
C485   H499    1.083   .     S
C485   C487    1.390   .     A
C486   C488    1.390   .     A
C486   H500    1.083   .     S
C487   H501    1.083   .     S
C487   C489    1.404   .     A
C488   H502    1.083   .     S
C488   C490    1.404   .     A
C489   C688    1.470   1_545 S
C490   C687    1.470   .     S
Cu491  Cu492   2.680   .     S
Cu491  O518    1.959   .     S
Cu491  O511    1.956   .     S
Cu491  N510    2.013   .     S
Cu491  O515    1.956   .     S
Cu491  O514    1.958   .     S
Cu492  O513    1.958   .     S
Cu492  O517    1.959   .     S
Cu492  O512    1.956   .     S
Cu492  O516    1.956   .     S
Cu492  N509    2.013   .     S
H493   C543    1.087   .     S
O519   C520    1.412   .     S
C520   H523    1.111   .     S
C520   H522    1.114   .     S
C520   H521    1.109   .     S
O524   C525    1.412   .     S
C525   H527    1.115   .     S
C525   H528    1.111   .     S
C525   H526    1.109   .     S
C529   C549    1.460   .     S
C529   O579    1.295   .     A
C529   O577    1.294   .     A
C530   C550    1.461   .     S
C530   O580    1.295   .     A
C530   O578    1.294   .     A
C531   C533    1.407   .     A
C531   C539    1.413   .     A
C531   H569    1.080   .     S
C532   H570    1.080   .     S
C532   C534    1.407   .     A
C532   C540    1.413   .     A
C533   H571    1.082   .     S
C533   N575    1.363   .     A
C534   N576    1.363   .     A
C534   H572    1.082   .     S
C535   N575    1.369   .     A
C535   C537    1.416   .     A
C535   O585    1.384   .     S
C536   N576    1.369   .     A
C536   C538    1.415   .     A
C536   O590    1.383   .     S
C537   H573    1.080   .     S
C537   C539    1.408   .     A
C538   H574    1.080   .     S
C538   C540    1.409   .     A
C540   C143    1.521   1_556 S
C541   O581    1.286   .     A
C541   C543    1.435   .     S
C541   O583    1.290   .     A
C542   O584    1.290   .     A
C542   C544    1.435   .     S
C542   O582    1.286   .     A
C544   C411    1.337   1_655 S
C544   H428    1.087   1_655 S
C545   H561    1.083   .     S
C545   C555    1.403   .     A
C545   C547    1.390   .     A
C546   H562    1.083   .     S
C546   C556    1.403   .     A
C546   C548    1.390   .     A
C547   C549    1.402   .     A
C547   H563    1.083   .     S
C548   C550    1.402   .     A
C548   H564    1.083   .     S
C549   C551    1.401   .     A
C550   C552    1.402   .     A
C551   H565    1.083   .     S
C551   C553    1.390   .     A
C552   C554    1.390   .     A
C552   H566    1.083   .     S
C553   H567    1.083   .     S
C553   C555    1.404   .     A
C554   H568    1.083   .     S
C554   C556    1.404   .     A
C555   C754    1.470   1_545 S
C556   C753    1.470   .     S
Cu557  Cu558   2.680   .     S
Cu557  O584    1.959   .     S
Cu557  O577    1.956   .     S
Cu557  N576    2.013   .     S
Cu557  O581    1.956   .     S
Cu557  O580    1.958   .     S
Cu558  O579    1.958   .     S
Cu558  O583    1.959   .     S
Cu558  O578    1.956   .     S
Cu558  O582    1.956   .     S
Cu558  N575    2.013   .     S
H559   C411    1.087   1_655 S
O585   C586    1.412   .     S
C586   H589    1.111   .     S
C586   H588    1.114   .     S
C586   H587    1.109   .     S
O590   C591    1.412   .     S
C591   H593    1.115   .     S
C591   H594    1.111   .     S
C591   H592    1.109   .     S
C595   C615    1.460   .     S
C595   O645    1.295   .     A
C595   O643    1.294   .     A
C596   C616    1.461   .     S
C596   O646    1.295   .     A
C596   O644    1.294   .     A
C597   C599    1.407   .     A
C597   C605    1.413   .     A
C597   H635    1.080   .     S
C598   H636    1.080   .     S
C598   C600    1.407   .     A
C598   C606    1.413   .     A
C599   H637    1.082   .     S
C599   N641    1.363   .     A
C600   N642    1.363   .     A
C600   H638    1.082   .     S
C601   N641    1.369   .     A
C601   C603    1.416   .     A
C601   O651    1.384   .     S
C602   N642    1.369   .     A
C602   C604    1.415   .     A
C602   O656    1.383   .     S
C603   H639    1.080   .     S
C603   C605    1.408   .     A
C604   H640    1.080   .     S
C604   C606    1.409   .     A
C606   C209    1.521   1_556 S
C607   O647    1.286   .     A
C607   C609    1.435   .     S
C607   O649    1.290   .     A
C608   O650    1.290   .     A
C608   C610    1.435   .     S
C608   O648    1.286   .     A
C609   C742    1.337   1_455 S
C609   H757    1.087   1_455 S
C610   C675    1.337   .     S
C610   H692    1.087   .     S
C611   H627    1.083   .     S
C611   C621    1.403   .     A
C611   C613    1.390   .     A
C612   H628    1.083   .     S
C612   C622    1.403   .     A
C612   C614    1.390   .     A
C613   C615    1.402   .     A
C613   H629    1.083   .     S
C614   C616    1.402   .     A
C614   H630    1.083   .     S
C615   C617    1.401   .     A
C616   C618    1.402   .     A
C617   H631    1.083   .     S
C617   C619    1.390   .     A
C618   C620    1.390   .     A
C618   H632    1.083   .     S
C619   H633    1.083   .     S
C619   C621    1.404   .     A
C620   H634    1.083   .     S
C620   C622    1.404   .     A
C622   C423    1.470   1_565 S
Cu623  Cu624   2.680   .     S
Cu623  O650    1.959   .     S
Cu623  O643    1.956   .     S
Cu623  N642    2.013   .     S
Cu623  O647    1.956   .     S
Cu623  O646    1.958   .     S
Cu624  O645    1.958   .     S
Cu624  O649    1.959   .     S
Cu624  O644    1.956   .     S
Cu624  O648    1.956   .     S
Cu624  N641    2.013   .     S
H625   C675    1.087   .     S
H626   C742    1.087   1_455 S
O651   C652    1.412   .     S
C652   H655    1.111   .     S
C652   H654    1.114   .     S
C652   H653    1.109   .     S
O656   C657    1.412   .     S
C657   H659    1.115   .     S
C657   H660    1.111   .     S
C657   H658    1.109   .     S
C661   C681    1.460   .     S
C661   O711    1.295   .     A
C661   O709    1.294   .     A
C662   C682    1.461   .     S
C662   O712    1.295   .     A
C662   O710    1.294   .     A
C663   C665    1.407   .     A
C663   C671    1.413   .     A
C663   H701    1.080   .     S
C664   H702    1.080   .     S
C664   C666    1.407   .     A
C664   C672    1.413   .     A
C665   H703    1.082   .     S
C665   N707    1.363   .     A
C666   N708    1.363   .     A
C666   H704    1.082   .     S
C667   N707    1.369   .     A
C667   C669    1.416   .     A
C667   O717    1.384   .     S
C668   N708    1.369   .     A
C668   C670    1.415   .     A
C668   O722    1.383   .     S
C669   H705    1.080   .     S
C669   C671    1.408   .     A
C670   H706    1.080   .     S
C670   C672    1.409   .     A
C672   C275    1.521   1_556 S
C673   O713    1.286   .     A
C673   C675    1.435   .     S
C673   O715    1.290   .     A
C674   O716    1.290   .     A
C674   C676    1.435   .     S
C674   O714    1.286   .     A
C676   C741    1.337   .     S
C676   H758    1.087   .     S
C677   H693    1.083   .     S
C677   C687    1.403   .     A
C677   C679    1.390   .     A
C678   H694    1.083   .     S
C678   C688    1.403   .     A
C678   C680    1.390   .     A
C679   C681    1.402   .     A
C679   H695    1.083   .     S
C680   C682    1.402   .     A
C680   H696    1.083   .     S
C681   C683    1.401   .     A
C682   C684    1.402   .     A
C683   H697    1.083   .     S
C683   C685    1.390   .     A
C684   C686    1.390   .     A
C684   H698    1.083   .     S
C685   H699    1.083   .     S
C685   C687    1.404   .     A
C686   H700    1.083   .     S
C686   C688    1.404   .     A
C688   C489    1.470   1_565 S
Cu689  Cu690   2.680   .     S
Cu689  O716    1.959   .     S
Cu689  O709    1.956   .     S
Cu689  N708    2.013   .     S
Cu689  O713    1.956   .     S
Cu689  O712    1.958   .     S
Cu690  O711    1.958   .     S
Cu690  O715    1.959   .     S
Cu690  O710    1.956   .     S
Cu690  O714    1.956   .     S
Cu690  N707    2.013   .     S
H691   C741    1.087   .     S
O717   C718    1.412   .     S
C718   H721    1.111   .     S
C718   H720    1.114   .     S
C718   H719    1.109   .     S
O722   C723    1.412   .     S
C723   H725    1.115   .     S
C723   H726    1.111   .     S
C723   H724    1.109   .     S
C727   C747    1.460   .     S
C727   O777    1.295   .     A
C727   O775    1.294   .     A
C728   C748    1.461   .     S
C728   O778    1.295   .     A
C728   O776    1.294   .     A
C729   C731    1.407   .     A
C729   C737    1.413   .     A
C729   H767    1.080   .     S
C730   H768    1.080   .     S
C730   C732    1.407   .     A
C730   C738    1.413   .     A
C731   H769    1.082   .     S
C731   N773    1.363   .     A
C732   N774    1.363   .     A
C732   H770    1.082   .     S
C733   N773    1.369   .     A
C733   C735    1.416   .     A
C733   O783    1.384   .     S
C734   N774    1.369   .     A
C734   C736    1.415   .     A
C734   O788    1.383   .     S
C735   H771    1.080   .     S
C735   C737    1.408   .     A
C736   H772    1.080   .     S
C736   C738    1.409   .     A
C738   C341    1.521   1_556 S
C739   O779    1.286   .     A
C739   C741    1.435   .     S
C739   O781    1.290   .     A
C740   O782    1.290   .     A
C740   C742    1.435   .     S
C740   O780    1.286   .     A
C742   C609    1.337   1_655 S
C742   H626    1.087   1_655 S
C743   H759    1.083   .     S
C743   C753    1.403   .     A
C743   C745    1.390   .     A
C744   H760    1.083   .     S
C744   C754    1.403   .     A
C744   C746    1.390   .     A
C745   C747    1.402   .     A
C745   H761    1.083   .     S
C746   C748    1.402   .     A
C746   H762    1.083   .     S
C747   C749    1.401   .     A
C748   C750    1.402   .     A
C749   H763    1.083   .     S
C749   C751    1.390   .     A
C750   C752    1.390   .     A
C750   H764    1.083   .     S
C751   H765    1.083   .     S
C751   C753    1.404   .     A
C752   H766    1.083   .     S
C752   C754    1.404   .     A
C754   C555    1.470   1_565 S
Cu755  Cu756   2.680   .     S
Cu755  O782    1.959   .     S
Cu755  O775    1.956   .     S
Cu755  N774    2.013   .     S
Cu755  O779    1.956   .     S
Cu755  O778    1.958   .     S
Cu756  O777    1.958   .     S
Cu756  O781    1.959   .     S
Cu756  O776    1.956   .     S
Cu756  O780    1.956   .     S
Cu756  N773    2.013   .     S
H757   C609    1.087   1_655 S
O783   C784    1.412   .     S
C784   H787    1.111   .     S
C784   H786    1.114   .     S
C784   H785    1.109   .     S
O788   C789    1.412   .     S
C789   H791    1.115   .     S
C789   H792    1.111   .     S
C789   H790    1.109   .     S
