data_str_m2_o1_o17_pcu_sym.193
_audit_creation_date              2020-01-03
_audit_creation_method            'Materials Studio'
_symmetry_space_group_name_H-M    'P1'
_symmetry_Int_Tables_number       1
_symmetry_cell_setting            triclinic
loop_
_symmetry_equiv_pos_as_xyz
  x,y,z
_cell_length_a                    32.6085
_cell_length_b                    28.5575
_cell_length_c                    30.0757
_cell_angle_alpha                 89.9915
_cell_angle_beta                  91.4245
_cell_angle_gamma                 90.0054
loop_
_atom_site_label
_atom_site_type_symbol
_atom_site_fract_x
_atom_site_fract_y
_atom_site_fract_z
_atom_site_U_iso_or_equiv
_atom_site_adp_type
_atom_site_occupancy
C1     C     0.08734   0.16665   0.25016   0.00000  Uiso   1.00
C2     C     0.24599   0.16666   0.24974   0.00000  Uiso   1.00
C3     C     0.09108   0.17003   0.01815   0.00000  Uiso   1.00
C4     C     0.24219   0.17063   0.48189   0.00000  Uiso   1.00
C5     C     0.02124   0.12409   0.24978   0.00000  Uiso   1.00
C6     C     0.31209   0.20914   0.25016   0.00000  Uiso   1.00
C7     C     0.31205   0.12410   0.24886   0.00000  Uiso   1.00
C8     C     0.02126   0.20913   0.25048   0.00000  Uiso   1.00
C9     C     0.29060   0.16663   0.24941   0.00000  Uiso   1.00
C10    C     0.04272   0.16662   0.25029   0.00000  Uiso   1.00
C11    C     0.13902   0.02478   0.22424   0.00000  Uiso   1.00
C12    C     0.19428   0.30852   0.27582   0.00000  Uiso   1.00
C13    C     0.19432   0.02478   0.27576   0.00000  Uiso   1.00
C14    C     0.13905   0.30852   0.22418   0.00000  Uiso   1.00
C15    C     0.16499   0.16672   0.16455   0.00000  Uiso   1.00
C16    C     0.16831   0.16671   0.33545   0.00000  Uiso   1.00
C17    C     0.20720   0.16982   0.40811   0.00000  Uiso   1.00
C18    C     0.12609   0.16990   0.09192   0.00000  Uiso   1.00
C19    C     0.16987   0.16722   0.38368   0.00000  Uiso   1.00
C20    C     0.16343   0.16726   0.11634   0.00000  Uiso   1.00
C21    C     0.13261   0.16636   0.40462   0.00000  Uiso   1.00
C22    C     0.20068   0.16655   0.09539   0.00000  Uiso   1.00
C23    C     0.13043   0.16967   0.45082   0.00000  Uiso   1.00
C24    C     0.20285   0.17000   0.04921   0.00000  Uiso   1.00
C25    C     0.16742   0.17114   0.47654   0.00000  Uiso   1.00
C26    C     0.16585   0.17118   0.02348   0.00000  Uiso   1.00
C27    C     0.20599   0.17083   0.45534   0.00000  Uiso   1.00
C28    C     0.12729   0.17068   0.04469   0.00000  Uiso   1.00
C29    C     0.09206   0.17020   0.47178   0.00000  Uiso   1.00
C30    C     0.24121   0.17093   0.02826   0.00000  Uiso   1.00
Cu31   Cu    0.16667   0.21355   0.25000   0.00000  Uiso   1.00
Cu32   Cu    0.16667   0.11978   0.25000   0.00000  Uiso   1.00
N33    N     0.16667   0.28402   0.25000   0.00000  Uiso   1.00
N34    N     0.16667   0.04931   0.25000   0.00000  Uiso   1.00
O35    O     0.10655   0.20625   0.24999   0.00000  Uiso   1.00
O36    O     0.22679   0.12709   0.25000   0.00000  Uiso   1.00
O37    O     0.22679   0.20625   0.25000   0.00000  Uiso   1.00
O38    O     0.10655   0.12709   0.24999   0.00000  Uiso   1.00
O39    O     0.16666   0.20627   0.18513   0.00000  Uiso   1.00
O40    O     0.16668   0.12707   0.31487   0.00000  Uiso   1.00
O41    O     0.16668   0.20627   0.31487   0.00000  Uiso   1.00
O42    O     0.16666   0.12707   0.18513   0.00000  Uiso   1.00
C43    C     0.24741   0.16768   0.38342   0.00000  Uiso   1.00
C44    C     0.26047   0.11649   0.37748   0.00000  Uiso   1.00
C45    C     0.30514   0.11252   0.36452   0.00000  Uiso   1.00
H46    H     0.31290   0.13920   0.33932   0.00000  Uiso   1.00
H47    H     0.32488   0.11772   0.39445   0.00000  Uiso   1.00
H48    H     0.31116   0.07709   0.35096   0.00000  Uiso   1.00
H49    H     0.25633   0.09648   0.40878   0.00000  Uiso   1.00
H50    H     0.24079   0.10016   0.35113   0.00000  Uiso   1.00
H51    H     0.24422   0.18432   0.35015   0.00000  Uiso   1.00
H52    H     0.27176   0.18885   0.40007   0.00000  Uiso   1.00
C53    C     0.08589   0.16835   0.11666   0.00000  Uiso   1.00
C54    C     0.07275   0.11732   0.12374   0.00000  Uiso   1.00
C55    C     0.02760   0.11362   0.13480   0.00000  Uiso   1.00
H56    H     0.01887   0.14096   0.15897   0.00000  Uiso   1.00
H57    H     0.00900   0.11792   0.10389   0.00000  Uiso   1.00
H58    H     0.02112   0.07854   0.14894   0.00000  Uiso   1.00
H59    H     0.07810   0.09617   0.09337   0.00000  Uiso   1.00
H60    H     0.09147   0.10206   0.15143   0.00000  Uiso   1.00
H61    H     0.08912   0.18578   0.14956   0.00000  Uiso   1.00
H62    H     0.06156   0.18920   0.09960   0.00000  Uiso   1.00
H63    H     0.10534   0.16307   0.38368   0.00000  Uiso   1.00
H64    H     0.22798   0.16337   0.11633   0.00000  Uiso   1.00
C65    C     0.05156   0.16773   0.44570   0.00000  Uiso   1.00
C66    C     0.04184   0.21268   0.41897   0.00000  Uiso   1.00
C67    C     0.02307   0.25066   0.44753   0.00000  Uiso   1.00
H68    H     0.32651   0.23847   0.45997   0.00000  Uiso   1.00
H69    H     0.04418   0.25965   0.47579   0.00000  Uiso   1.00
H70    H     0.01763   0.28260   0.42717   0.00000  Uiso   1.00
H71    H     0.06959   0.22733   0.40355   0.00000  Uiso   1.00
H72    H     0.01960   0.20401   0.39161   0.00000  Uiso   1.00
H73    H     0.05302   0.13734   0.42288   0.00000  Uiso   1.00
H74    H     0.02552   0.15997   0.46773   0.00000  Uiso   1.00
C75    C     0.28173   0.16907   0.05436   0.00000  Uiso   1.00
C76    C     0.29089   0.21410   0.08117   0.00000  Uiso   1.00
C77    C     0.30955   0.25234   0.05281   0.00000  Uiso   1.00
H78    H     0.00643   0.24062   0.04087   0.00000  Uiso   1.00
H79    H     0.28869   0.26097   0.02424   0.00000  Uiso   1.00
H80    H     0.31435   0.28441   0.07316   0.00000  Uiso   1.00
H81    H     0.26290   0.22842   0.09637   0.00000  Uiso   1.00
H82    H     0.31301   0.20563   0.10871   0.00000  Uiso   1.00
H83    H     0.28060   0.13863   0.07715   0.00000  Uiso   1.00
H84    H     0.30788   0.16178   0.03234   0.00000  Uiso   1.00
H85    H     0.06132   0.16798   0.03284   0.00000  Uiso   1.00
H86    H     0.27197   0.16893   0.46722   0.00000  Uiso   1.00
H87    H     0.03720   0.09083   0.24954   0.00000  Uiso   1.00
H88    H     0.29615   0.24240   0.25057   0.00000  Uiso   1.00
H89    H     0.29608   0.09084   0.24829   0.00000  Uiso   1.00
H90    H     0.03723   0.24239   0.25089   0.00000  Uiso   1.00
H91    H     0.11683   0.04342   0.20366   0.00000  Uiso   1.00
H92    H     0.21639   0.28981   0.29652   0.00000  Uiso   1.00
H93    H     0.21652   0.04342   0.29632   0.00000  Uiso   1.00
H94    H     0.11695   0.28982   0.20347   0.00000  Uiso   1.00
C95    C     0.42067   0.16665   0.25016   0.00000  Uiso   1.00
C96    C     0.57932   0.16666   0.24974   0.00000  Uiso   1.00
C97    C     0.42442   0.17003   0.01815   0.00000  Uiso   1.00
C98    C     0.57553   0.17063   0.48189   0.00000  Uiso   1.00
C99    C     0.35458   0.12409   0.24978   0.00000  Uiso   1.00
C100   C     0.64543   0.20914   0.25016   0.00000  Uiso   1.00
C101   C     0.64539   0.12410   0.24886   0.00000  Uiso   1.00
C102   C     0.35459   0.20913   0.25048   0.00000  Uiso   1.00
C103   C     0.62393   0.16663   0.24941   0.00000  Uiso   1.00
C104   C     0.37606   0.16662   0.25029   0.00000  Uiso   1.00
C105   C     0.47235   0.02478   0.22424   0.00000  Uiso   1.00
C106   C     0.52762   0.30852   0.27582   0.00000  Uiso   1.00
C107   C     0.52765   0.02478   0.27576   0.00000  Uiso   1.00
C108   C     0.47239   0.30852   0.22418   0.00000  Uiso   1.00
C109   C     0.49832   0.16672   0.16455   0.00000  Uiso   1.00
C110   C     0.50164   0.16671   0.33545   0.00000  Uiso   1.00
C111   C     0.54054   0.16982   0.40811   0.00000  Uiso   1.00
C112   C     0.45942   0.16990   0.09192   0.00000  Uiso   1.00
C113   C     0.50320   0.16722   0.38368   0.00000  Uiso   1.00
C114   C     0.49676   0.16726   0.11634   0.00000  Uiso   1.00
C115   C     0.46595   0.16636   0.40462   0.00000  Uiso   1.00
C116   C     0.53402   0.16655   0.09539   0.00000  Uiso   1.00
C117   C     0.46376   0.16967   0.45082   0.00000  Uiso   1.00
C118   C     0.53618   0.17000   0.04921   0.00000  Uiso   1.00
C119   C     0.50075   0.17114   0.47654   0.00000  Uiso   1.00
C120   C     0.49918   0.17118   0.02348   0.00000  Uiso   1.00
C121   C     0.53932   0.17083   0.45534   0.00000  Uiso   1.00
C122   C     0.46062   0.17068   0.04469   0.00000  Uiso   1.00
C123   C     0.42540   0.17020   0.47178   0.00000  Uiso   1.00
C124   C     0.57454   0.17093   0.02826   0.00000  Uiso   1.00
Cu125  Cu    0.50000   0.21355   0.25000   0.00000  Uiso   1.00
Cu126  Cu    0.50000   0.11978   0.25000   0.00000  Uiso   1.00
N127   N     0.50000   0.28402   0.25000   0.00000  Uiso   1.00
N128   N     0.50000   0.04931   0.25000   0.00000  Uiso   1.00
O129   O     0.43988   0.20625   0.24999   0.00000  Uiso   1.00
O130   O     0.56012   0.12709   0.25000   0.00000  Uiso   1.00
O131   O     0.56012   0.20625   0.25000   0.00000  Uiso   1.00
O132   O     0.43988   0.12709   0.24999   0.00000  Uiso   1.00
O133   O     0.49999   0.20627   0.18513   0.00000  Uiso   1.00
O134   O     0.50001   0.12707   0.31487   0.00000  Uiso   1.00
O135   O     0.50001   0.20627   0.31487   0.00000  Uiso   1.00
O136   O     0.49999   0.12707   0.18513   0.00000  Uiso   1.00
C137   C     0.58074   0.16768   0.38342   0.00000  Uiso   1.00
C138   C     0.59380   0.11649   0.37748   0.00000  Uiso   1.00
C139   C     0.63847   0.11252   0.36452   0.00000  Uiso   1.00
H140   H     0.64623   0.13920   0.33932   0.00000  Uiso   1.00
H141   H     0.65822   0.11772   0.39445   0.00000  Uiso   1.00
H142   H     0.64449   0.07709   0.35096   0.00000  Uiso   1.00
H143   H     0.58966   0.09648   0.40878   0.00000  Uiso   1.00
H144   H     0.57412   0.10016   0.35113   0.00000  Uiso   1.00
H145   H     0.57756   0.18432   0.35015   0.00000  Uiso   1.00
H146   H     0.60510   0.18885   0.40007   0.00000  Uiso   1.00
C147   C     0.41922   0.16835   0.11666   0.00000  Uiso   1.00
C148   C     0.40608   0.11732   0.12374   0.00000  Uiso   1.00
C149   C     0.36093   0.11362   0.13480   0.00000  Uiso   1.00
H150   H     0.35220   0.14096   0.15897   0.00000  Uiso   1.00
H151   H     0.34233   0.11792   0.10389   0.00000  Uiso   1.00
H152   H     0.35446   0.07854   0.14894   0.00000  Uiso   1.00
H153   H     0.41143   0.09617   0.09337   0.00000  Uiso   1.00
H154   H     0.42481   0.10206   0.15143   0.00000  Uiso   1.00
H155   H     0.42245   0.18578   0.14956   0.00000  Uiso   1.00
H156   H     0.39489   0.18920   0.09960   0.00000  Uiso   1.00
H157   H     0.43867   0.16307   0.38368   0.00000  Uiso   1.00
H158   H     0.56131   0.16337   0.11633   0.00000  Uiso   1.00
C159   C     0.38489   0.16773   0.44570   0.00000  Uiso   1.00
C160   C     0.37517   0.21268   0.41897   0.00000  Uiso   1.00
C161   C     0.35640   0.25066   0.44753   0.00000  Uiso   1.00
H162   H     0.65984   0.23847   0.45997   0.00000  Uiso   1.00
H163   H     0.37751   0.25965   0.47579   0.00000  Uiso   1.00
H164   H     0.35097   0.28260   0.42717   0.00000  Uiso   1.00
H165   H     0.40292   0.22733   0.40355   0.00000  Uiso   1.00
H166   H     0.35293   0.20401   0.39161   0.00000  Uiso   1.00
H167   H     0.38636   0.13734   0.42288   0.00000  Uiso   1.00
H168   H     0.35885   0.15997   0.46773   0.00000  Uiso   1.00
C169   C     0.61506   0.16907   0.05436   0.00000  Uiso   1.00
C170   C     0.62422   0.21410   0.08117   0.00000  Uiso   1.00
C171   C     0.64289   0.25234   0.05281   0.00000  Uiso   1.00
H172   H     0.33977   0.24062   0.04087   0.00000  Uiso   1.00
H173   H     0.62202   0.26097   0.02424   0.00000  Uiso   1.00
H174   H     0.64768   0.28441   0.07316   0.00000  Uiso   1.00
H175   H     0.59623   0.22842   0.09637   0.00000  Uiso   1.00
H176   H     0.64635   0.20563   0.10871   0.00000  Uiso   1.00
H177   H     0.61394   0.13863   0.07715   0.00000  Uiso   1.00
H178   H     0.64121   0.16178   0.03234   0.00000  Uiso   1.00
H179   H     0.39466   0.16798   0.03284   0.00000  Uiso   1.00
H180   H     0.60531   0.16893   0.46722   0.00000  Uiso   1.00
H181   H     0.37053   0.09083   0.24954   0.00000  Uiso   1.00
H182   H     0.62948   0.24240   0.25057   0.00000  Uiso   1.00
H183   H     0.62941   0.09084   0.24829   0.00000  Uiso   1.00
H184   H     0.37056   0.24239   0.25089   0.00000  Uiso   1.00
H185   H     0.45016   0.04342   0.20366   0.00000  Uiso   1.00
H186   H     0.54972   0.28981   0.29652   0.00000  Uiso   1.00
H187   H     0.54985   0.04342   0.29632   0.00000  Uiso   1.00
H188   H     0.45029   0.28982   0.20347   0.00000  Uiso   1.00
C189   C     0.75401   0.16665   0.25016   0.00000  Uiso   1.00
C190   C     0.91266   0.16666   0.24974   0.00000  Uiso   1.00
C191   C     0.75775   0.17003   0.01815   0.00000  Uiso   1.00
C192   C     0.90886   0.17063   0.48189   0.00000  Uiso   1.00
C193   C     0.68791   0.12409   0.24978   0.00000  Uiso   1.00
C194   C     0.97876   0.20914   0.25016   0.00000  Uiso   1.00
C195   C     0.97872   0.12410   0.24886   0.00000  Uiso   1.00
C196   C     0.68793   0.20913   0.25048   0.00000  Uiso   1.00
C197   C     0.95727   0.16663   0.24941   0.00000  Uiso   1.00
C198   C     0.70939   0.16662   0.25029   0.00000  Uiso   1.00
C199   C     0.80569   0.02478   0.22424   0.00000  Uiso   1.00
C200   C     0.86095   0.30852   0.27582   0.00000  Uiso   1.00
C201   C     0.86099   0.02478   0.27576   0.00000  Uiso   1.00
C202   C     0.80572   0.30852   0.22418   0.00000  Uiso   1.00
C203   C     0.83165   0.16672   0.16455   0.00000  Uiso   1.00
C204   C     0.83497   0.16671   0.33545   0.00000  Uiso   1.00
C205   C     0.87387   0.16982   0.40811   0.00000  Uiso   1.00
C206   C     0.79275   0.16990   0.09192   0.00000  Uiso   1.00
C207   C     0.83653   0.16722   0.38368   0.00000  Uiso   1.00
C208   C     0.83010   0.16726   0.11634   0.00000  Uiso   1.00
C209   C     0.79928   0.16636   0.40462   0.00000  Uiso   1.00
C210   C     0.86735   0.16655   0.09539   0.00000  Uiso   1.00
C211   C     0.79709   0.16967   0.45082   0.00000  Uiso   1.00
C212   C     0.86952   0.17000   0.04921   0.00000  Uiso   1.00
C213   C     0.83409   0.17114   0.47654   0.00000  Uiso   1.00
C214   C     0.83252   0.17118   0.02348   0.00000  Uiso   1.00
C215   C     0.87265   0.17083   0.45534   0.00000  Uiso   1.00
C216   C     0.79396   0.17068   0.04469   0.00000  Uiso   1.00
C217   C     0.75873   0.17020   0.47178   0.00000  Uiso   1.00
C218   C     0.90788   0.17093   0.02826   0.00000  Uiso   1.00
Cu219  Cu    0.83333   0.21355   0.25000   0.00000  Uiso   1.00
Cu220  Cu    0.83333   0.11978   0.25000   0.00000  Uiso   1.00
N221   N     0.83333   0.28402   0.25000   0.00000  Uiso   1.00
N222   N     0.83333   0.04931   0.25000   0.00000  Uiso   1.00
O223   O     0.77321   0.20625   0.24999   0.00000  Uiso   1.00
O224   O     0.89345   0.12709   0.25000   0.00000  Uiso   1.00
O225   O     0.89345   0.20625   0.25000   0.00000  Uiso   1.00
O226   O     0.77321   0.12709   0.24999   0.00000  Uiso   1.00
O227   O     0.83332   0.20627   0.18513   0.00000  Uiso   1.00
O228   O     0.83334   0.12707   0.31487   0.00000  Uiso   1.00
O229   O     0.83334   0.20627   0.31487   0.00000  Uiso   1.00
O230   O     0.83332   0.12707   0.18513   0.00000  Uiso   1.00
C231   C     0.91408   0.16768   0.38342   0.00000  Uiso   1.00
C232   C     0.92713   0.11649   0.37748   0.00000  Uiso   1.00
C233   C     0.97180   0.11252   0.36452   0.00000  Uiso   1.00
H234   H     0.97956   0.13920   0.33932   0.00000  Uiso   1.00
H235   H     0.99155   0.11772   0.39445   0.00000  Uiso   1.00
H236   H     0.97782   0.07709   0.35096   0.00000  Uiso   1.00
H237   H     0.92299   0.09648   0.40878   0.00000  Uiso   1.00
H238   H     0.90746   0.10016   0.35113   0.00000  Uiso   1.00
H239   H     0.91089   0.18432   0.35015   0.00000  Uiso   1.00
H240   H     0.93843   0.18885   0.40007   0.00000  Uiso   1.00
C241   C     0.75255   0.16835   0.11666   0.00000  Uiso   1.00
C242   C     0.73942   0.11732   0.12374   0.00000  Uiso   1.00
C243   C     0.69427   0.11362   0.13480   0.00000  Uiso   1.00
H244   H     0.68554   0.14096   0.15897   0.00000  Uiso   1.00
H245   H     0.67567   0.11792   0.10389   0.00000  Uiso   1.00
H246   H     0.68779   0.07854   0.14894   0.00000  Uiso   1.00
H247   H     0.74477   0.09617   0.09337   0.00000  Uiso   1.00
H248   H     0.75814   0.10206   0.15143   0.00000  Uiso   1.00
H249   H     0.75579   0.18578   0.14956   0.00000  Uiso   1.00
H250   H     0.72822   0.18920   0.09960   0.00000  Uiso   1.00
H251   H     0.77200   0.16307   0.38368   0.00000  Uiso   1.00
H252   H     0.89464   0.16337   0.11633   0.00000  Uiso   1.00
C253   C     0.71823   0.16773   0.44570   0.00000  Uiso   1.00
C254   C     0.70850   0.21268   0.41897   0.00000  Uiso   1.00
C255   C     0.68974   0.25066   0.44753   0.00000  Uiso   1.00
H256   H     0.99317   0.23847   0.45997   0.00000  Uiso   1.00
H257   H     0.71085   0.25965   0.47579   0.00000  Uiso   1.00
H258   H     0.68430   0.28260   0.42717   0.00000  Uiso   1.00
H259   H     0.73626   0.22733   0.40355   0.00000  Uiso   1.00
H260   H     0.68626   0.20401   0.39161   0.00000  Uiso   1.00
H261   H     0.71969   0.13734   0.42288   0.00000  Uiso   1.00
H262   H     0.69218   0.15997   0.46773   0.00000  Uiso   1.00
C263   C     0.94840   0.16907   0.05436   0.00000  Uiso   1.00
C264   C     0.95756   0.21410   0.08117   0.00000  Uiso   1.00
C265   C     0.97622   0.25234   0.05281   0.00000  Uiso   1.00
H266   H     0.67310   0.24062   0.04087   0.00000  Uiso   1.00
H267   H     0.95536   0.26097   0.02424   0.00000  Uiso   1.00
H268   H     0.98101   0.28441   0.07316   0.00000  Uiso   1.00
H269   H     0.92957   0.22842   0.09637   0.00000  Uiso   1.00
H270   H     0.97968   0.20563   0.10871   0.00000  Uiso   1.00
H271   H     0.94727   0.13863   0.07715   0.00000  Uiso   1.00
H272   H     0.97455   0.16178   0.03234   0.00000  Uiso   1.00
H273   H     0.72799   0.16798   0.03284   0.00000  Uiso   1.00
H274   H     0.93864   0.16893   0.46722   0.00000  Uiso   1.00
H275   H     0.70386   0.09083   0.24954   0.00000  Uiso   1.00
H276   H     0.96282   0.24240   0.25057   0.00000  Uiso   1.00
H277   H     0.96274   0.09084   0.24829   0.00000  Uiso   1.00
H278   H     0.70389   0.24239   0.25089   0.00000  Uiso   1.00
H279   H     0.78349   0.04342   0.20366   0.00000  Uiso   1.00
H280   H     0.88306   0.28981   0.29652   0.00000  Uiso   1.00
H281   H     0.88319   0.04342   0.29632   0.00000  Uiso   1.00
H282   H     0.78362   0.28982   0.20347   0.00000  Uiso   1.00
C283   C     0.08734   0.49999   0.25016   0.00000  Uiso   1.00
C284   C     0.24599   0.49999   0.24974   0.00000  Uiso   1.00
C285   C     0.09108   0.50336   0.01815   0.00000  Uiso   1.00
C286   C     0.24219   0.50397   0.48189   0.00000  Uiso   1.00
C287   C     0.02124   0.45742   0.24978   0.00000  Uiso   1.00
C288   C     0.31209   0.54247   0.25016   0.00000  Uiso   1.00
C289   C     0.31205   0.45743   0.24886   0.00000  Uiso   1.00
C290   C     0.02126   0.54246   0.25048   0.00000  Uiso   1.00
C291   C     0.29060   0.49997   0.24941   0.00000  Uiso   1.00
C292   C     0.04272   0.49995   0.25029   0.00000  Uiso   1.00
C293   C     0.13902   0.35812   0.22424   0.00000  Uiso   1.00
C294   C     0.19428   0.64185   0.27582   0.00000  Uiso   1.00
C295   C     0.19432   0.35812   0.27576   0.00000  Uiso   1.00
C296   C     0.13905   0.64185   0.22418   0.00000  Uiso   1.00
C297   C     0.16499   0.50005   0.16455   0.00000  Uiso   1.00
C298   C     0.16831   0.50004   0.33545   0.00000  Uiso   1.00
C299   C     0.20720   0.50315   0.40811   0.00000  Uiso   1.00
C300   C     0.12609   0.50323   0.09192   0.00000  Uiso   1.00
C301   C     0.16987   0.50055   0.38368   0.00000  Uiso   1.00
C302   C     0.16343   0.50060   0.11634   0.00000  Uiso   1.00
C303   C     0.13261   0.49969   0.40462   0.00000  Uiso   1.00
C304   C     0.20068   0.49989   0.09539   0.00000  Uiso   1.00
C305   C     0.13043   0.50301   0.45082   0.00000  Uiso   1.00
C306   C     0.20285   0.50333   0.04921   0.00000  Uiso   1.00
C307   C     0.16742   0.50447   0.47654   0.00000  Uiso   1.00
C308   C     0.16585   0.50451   0.02348   0.00000  Uiso   1.00
C309   C     0.20599   0.50417   0.45534   0.00000  Uiso   1.00
C310   C     0.12729   0.50402   0.04469   0.00000  Uiso   1.00
C311   C     0.09206   0.50353   0.47178   0.00000  Uiso   1.00
C312   C     0.24121   0.50426   0.02826   0.00000  Uiso   1.00
Cu313  Cu    0.16667   0.54689   0.25000   0.00000  Uiso   1.00
Cu314  Cu    0.16667   0.45311   0.25000   0.00000  Uiso   1.00
N315   N     0.16667   0.61736   0.25000   0.00000  Uiso   1.00
N316   N     0.16667   0.38264   0.25000   0.00000  Uiso   1.00
O317   O     0.10655   0.53958   0.24999   0.00000  Uiso   1.00
O318   O     0.22679   0.46042   0.25000   0.00000  Uiso   1.00
O319   O     0.22679   0.53958   0.25000   0.00000  Uiso   1.00
O320   O     0.10655   0.46042   0.24999   0.00000  Uiso   1.00
O321   O     0.16666   0.53960   0.18513   0.00000  Uiso   1.00
O322   O     0.16668   0.46040   0.31487   0.00000  Uiso   1.00
O323   O     0.16668   0.53960   0.31487   0.00000  Uiso   1.00
O324   O     0.16666   0.46040   0.18513   0.00000  Uiso   1.00
C325   C     0.24741   0.50102   0.38342   0.00000  Uiso   1.00
C326   C     0.26047   0.44982   0.37748   0.00000  Uiso   1.00
C327   C     0.30514   0.44585   0.36452   0.00000  Uiso   1.00
H328   H     0.31290   0.47253   0.33932   0.00000  Uiso   1.00
H329   H     0.32488   0.45105   0.39445   0.00000  Uiso   1.00
H330   H     0.31116   0.41042   0.35096   0.00000  Uiso   1.00
H331   H     0.25633   0.42981   0.40878   0.00000  Uiso   1.00
H332   H     0.24079   0.43350   0.35113   0.00000  Uiso   1.00
H333   H     0.24422   0.51765   0.35015   0.00000  Uiso   1.00
H334   H     0.27176   0.52218   0.40007   0.00000  Uiso   1.00
C335   C     0.08589   0.50168   0.11666   0.00000  Uiso   1.00
C336   C     0.07275   0.45066   0.12374   0.00000  Uiso   1.00
C337   C     0.02760   0.44695   0.13480   0.00000  Uiso   1.00
H338   H     0.01887   0.47430   0.15897   0.00000  Uiso   1.00
H339   H     0.00900   0.45126   0.10389   0.00000  Uiso   1.00
H340   H     0.02112   0.41188   0.14894   0.00000  Uiso   1.00
H341   H     0.07810   0.42951   0.09337   0.00000  Uiso   1.00
H342   H     0.09147   0.43540   0.15143   0.00000  Uiso   1.00
H343   H     0.08912   0.51912   0.14956   0.00000  Uiso   1.00
H344   H     0.06156   0.52253   0.09960   0.00000  Uiso   1.00
H345   H     0.10534   0.49641   0.38368   0.00000  Uiso   1.00
H346   H     0.22798   0.49671   0.11633   0.00000  Uiso   1.00
C347   C     0.05156   0.50106   0.44570   0.00000  Uiso   1.00
C348   C     0.04184   0.54601   0.41897   0.00000  Uiso   1.00
C349   C     0.02307   0.58399   0.44753   0.00000  Uiso   1.00
H350   H     0.32651   0.57180   0.45997   0.00000  Uiso   1.00
H351   H     0.04418   0.59298   0.47579   0.00000  Uiso   1.00
H352   H     0.01763   0.61593   0.42717   0.00000  Uiso   1.00
H353   H     0.06959   0.56066   0.40355   0.00000  Uiso   1.00
H354   H     0.01960   0.53734   0.39161   0.00000  Uiso   1.00
H355   H     0.05302   0.47067   0.42288   0.00000  Uiso   1.00
H356   H     0.02552   0.49330   0.46773   0.00000  Uiso   1.00
C357   C     0.28173   0.50241   0.05436   0.00000  Uiso   1.00
C358   C     0.29089   0.54743   0.08117   0.00000  Uiso   1.00
C359   C     0.30955   0.58567   0.05281   0.00000  Uiso   1.00
H360   H     0.00643   0.57395   0.04087   0.00000  Uiso   1.00
H361   H     0.28869   0.59430   0.02424   0.00000  Uiso   1.00
H362   H     0.31435   0.61774   0.07316   0.00000  Uiso   1.00
H363   H     0.26290   0.56175   0.09637   0.00000  Uiso   1.00
H364   H     0.31301   0.53897   0.10871   0.00000  Uiso   1.00
H365   H     0.28060   0.47196   0.07715   0.00000  Uiso   1.00
H366   H     0.30788   0.49511   0.03234   0.00000  Uiso   1.00
H367   H     0.06132   0.50132   0.03284   0.00000  Uiso   1.00
H368   H     0.27197   0.50226   0.46722   0.00000  Uiso   1.00
H369   H     0.03720   0.42416   0.24954   0.00000  Uiso   1.00
H370   H     0.29615   0.57573   0.25057   0.00000  Uiso   1.00
H371   H     0.29608   0.42418   0.24829   0.00000  Uiso   1.00
H372   H     0.03723   0.57573   0.25089   0.00000  Uiso   1.00
H373   H     0.11683   0.37675   0.20366   0.00000  Uiso   1.00
H374   H     0.21639   0.62315   0.29652   0.00000  Uiso   1.00
H375   H     0.21652   0.37675   0.29632   0.00000  Uiso   1.00
H376   H     0.11695   0.62315   0.20347   0.00000  Uiso   1.00
C377   C     0.42067   0.49999   0.25016   0.00000  Uiso   1.00
C378   C     0.57932   0.49999   0.24974   0.00000  Uiso   1.00
C379   C     0.42442   0.50336   0.01815   0.00000  Uiso   1.00
C380   C     0.57553   0.50397   0.48189   0.00000  Uiso   1.00
C381   C     0.35458   0.45742   0.24978   0.00000  Uiso   1.00
C382   C     0.64543   0.54247   0.25016   0.00000  Uiso   1.00
C383   C     0.64539   0.45743   0.24886   0.00000  Uiso   1.00
C384   C     0.35459   0.54246   0.25048   0.00000  Uiso   1.00
C385   C     0.62393   0.49997   0.24941   0.00000  Uiso   1.00
C386   C     0.37606   0.49995   0.25029   0.00000  Uiso   1.00
C387   C     0.47235   0.35812   0.22424   0.00000  Uiso   1.00
C388   C     0.52762   0.64185   0.27582   0.00000  Uiso   1.00
C389   C     0.52765   0.35812   0.27576   0.00000  Uiso   1.00
C390   C     0.47239   0.64185   0.22418   0.00000  Uiso   1.00
C391   C     0.49832   0.50005   0.16455   0.00000  Uiso   1.00
C392   C     0.50164   0.50004   0.33545   0.00000  Uiso   1.00
C393   C     0.54054   0.50315   0.40811   0.00000  Uiso   1.00
C394   C     0.45942   0.50323   0.09192   0.00000  Uiso   1.00
C395   C     0.50320   0.50055   0.38368   0.00000  Uiso   1.00
C396   C     0.49676   0.50060   0.11634   0.00000  Uiso   1.00
C397   C     0.46595   0.49969   0.40462   0.00000  Uiso   1.00
C398   C     0.53402   0.49989   0.09539   0.00000  Uiso   1.00
C399   C     0.46376   0.50301   0.45082   0.00000  Uiso   1.00
C400   C     0.53618   0.50333   0.04921   0.00000  Uiso   1.00
C401   C     0.50075   0.50447   0.47654   0.00000  Uiso   1.00
C402   C     0.49918   0.50451   0.02348   0.00000  Uiso   1.00
C403   C     0.53932   0.50417   0.45534   0.00000  Uiso   1.00
C404   C     0.46062   0.50402   0.04469   0.00000  Uiso   1.00
C405   C     0.42540   0.50353   0.47178   0.00000  Uiso   1.00
C406   C     0.57454   0.50426   0.02826   0.00000  Uiso   1.00
Cu407  Cu    0.50000   0.54689   0.25000   0.00000  Uiso   1.00
Cu408  Cu    0.50000   0.45311   0.25000   0.00000  Uiso   1.00
N409   N     0.50000   0.61736   0.25000   0.00000  Uiso   1.00
N410   N     0.50000   0.38264   0.25000   0.00000  Uiso   1.00
O411   O     0.43988   0.53958   0.24999   0.00000  Uiso   1.00
O412   O     0.56012   0.46042   0.25000   0.00000  Uiso   1.00
O413   O     0.56012   0.53958   0.25000   0.00000  Uiso   1.00
O414   O     0.43988   0.46042   0.24999   0.00000  Uiso   1.00
O415   O     0.49999   0.53960   0.18513   0.00000  Uiso   1.00
O416   O     0.50001   0.46040   0.31487   0.00000  Uiso   1.00
O417   O     0.50001   0.53960   0.31487   0.00000  Uiso   1.00
O418   O     0.49999   0.46040   0.18513   0.00000  Uiso   1.00
C419   C     0.58074   0.50102   0.38342   0.00000  Uiso   1.00
C420   C     0.59380   0.44982   0.37748   0.00000  Uiso   1.00
C421   C     0.63847   0.44585   0.36452   0.00000  Uiso   1.00
H422   H     0.64623   0.47253   0.33932   0.00000  Uiso   1.00
H423   H     0.65822   0.45105   0.39445   0.00000  Uiso   1.00
H424   H     0.64449   0.41042   0.35096   0.00000  Uiso   1.00
H425   H     0.58966   0.42981   0.40878   0.00000  Uiso   1.00
H426   H     0.57412   0.43350   0.35113   0.00000  Uiso   1.00
H427   H     0.57756   0.51765   0.35015   0.00000  Uiso   1.00
H428   H     0.60510   0.52218   0.40007   0.00000  Uiso   1.00
C429   C     0.41922   0.50168   0.11666   0.00000  Uiso   1.00
C430   C     0.40608   0.45066   0.12374   0.00000  Uiso   1.00
C431   C     0.36093   0.44695   0.13480   0.00000  Uiso   1.00
H432   H     0.35220   0.47430   0.15897   0.00000  Uiso   1.00
H433   H     0.34233   0.45126   0.10389   0.00000  Uiso   1.00
H434   H     0.35446   0.41188   0.14894   0.00000  Uiso   1.00
H435   H     0.41143   0.42951   0.09337   0.00000  Uiso   1.00
H436   H     0.42481   0.43540   0.15143   0.00000  Uiso   1.00
H437   H     0.42245   0.51912   0.14956   0.00000  Uiso   1.00
H438   H     0.39489   0.52253   0.09960   0.00000  Uiso   1.00
H439   H     0.43867   0.49641   0.38368   0.00000  Uiso   1.00
H440   H     0.56131   0.49671   0.11633   0.00000  Uiso   1.00
C441   C     0.38489   0.50106   0.44570   0.00000  Uiso   1.00
C442   C     0.37517   0.54601   0.41897   0.00000  Uiso   1.00
C443   C     0.35640   0.58399   0.44753   0.00000  Uiso   1.00
H444   H     0.65984   0.57180   0.45997   0.00000  Uiso   1.00
H445   H     0.37751   0.59298   0.47579   0.00000  Uiso   1.00
H446   H     0.35097   0.61593   0.42717   0.00000  Uiso   1.00
H447   H     0.40292   0.56066   0.40355   0.00000  Uiso   1.00
H448   H     0.35293   0.53734   0.39161   0.00000  Uiso   1.00
H449   H     0.38636   0.47067   0.42288   0.00000  Uiso   1.00
H450   H     0.35885   0.49330   0.46773   0.00000  Uiso   1.00
C451   C     0.61506   0.50241   0.05436   0.00000  Uiso   1.00
C452   C     0.62422   0.54743   0.08117   0.00000  Uiso   1.00
C453   C     0.64289   0.58567   0.05281   0.00000  Uiso   1.00
H454   H     0.33977   0.57395   0.04087   0.00000  Uiso   1.00
H455   H     0.62202   0.59430   0.02424   0.00000  Uiso   1.00
H456   H     0.64768   0.61774   0.07316   0.00000  Uiso   1.00
H457   H     0.59623   0.56175   0.09637   0.00000  Uiso   1.00
H458   H     0.64635   0.53897   0.10871   0.00000  Uiso   1.00
H459   H     0.61394   0.47196   0.07715   0.00000  Uiso   1.00
H460   H     0.64121   0.49511   0.03234   0.00000  Uiso   1.00
H461   H     0.39466   0.50132   0.03284   0.00000  Uiso   1.00
H462   H     0.60531   0.50226   0.46722   0.00000  Uiso   1.00
H463   H     0.37053   0.42416   0.24954   0.00000  Uiso   1.00
H464   H     0.62948   0.57573   0.25057   0.00000  Uiso   1.00
H465   H     0.62941   0.42418   0.24829   0.00000  Uiso   1.00
H466   H     0.37056   0.57573   0.25089   0.00000  Uiso   1.00
H467   H     0.45016   0.37675   0.20366   0.00000  Uiso   1.00
H468   H     0.54972   0.62315   0.29652   0.00000  Uiso   1.00
H469   H     0.54985   0.37675   0.29632   0.00000  Uiso   1.00
H470   H     0.45029   0.62315   0.20347   0.00000  Uiso   1.00
C471   C     0.75401   0.49999   0.25016   0.00000  Uiso   1.00
C472   C     0.91266   0.49999   0.24974   0.00000  Uiso   1.00
C473   C     0.75775   0.50336   0.01815   0.00000  Uiso   1.00
C474   C     0.90886   0.50397   0.48189   0.00000  Uiso   1.00
C475   C     0.68791   0.45742   0.24978   0.00000  Uiso   1.00
C476   C     0.97876   0.54247   0.25016   0.00000  Uiso   1.00
C477   C     0.97872   0.45743   0.24886   0.00000  Uiso   1.00
C478   C     0.68793   0.54246   0.25048   0.00000  Uiso   1.00
C479   C     0.95727   0.49997   0.24941   0.00000  Uiso   1.00
C480   C     0.70939   0.49995   0.25029   0.00000  Uiso   1.00
C481   C     0.80569   0.35812   0.22424   0.00000  Uiso   1.00
C482   C     0.86095   0.64185   0.27582   0.00000  Uiso   1.00
C483   C     0.86099   0.35812   0.27576   0.00000  Uiso   1.00
C484   C     0.80572   0.64185   0.22418   0.00000  Uiso   1.00
C485   C     0.83165   0.50005   0.16455   0.00000  Uiso   1.00
C486   C     0.83497   0.50004   0.33545   0.00000  Uiso   1.00
C487   C     0.87387   0.50315   0.40811   0.00000  Uiso   1.00
C488   C     0.79275   0.50323   0.09192   0.00000  Uiso   1.00
C489   C     0.83653   0.50055   0.38368   0.00000  Uiso   1.00
C490   C     0.83010   0.50060   0.11634   0.00000  Uiso   1.00
C491   C     0.79928   0.49969   0.40462   0.00000  Uiso   1.00
C492   C     0.86735   0.49989   0.09539   0.00000  Uiso   1.00
C493   C     0.79709   0.50301   0.45082   0.00000  Uiso   1.00
C494   C     0.86952   0.50333   0.04921   0.00000  Uiso   1.00
C495   C     0.83409   0.50447   0.47654   0.00000  Uiso   1.00
C496   C     0.83252   0.50451   0.02348   0.00000  Uiso   1.00
C497   C     0.87265   0.50417   0.45534   0.00000  Uiso   1.00
C498   C     0.79396   0.50402   0.04469   0.00000  Uiso   1.00
C499   C     0.75873   0.50353   0.47178   0.00000  Uiso   1.00
C500   C     0.90788   0.50426   0.02826   0.00000  Uiso   1.00
Cu501  Cu    0.83333   0.54689   0.25000   0.00000  Uiso   1.00
Cu502  Cu    0.83333   0.45311   0.25000   0.00000  Uiso   1.00
N503   N     0.83333   0.61736   0.25000   0.00000  Uiso   1.00
N504   N     0.83333   0.38264   0.25000   0.00000  Uiso   1.00
O505   O     0.77321   0.53958   0.24999   0.00000  Uiso   1.00
O506   O     0.89345   0.46042   0.25000   0.00000  Uiso   1.00
O507   O     0.89345   0.53958   0.25000   0.00000  Uiso   1.00
O508   O     0.77321   0.46042   0.24999   0.00000  Uiso   1.00
O509   O     0.83332   0.53960   0.18513   0.00000  Uiso   1.00
O510   O     0.83334   0.46040   0.31487   0.00000  Uiso   1.00
O511   O     0.83334   0.53960   0.31487   0.00000  Uiso   1.00
O512   O     0.83332   0.46040   0.18513   0.00000  Uiso   1.00
C513   C     0.91408   0.50102   0.38342   0.00000  Uiso   1.00
C514   C     0.92713   0.44982   0.37748   0.00000  Uiso   1.00
C515   C     0.97180   0.44585   0.36452   0.00000  Uiso   1.00
H516   H     0.97956   0.47253   0.33932   0.00000  Uiso   1.00
H517   H     0.99155   0.45105   0.39445   0.00000  Uiso   1.00
H518   H     0.97782   0.41042   0.35096   0.00000  Uiso   1.00
H519   H     0.92299   0.42981   0.40878   0.00000  Uiso   1.00
H520   H     0.90746   0.43350   0.35113   0.00000  Uiso   1.00
H521   H     0.91089   0.51765   0.35015   0.00000  Uiso   1.00
H522   H     0.93843   0.52218   0.40007   0.00000  Uiso   1.00
C523   C     0.75255   0.50168   0.11666   0.00000  Uiso   1.00
C524   C     0.73942   0.45066   0.12374   0.00000  Uiso   1.00
C525   C     0.69427   0.44695   0.13480   0.00000  Uiso   1.00
H526   H     0.68554   0.47430   0.15897   0.00000  Uiso   1.00
H527   H     0.67567   0.45126   0.10389   0.00000  Uiso   1.00
H528   H     0.68779   0.41188   0.14894   0.00000  Uiso   1.00
H529   H     0.74477   0.42951   0.09337   0.00000  Uiso   1.00
H530   H     0.75814   0.43540   0.15143   0.00000  Uiso   1.00
H531   H     0.75579   0.51912   0.14956   0.00000  Uiso   1.00
H532   H     0.72822   0.52253   0.09960   0.00000  Uiso   1.00
H533   H     0.77200   0.49641   0.38368   0.00000  Uiso   1.00
H534   H     0.89464   0.49671   0.11633   0.00000  Uiso   1.00
C535   C     0.71823   0.50106   0.44570   0.00000  Uiso   1.00
C536   C     0.70850   0.54601   0.41897   0.00000  Uiso   1.00
C537   C     0.68974   0.58399   0.44753   0.00000  Uiso   1.00
H538   H     0.99317   0.57180   0.45997   0.00000  Uiso   1.00
H539   H     0.71085   0.59298   0.47579   0.00000  Uiso   1.00
H540   H     0.68430   0.61593   0.42717   0.00000  Uiso   1.00
H541   H     0.73626   0.56066   0.40355   0.00000  Uiso   1.00
H542   H     0.68626   0.53734   0.39161   0.00000  Uiso   1.00
H543   H     0.71969   0.47067   0.42288   0.00000  Uiso   1.00
H544   H     0.69218   0.49330   0.46773   0.00000  Uiso   1.00
C545   C     0.94840   0.50241   0.05436   0.00000  Uiso   1.00
C546   C     0.95756   0.54743   0.08117   0.00000  Uiso   1.00
C547   C     0.97622   0.58567   0.05281   0.00000  Uiso   1.00
H548   H     0.67310   0.57395   0.04087   0.00000  Uiso   1.00
H549   H     0.95536   0.59430   0.02424   0.00000  Uiso   1.00
H550   H     0.98101   0.61774   0.07316   0.00000  Uiso   1.00
H551   H     0.92957   0.56175   0.09637   0.00000  Uiso   1.00
H552   H     0.97968   0.53897   0.10871   0.00000  Uiso   1.00
H553   H     0.94727   0.47196   0.07715   0.00000  Uiso   1.00
H554   H     0.97455   0.49511   0.03234   0.00000  Uiso   1.00
H555   H     0.72799   0.50132   0.03284   0.00000  Uiso   1.00
H556   H     0.93864   0.50226   0.46722   0.00000  Uiso   1.00
H557   H     0.70386   0.42416   0.24954   0.00000  Uiso   1.00
H558   H     0.96282   0.57573   0.25057   0.00000  Uiso   1.00
H559   H     0.96274   0.42418   0.24829   0.00000  Uiso   1.00
H560   H     0.70389   0.57573   0.25089   0.00000  Uiso   1.00
H561   H     0.78349   0.37675   0.20366   0.00000  Uiso   1.00
H562   H     0.88306   0.62315   0.29652   0.00000  Uiso   1.00
H563   H     0.88319   0.37675   0.29632   0.00000  Uiso   1.00
H564   H     0.78362   0.62315   0.20347   0.00000  Uiso   1.00
C565   C     0.08734   0.83332   0.25016   0.00000  Uiso   1.00
C566   C     0.24599   0.83333   0.24974   0.00000  Uiso   1.00
C567   C     0.09108   0.83669   0.01815   0.00000  Uiso   1.00
C568   C     0.24219   0.83730   0.48189   0.00000  Uiso   1.00
C569   C     0.02124   0.79075   0.24978   0.00000  Uiso   1.00
C570   C     0.31209   0.87580   0.25016   0.00000  Uiso   1.00
C571   C     0.31205   0.79077   0.24886   0.00000  Uiso   1.00
C572   C     0.02126   0.87580   0.25048   0.00000  Uiso   1.00
C573   C     0.29060   0.83330   0.24941   0.00000  Uiso   1.00
C574   C     0.04272   0.83329   0.25029   0.00000  Uiso   1.00
C575   C     0.13902   0.69145   0.22424   0.00000  Uiso   1.00
C576   C     0.19428   0.97518   0.27582   0.00000  Uiso   1.00
C577   C     0.19432   0.69145   0.27576   0.00000  Uiso   1.00
C578   C     0.13905   0.97518   0.22418   0.00000  Uiso   1.00
C579   C     0.16499   0.83338   0.16455   0.00000  Uiso   1.00
C580   C     0.16831   0.83337   0.33545   0.00000  Uiso   1.00
C581   C     0.20720   0.83649   0.40811   0.00000  Uiso   1.00
C582   C     0.12609   0.83656   0.09192   0.00000  Uiso   1.00
C583   C     0.16987   0.83389   0.38368   0.00000  Uiso   1.00
C584   C     0.16343   0.83393   0.11634   0.00000  Uiso   1.00
C585   C     0.13261   0.83302   0.40462   0.00000  Uiso   1.00
C586   C     0.20068   0.83322   0.09539   0.00000  Uiso   1.00
C587   C     0.13043   0.83634   0.45082   0.00000  Uiso   1.00
C588   C     0.20285   0.83666   0.04921   0.00000  Uiso   1.00
C589   C     0.16742   0.83781   0.47654   0.00000  Uiso   1.00
C590   C     0.16585   0.83784   0.02348   0.00000  Uiso   1.00
C591   C     0.20599   0.83750   0.45534   0.00000  Uiso   1.00
C592   C     0.12729   0.83735   0.04469   0.00000  Uiso   1.00
C593   C     0.09206   0.83687   0.47178   0.00000  Uiso   1.00
C594   C     0.24121   0.83760   0.02826   0.00000  Uiso   1.00
Cu595  Cu    0.16667   0.88022   0.25000   0.00000  Uiso   1.00
Cu596  Cu    0.16667   0.78645   0.25000   0.00000  Uiso   1.00
N597   N     0.16667   0.95069   0.25000   0.00000  Uiso   1.00
N598   N     0.16667   0.71598   0.25000   0.00000  Uiso   1.00
O599   O     0.10655   0.87291   0.24999   0.00000  Uiso   1.00
O600   O     0.22679   0.79375   0.25000   0.00000  Uiso   1.00
O601   O     0.22679   0.87291   0.25000   0.00000  Uiso   1.00
O602   O     0.10655   0.79375   0.24999   0.00000  Uiso   1.00
O603   O     0.16666   0.87293   0.18513   0.00000  Uiso   1.00
O604   O     0.16668   0.79373   0.31487   0.00000  Uiso   1.00
O605   O     0.16668   0.87293   0.31487   0.00000  Uiso   1.00
O606   O     0.16666   0.79373   0.18513   0.00000  Uiso   1.00
C607   C     0.24741   0.83435   0.38342   0.00000  Uiso   1.00
C608   C     0.26047   0.78315   0.37748   0.00000  Uiso   1.00
C609   C     0.30514   0.77918   0.36452   0.00000  Uiso   1.00
H610   H     0.31290   0.80587   0.33932   0.00000  Uiso   1.00
H611   H     0.32488   0.78438   0.39445   0.00000  Uiso   1.00
H612   H     0.31116   0.74375   0.35096   0.00000  Uiso   1.00
H613   H     0.25633   0.76315   0.40878   0.00000  Uiso   1.00
H614   H     0.24079   0.76683   0.35113   0.00000  Uiso   1.00
H615   H     0.24422   0.85099   0.35015   0.00000  Uiso   1.00
H616   H     0.27176   0.85552   0.40007   0.00000  Uiso   1.00
C617   C     0.08589   0.83501   0.11666   0.00000  Uiso   1.00
C618   C     0.07275   0.78399   0.12374   0.00000  Uiso   1.00
C619   C     0.02760   0.78028   0.13480   0.00000  Uiso   1.00
H620   H     0.01887   0.80763   0.15897   0.00000  Uiso   1.00
H621   H     0.00900   0.78459   0.10389   0.00000  Uiso   1.00
H622   H     0.02112   0.74521   0.14894   0.00000  Uiso   1.00
H623   H     0.07810   0.76284   0.09337   0.00000  Uiso   1.00
H624   H     0.09147   0.76873   0.15143   0.00000  Uiso   1.00
H625   H     0.08912   0.85245   0.14956   0.00000  Uiso   1.00
H626   H     0.06156   0.85587   0.09960   0.00000  Uiso   1.00
H627   H     0.10534   0.82974   0.38368   0.00000  Uiso   1.00
H628   H     0.22798   0.83004   0.11633   0.00000  Uiso   1.00
C629   C     0.05156   0.83440   0.44570   0.00000  Uiso   1.00
C630   C     0.04184   0.87934   0.41897   0.00000  Uiso   1.00
C631   C     0.02307   0.91733   0.44753   0.00000  Uiso   1.00
H632   H     0.32651   0.90513   0.45997   0.00000  Uiso   1.00
H633   H     0.04418   0.92631   0.47579   0.00000  Uiso   1.00
H634   H     0.01763   0.94926   0.42717   0.00000  Uiso   1.00
H635   H     0.06959   0.89399   0.40355   0.00000  Uiso   1.00
H636   H     0.01960   0.87067   0.39161   0.00000  Uiso   1.00
H637   H     0.05302   0.80401   0.42288   0.00000  Uiso   1.00
H638   H     0.02552   0.82664   0.46773   0.00000  Uiso   1.00
C639   C     0.28173   0.83574   0.05436   0.00000  Uiso   1.00
C640   C     0.29089   0.88077   0.08117   0.00000  Uiso   1.00
C641   C     0.30955   0.91901   0.05281   0.00000  Uiso   1.00
H642   H     0.00643   0.90729   0.04087   0.00000  Uiso   1.00
H643   H     0.28869   0.92763   0.02424   0.00000  Uiso   1.00
H644   H     0.31435   0.95107   0.07316   0.00000  Uiso   1.00
H645   H     0.26290   0.89508   0.09637   0.00000  Uiso   1.00
H646   H     0.31301   0.87230   0.10871   0.00000  Uiso   1.00
H647   H     0.28060   0.80530   0.07715   0.00000  Uiso   1.00
H648   H     0.30788   0.82844   0.03234   0.00000  Uiso   1.00
H649   H     0.06132   0.83465   0.03284   0.00000  Uiso   1.00
H650   H     0.27197   0.83559   0.46722   0.00000  Uiso   1.00
H651   H     0.03720   0.75750   0.24954   0.00000  Uiso   1.00
H652   H     0.29615   0.90907   0.25057   0.00000  Uiso   1.00
H653   H     0.29608   0.75751   0.24829   0.00000  Uiso   1.00
H654   H     0.03723   0.90906   0.25089   0.00000  Uiso   1.00
H655   H     0.11683   0.71008   0.20366   0.00000  Uiso   1.00
H656   H     0.21639   0.95648   0.29652   0.00000  Uiso   1.00
H657   H     0.21652   0.71009   0.29632   0.00000  Uiso   1.00
H658   H     0.11695   0.95648   0.20347   0.00000  Uiso   1.00
C659   C     0.42067   0.83332   0.25016   0.00000  Uiso   1.00
C660   C     0.57932   0.83333   0.24974   0.00000  Uiso   1.00
C661   C     0.42442   0.83669   0.01815   0.00000  Uiso   1.00
C662   C     0.57553   0.83730   0.48189   0.00000  Uiso   1.00
C663   C     0.35458   0.79075   0.24978   0.00000  Uiso   1.00
C664   C     0.64543   0.87580   0.25016   0.00000  Uiso   1.00
C665   C     0.64539   0.79077   0.24886   0.00000  Uiso   1.00
C666   C     0.35459   0.87580   0.25048   0.00000  Uiso   1.00
C667   C     0.62393   0.83330   0.24941   0.00000  Uiso   1.00
C668   C     0.37606   0.83329   0.25029   0.00000  Uiso   1.00
C669   C     0.47235   0.69145   0.22424   0.00000  Uiso   1.00
C670   C     0.52762   0.97518   0.27582   0.00000  Uiso   1.00
C671   C     0.52765   0.69145   0.27576   0.00000  Uiso   1.00
C672   C     0.47239   0.97518   0.22418   0.00000  Uiso   1.00
C673   C     0.49832   0.83338   0.16455   0.00000  Uiso   1.00
C674   C     0.50164   0.83337   0.33545   0.00000  Uiso   1.00
C675   C     0.54054   0.83649   0.40811   0.00000  Uiso   1.00
C676   C     0.45942   0.83656   0.09192   0.00000  Uiso   1.00
C677   C     0.50320   0.83389   0.38368   0.00000  Uiso   1.00
C678   C     0.49676   0.83393   0.11634   0.00000  Uiso   1.00
C679   C     0.46595   0.83302   0.40462   0.00000  Uiso   1.00
C680   C     0.53402   0.83322   0.09539   0.00000  Uiso   1.00
C681   C     0.46376   0.83634   0.45082   0.00000  Uiso   1.00
C682   C     0.53618   0.83666   0.04921   0.00000  Uiso   1.00
C683   C     0.50075   0.83781   0.47654   0.00000  Uiso   1.00
C684   C     0.49918   0.83784   0.02348   0.00000  Uiso   1.00
C685   C     0.53932   0.83750   0.45534   0.00000  Uiso   1.00
C686   C     0.46062   0.83735   0.04469   0.00000  Uiso   1.00
C687   C     0.42540   0.83687   0.47178   0.00000  Uiso   1.00
C688   C     0.57454   0.83760   0.02826   0.00000  Uiso   1.00
Cu689  Cu    0.50000   0.88022   0.25000   0.00000  Uiso   1.00
Cu690  Cu    0.50000   0.78645   0.25000   0.00000  Uiso   1.00
N691   N     0.50000   0.95069   0.25000   0.00000  Uiso   1.00
N692   N     0.50000   0.71598   0.25000   0.00000  Uiso   1.00
O693   O     0.43988   0.87291   0.24999   0.00000  Uiso   1.00
O694   O     0.56012   0.79375   0.25000   0.00000  Uiso   1.00
O695   O     0.56012   0.87291   0.25000   0.00000  Uiso   1.00
O696   O     0.43988   0.79375   0.24999   0.00000  Uiso   1.00
O697   O     0.49999   0.87293   0.18513   0.00000  Uiso   1.00
O698   O     0.50001   0.79373   0.31487   0.00000  Uiso   1.00
O699   O     0.50001   0.87293   0.31487   0.00000  Uiso   1.00
O700   O     0.49999   0.79373   0.18513   0.00000  Uiso   1.00
C701   C     0.58074   0.83435   0.38342   0.00000  Uiso   1.00
C702   C     0.59380   0.78315   0.37748   0.00000  Uiso   1.00
C703   C     0.63847   0.77918   0.36452   0.00000  Uiso   1.00
H704   H     0.64623   0.80587   0.33932   0.00000  Uiso   1.00
H705   H     0.65822   0.78438   0.39445   0.00000  Uiso   1.00
H706   H     0.64449   0.74375   0.35096   0.00000  Uiso   1.00
H707   H     0.58966   0.76315   0.40878   0.00000  Uiso   1.00
H708   H     0.57412   0.76683   0.35113   0.00000  Uiso   1.00
H709   H     0.57756   0.85099   0.35015   0.00000  Uiso   1.00
H710   H     0.60510   0.85552   0.40007   0.00000  Uiso   1.00
C711   C     0.41922   0.83501   0.11666   0.00000  Uiso   1.00
C712   C     0.40608   0.78399   0.12374   0.00000  Uiso   1.00
C713   C     0.36093   0.78028   0.13480   0.00000  Uiso   1.00
H714   H     0.35220   0.80763   0.15897   0.00000  Uiso   1.00
H715   H     0.34233   0.78459   0.10389   0.00000  Uiso   1.00
H716   H     0.35446   0.74521   0.14894   0.00000  Uiso   1.00
H717   H     0.41143   0.76284   0.09337   0.00000  Uiso   1.00
H718   H     0.42481   0.76873   0.15143   0.00000  Uiso   1.00
H719   H     0.42245   0.85245   0.14956   0.00000  Uiso   1.00
H720   H     0.39489   0.85587   0.09960   0.00000  Uiso   1.00
H721   H     0.43867   0.82974   0.38368   0.00000  Uiso   1.00
H722   H     0.56131   0.83004   0.11633   0.00000  Uiso   1.00
C723   C     0.38489   0.83440   0.44570   0.00000  Uiso   1.00
C724   C     0.37517   0.87934   0.41897   0.00000  Uiso   1.00
C725   C     0.35640   0.91733   0.44753   0.00000  Uiso   1.00
H726   H     0.65984   0.90513   0.45997   0.00000  Uiso   1.00
H727   H     0.37751   0.92631   0.47579   0.00000  Uiso   1.00
H728   H     0.35097   0.94926   0.42717   0.00000  Uiso   1.00
H729   H     0.40292   0.89399   0.40355   0.00000  Uiso   1.00
H730   H     0.35293   0.87067   0.39161   0.00000  Uiso   1.00
H731   H     0.38636   0.80401   0.42288   0.00000  Uiso   1.00
H732   H     0.35885   0.82664   0.46773   0.00000  Uiso   1.00
C733   C     0.61506   0.83574   0.05436   0.00000  Uiso   1.00
C734   C     0.62422   0.88077   0.08117   0.00000  Uiso   1.00
C735   C     0.64289   0.91901   0.05281   0.00000  Uiso   1.00
H736   H     0.33977   0.90729   0.04087   0.00000  Uiso   1.00
H737   H     0.62202   0.92763   0.02424   0.00000  Uiso   1.00
H738   H     0.64768   0.95107   0.07316   0.00000  Uiso   1.00
H739   H     0.59623   0.89508   0.09637   0.00000  Uiso   1.00
H740   H     0.64635   0.87230   0.10871   0.00000  Uiso   1.00
H741   H     0.61394   0.80530   0.07715   0.00000  Uiso   1.00
H742   H     0.64121   0.82844   0.03234   0.00000  Uiso   1.00
H743   H     0.39466   0.83465   0.03284   0.00000  Uiso   1.00
H744   H     0.60531   0.83559   0.46722   0.00000  Uiso   1.00
H745   H     0.37053   0.75750   0.24954   0.00000  Uiso   1.00
H746   H     0.62948   0.90907   0.25057   0.00000  Uiso   1.00
H747   H     0.62941   0.75751   0.24829   0.00000  Uiso   1.00
H748   H     0.37056   0.90906   0.25089   0.00000  Uiso   1.00
H749   H     0.45016   0.71008   0.20366   0.00000  Uiso   1.00
H750   H     0.54972   0.95648   0.29652   0.00000  Uiso   1.00
H751   H     0.54985   0.71009   0.29632   0.00000  Uiso   1.00
H752   H     0.45029   0.95648   0.20347   0.00000  Uiso   1.00
C753   C     0.75401   0.83332   0.25016   0.00000  Uiso   1.00
C754   C     0.91266   0.83333   0.24974   0.00000  Uiso   1.00
C755   C     0.75775   0.83669   0.01815   0.00000  Uiso   1.00
C756   C     0.90886   0.83730   0.48189   0.00000  Uiso   1.00
C757   C     0.68791   0.79075   0.24978   0.00000  Uiso   1.00
C758   C     0.97876   0.87580   0.25016   0.00000  Uiso   1.00
C759   C     0.97872   0.79077   0.24886   0.00000  Uiso   1.00
C760   C     0.68793   0.87580   0.25048   0.00000  Uiso   1.00
C761   C     0.95727   0.83330   0.24941   0.00000  Uiso   1.00
C762   C     0.70939   0.83329   0.25029   0.00000  Uiso   1.00
C763   C     0.80569   0.69145   0.22424   0.00000  Uiso   1.00
C764   C     0.86095   0.97518   0.27582   0.00000  Uiso   1.00
C765   C     0.86099   0.69145   0.27576   0.00000  Uiso   1.00
C766   C     0.80572   0.97518   0.22418   0.00000  Uiso   1.00
C767   C     0.83165   0.83338   0.16455   0.00000  Uiso   1.00
C768   C     0.83497   0.83337   0.33545   0.00000  Uiso   1.00
C769   C     0.87387   0.83649   0.40811   0.00000  Uiso   1.00
C770   C     0.79275   0.83656   0.09192   0.00000  Uiso   1.00
C771   C     0.83653   0.83389   0.38368   0.00000  Uiso   1.00
C772   C     0.83010   0.83393   0.11634   0.00000  Uiso   1.00
C773   C     0.79928   0.83302   0.40462   0.00000  Uiso   1.00
C774   C     0.86735   0.83322   0.09539   0.00000  Uiso   1.00
C775   C     0.79709   0.83634   0.45082   0.00000  Uiso   1.00
C776   C     0.86952   0.83666   0.04921   0.00000  Uiso   1.00
C777   C     0.83409   0.83781   0.47654   0.00000  Uiso   1.00
C778   C     0.83252   0.83784   0.02348   0.00000  Uiso   1.00
C779   C     0.87265   0.83750   0.45534   0.00000  Uiso   1.00
C780   C     0.79396   0.83735   0.04469   0.00000  Uiso   1.00
C781   C     0.75873   0.83687   0.47178   0.00000  Uiso   1.00
C782   C     0.90788   0.83760   0.02826   0.00000  Uiso   1.00
Cu783  Cu    0.83333   0.88022   0.25000   0.00000  Uiso   1.00
Cu784  Cu    0.83333   0.78645   0.25000   0.00000  Uiso   1.00
N785   N     0.83333   0.95069   0.25000   0.00000  Uiso   1.00
N786   N     0.83333   0.71598   0.25000   0.00000  Uiso   1.00
O787   O     0.77321   0.87291   0.24999   0.00000  Uiso   1.00
O788   O     0.89345   0.79375   0.25000   0.00000  Uiso   1.00
O789   O     0.89345   0.87291   0.25000   0.00000  Uiso   1.00
O790   O     0.77321   0.79375   0.24999   0.00000  Uiso   1.00
O791   O     0.83332   0.87293   0.18513   0.00000  Uiso   1.00
O792   O     0.83334   0.79373   0.31487   0.00000  Uiso   1.00
O793   O     0.83334   0.87293   0.31487   0.00000  Uiso   1.00
O794   O     0.83332   0.79373   0.18513   0.00000  Uiso   1.00
C795   C     0.91408   0.83435   0.38342   0.00000  Uiso   1.00
C796   C     0.92713   0.78315   0.37748   0.00000  Uiso   1.00
C797   C     0.97180   0.77918   0.36452   0.00000  Uiso   1.00
H798   H     0.97956   0.80587   0.33932   0.00000  Uiso   1.00
H799   H     0.99155   0.78438   0.39445   0.00000  Uiso   1.00
H800   H     0.97782   0.74375   0.35096   0.00000  Uiso   1.00
H801   H     0.92299   0.76315   0.40878   0.00000  Uiso   1.00
H802   H     0.90746   0.76683   0.35113   0.00000  Uiso   1.00
H803   H     0.91089   0.85099   0.35015   0.00000  Uiso   1.00
H804   H     0.93843   0.85552   0.40007   0.00000  Uiso   1.00
C805   C     0.75255   0.83501   0.11666   0.00000  Uiso   1.00
C806   C     0.73942   0.78399   0.12374   0.00000  Uiso   1.00
C807   C     0.69427   0.78028   0.13480   0.00000  Uiso   1.00
H808   H     0.68554   0.80763   0.15897   0.00000  Uiso   1.00
H809   H     0.67567   0.78459   0.10389   0.00000  Uiso   1.00
H810   H     0.68779   0.74521   0.14894   0.00000  Uiso   1.00
H811   H     0.74477   0.76284   0.09337   0.00000  Uiso   1.00
H812   H     0.75814   0.76873   0.15143   0.00000  Uiso   1.00
H813   H     0.75579   0.85245   0.14956   0.00000  Uiso   1.00
H814   H     0.72822   0.85587   0.09960   0.00000  Uiso   1.00
H815   H     0.77200   0.82974   0.38368   0.00000  Uiso   1.00
H816   H     0.89464   0.83004   0.11633   0.00000  Uiso   1.00
C817   C     0.71823   0.83440   0.44570   0.00000  Uiso   1.00
C818   C     0.70850   0.87934   0.41897   0.00000  Uiso   1.00
C819   C     0.68974   0.91733   0.44753   0.00000  Uiso   1.00
H820   H     0.99317   0.90513   0.45997   0.00000  Uiso   1.00
H821   H     0.71085   0.92631   0.47579   0.00000  Uiso   1.00
H822   H     0.68430   0.94926   0.42717   0.00000  Uiso   1.00
H823   H     0.73626   0.89399   0.40355   0.00000  Uiso   1.00
H824   H     0.68626   0.87067   0.39161   0.00000  Uiso   1.00
H825   H     0.71969   0.80401   0.42288   0.00000  Uiso   1.00
H826   H     0.69218   0.82664   0.46773   0.00000  Uiso   1.00
C827   C     0.94840   0.83574   0.05436   0.00000  Uiso   1.00
C828   C     0.95756   0.88077   0.08117   0.00000  Uiso   1.00
C829   C     0.97622   0.91901   0.05281   0.00000  Uiso   1.00
H830   H     0.67310   0.90729   0.04087   0.00000  Uiso   1.00
H831   H     0.95536   0.92763   0.02424   0.00000  Uiso   1.00
H832   H     0.98101   0.95107   0.07316   0.00000  Uiso   1.00
H833   H     0.92957   0.89508   0.09637   0.00000  Uiso   1.00
H834   H     0.97968   0.87230   0.10871   0.00000  Uiso   1.00
H835   H     0.94727   0.80530   0.07715   0.00000  Uiso   1.00
H836   H     0.97455   0.82844   0.03234   0.00000  Uiso   1.00
H837   H     0.72799   0.83465   0.03284   0.00000  Uiso   1.00
H838   H     0.93864   0.83559   0.46722   0.00000  Uiso   1.00
H839   H     0.70386   0.75750   0.24954   0.00000  Uiso   1.00
H840   H     0.96282   0.90907   0.25057   0.00000  Uiso   1.00
H841   H     0.96274   0.75751   0.24829   0.00000  Uiso   1.00
H842   H     0.70389   0.90906   0.25089   0.00000  Uiso   1.00
H843   H     0.78349   0.71008   0.20366   0.00000  Uiso   1.00
H844   H     0.88306   0.95648   0.29652   0.00000  Uiso   1.00
H845   H     0.88319   0.71009   0.29632   0.00000  Uiso   1.00
H846   H     0.78362   0.95648   0.20347   0.00000  Uiso   1.00
C847   C     0.08734   0.16665   0.75016   0.00000  Uiso   1.00
C848   C     0.24599   0.16666   0.74974   0.00000  Uiso   1.00
C849   C     0.09108   0.17003   0.51815   0.00000  Uiso   1.00
C850   C     0.24219   0.17063   0.98189   0.00000  Uiso   1.00
C851   C     0.02124   0.12409   0.74978   0.00000  Uiso   1.00
C852   C     0.31209   0.20914   0.75016   0.00000  Uiso   1.00
C853   C     0.31205   0.12410   0.74886   0.00000  Uiso   1.00
C854   C     0.02126   0.20913   0.75048   0.00000  Uiso   1.00
C855   C     0.29060   0.16663   0.74941   0.00000  Uiso   1.00
C856   C     0.04272   0.16662   0.75029   0.00000  Uiso   1.00
C857   C     0.13902   0.02478   0.72424   0.00000  Uiso   1.00
C858   C     0.19428   0.30852   0.77582   0.00000  Uiso   1.00
C859   C     0.19432   0.02478   0.77576   0.00000  Uiso   1.00
C860   C     0.13905   0.30852   0.72418   0.00000  Uiso   1.00
C861   C     0.16499   0.16672   0.66455   0.00000  Uiso   1.00
C862   C     0.16831   0.16671   0.83545   0.00000  Uiso   1.00
C863   C     0.20720   0.16982   0.90811   0.00000  Uiso   1.00
C864   C     0.12609   0.16990   0.59192   0.00000  Uiso   1.00
C865   C     0.16987   0.16722   0.88368   0.00000  Uiso   1.00
C866   C     0.16343   0.16726   0.61634   0.00000  Uiso   1.00
C867   C     0.13261   0.16636   0.90462   0.00000  Uiso   1.00
C868   C     0.20068   0.16655   0.59539   0.00000  Uiso   1.00
C869   C     0.13043   0.16967   0.95082   0.00000  Uiso   1.00
C870   C     0.20285   0.17000   0.54921   0.00000  Uiso   1.00
C871   C     0.16742   0.17114   0.97654   0.00000  Uiso   1.00
C872   C     0.16585   0.17118   0.52348   0.00000  Uiso   1.00
C873   C     0.20599   0.17083   0.95534   0.00000  Uiso   1.00
C874   C     0.12729   0.17068   0.54469   0.00000  Uiso   1.00
C875   C     0.09206   0.17020   0.97178   0.00000  Uiso   1.00
C876   C     0.24121   0.17093   0.52826   0.00000  Uiso   1.00
Cu877  Cu    0.16667   0.21355   0.75000   0.00000  Uiso   1.00
Cu878  Cu    0.16667   0.11978   0.75000   0.00000  Uiso   1.00
N879   N     0.16667   0.28402   0.75000   0.00000  Uiso   1.00
N880   N     0.16667   0.04931   0.75000   0.00000  Uiso   1.00
O881   O     0.10655   0.20625   0.74999   0.00000  Uiso   1.00
O882   O     0.22679   0.12709   0.75000   0.00000  Uiso   1.00
O883   O     0.22679   0.20625   0.75000   0.00000  Uiso   1.00
O884   O     0.10655   0.12709   0.74999   0.00000  Uiso   1.00
O885   O     0.16666   0.20627   0.68513   0.00000  Uiso   1.00
O886   O     0.16668   0.12707   0.81487   0.00000  Uiso   1.00
O887   O     0.16668   0.20627   0.81487   0.00000  Uiso   1.00
O888   O     0.16666   0.12707   0.68513   0.00000  Uiso   1.00
C889   C     0.24741   0.16768   0.88342   0.00000  Uiso   1.00
C890   C     0.26047   0.11649   0.87748   0.00000  Uiso   1.00
C891   C     0.30514   0.11252   0.86452   0.00000  Uiso   1.00
H892   H     0.31290   0.13920   0.83932   0.00000  Uiso   1.00
H893   H     0.32488   0.11772   0.89445   0.00000  Uiso   1.00
H894   H     0.31116   0.07709   0.85096   0.00000  Uiso   1.00
H895   H     0.25633   0.09648   0.90878   0.00000  Uiso   1.00
H896   H     0.24079   0.10016   0.85113   0.00000  Uiso   1.00
H897   H     0.24422   0.18432   0.85015   0.00000  Uiso   1.00
H898   H     0.27176   0.18885   0.90007   0.00000  Uiso   1.00
C899   C     0.08589   0.16835   0.61666   0.00000  Uiso   1.00
C900   C     0.07275   0.11732   0.62374   0.00000  Uiso   1.00
C901   C     0.02760   0.11362   0.63480   0.00000  Uiso   1.00
H902   H     0.01887   0.14096   0.65897   0.00000  Uiso   1.00
H903   H     0.00900   0.11792   0.60389   0.00000  Uiso   1.00
H904   H     0.02112   0.07854   0.64894   0.00000  Uiso   1.00
H905   H     0.07810   0.09617   0.59337   0.00000  Uiso   1.00
H906   H     0.09147   0.10206   0.65143   0.00000  Uiso   1.00
H907   H     0.08912   0.18578   0.64956   0.00000  Uiso   1.00
H908   H     0.06156   0.18920   0.59960   0.00000  Uiso   1.00
H909   H     0.10534   0.16307   0.88368   0.00000  Uiso   1.00
H910   H     0.22798   0.16337   0.61633   0.00000  Uiso   1.00
C911   C     0.05156   0.16773   0.94570   0.00000  Uiso   1.00
C912   C     0.04184   0.21268   0.91897   0.00000  Uiso   1.00
C913   C     0.02307   0.25066   0.94753   0.00000  Uiso   1.00
H914   H     0.32651   0.23847   0.95997   0.00000  Uiso   1.00
H915   H     0.04418   0.25965   0.97579   0.00000  Uiso   1.00
H916   H     0.01763   0.28260   0.92717   0.00000  Uiso   1.00
H917   H     0.06959   0.22733   0.90355   0.00000  Uiso   1.00
H918   H     0.01960   0.20401   0.89161   0.00000  Uiso   1.00
H919   H     0.05302   0.13734   0.92288   0.00000  Uiso   1.00
H920   H     0.02552   0.15997   0.96773   0.00000  Uiso   1.00
C921   C     0.28173   0.16907   0.55436   0.00000  Uiso   1.00
C922   C     0.29089   0.21410   0.58117   0.00000  Uiso   1.00
C923   C     0.30955   0.25234   0.55281   0.00000  Uiso   1.00
H924   H     0.00643   0.24062   0.54087   0.00000  Uiso   1.00
H925   H     0.28869   0.26097   0.52424   0.00000  Uiso   1.00
H926   H     0.31435   0.28441   0.57316   0.00000  Uiso   1.00
H927   H     0.26290   0.22842   0.59637   0.00000  Uiso   1.00
H928   H     0.31301   0.20563   0.60871   0.00000  Uiso   1.00
H929   H     0.28060   0.13863   0.57715   0.00000  Uiso   1.00
H930   H     0.30788   0.16178   0.53234   0.00000  Uiso   1.00
H931   H     0.06132   0.16798   0.53284   0.00000  Uiso   1.00
H932   H     0.27197   0.16893   0.96722   0.00000  Uiso   1.00
H933   H     0.03720   0.09083   0.74954   0.00000  Uiso   1.00
H934   H     0.29615   0.24240   0.75057   0.00000  Uiso   1.00
H935   H     0.29608   0.09084   0.74829   0.00000  Uiso   1.00
H936   H     0.03723   0.24239   0.75089   0.00000  Uiso   1.00
H937   H     0.11683   0.04342   0.70366   0.00000  Uiso   1.00
H938   H     0.21639   0.28981   0.79652   0.00000  Uiso   1.00
H939   H     0.21652   0.04342   0.79632   0.00000  Uiso   1.00
H940   H     0.11695   0.28982   0.70347   0.00000  Uiso   1.00
C941   C     0.42067   0.16665   0.75016   0.00000  Uiso   1.00
C942   C     0.57932   0.16666   0.74974   0.00000  Uiso   1.00
C943   C     0.42442   0.17003   0.51815   0.00000  Uiso   1.00
C944   C     0.57553   0.17063   0.98189   0.00000  Uiso   1.00
C945   C     0.35458   0.12409   0.74978   0.00000  Uiso   1.00
C946   C     0.64543   0.20914   0.75016   0.00000  Uiso   1.00
C947   C     0.64539   0.12410   0.74886   0.00000  Uiso   1.00
C948   C     0.35459   0.20913   0.75048   0.00000  Uiso   1.00
C949   C     0.62393   0.16663   0.74941   0.00000  Uiso   1.00
C950   C     0.37606   0.16662   0.75029   0.00000  Uiso   1.00
C951   C     0.47235   0.02478   0.72424   0.00000  Uiso   1.00
C952   C     0.52762   0.30852   0.77582   0.00000  Uiso   1.00
C953   C     0.52765   0.02478   0.77576   0.00000  Uiso   1.00
C954   C     0.47239   0.30852   0.72418   0.00000  Uiso   1.00
C955   C     0.49832   0.16672   0.66455   0.00000  Uiso   1.00
C956   C     0.50164   0.16671   0.83545   0.00000  Uiso   1.00
C957   C     0.54054   0.16982   0.90811   0.00000  Uiso   1.00
C958   C     0.45942   0.16990   0.59192   0.00000  Uiso   1.00
C959   C     0.50320   0.16722   0.88368   0.00000  Uiso   1.00
C960   C     0.49676   0.16726   0.61634   0.00000  Uiso   1.00
C961   C     0.46595   0.16636   0.90462   0.00000  Uiso   1.00
C962   C     0.53402   0.16655   0.59539   0.00000  Uiso   1.00
C963   C     0.46376   0.16967   0.95082   0.00000  Uiso   1.00
C964   C     0.53618   0.17000   0.54921   0.00000  Uiso   1.00
C965   C     0.50075   0.17114   0.97654   0.00000  Uiso   1.00
C966   C     0.49918   0.17118   0.52348   0.00000  Uiso   1.00
C967   C     0.53932   0.17083   0.95534   0.00000  Uiso   1.00
C968   C     0.46062   0.17068   0.54469   0.00000  Uiso   1.00
C969   C     0.42540   0.17020   0.97178   0.00000  Uiso   1.00
C970   C     0.57454   0.17093   0.52826   0.00000  Uiso   1.00
Cu971  Cu    0.50000   0.21355   0.75000   0.00000  Uiso   1.00
Cu972  Cu    0.50000   0.11978   0.75000   0.00000  Uiso   1.00
N973   N     0.50000   0.28402   0.75000   0.00000  Uiso   1.00
N974   N     0.50000   0.04931   0.75000   0.00000  Uiso   1.00
O975   O     0.43988   0.20625   0.74999   0.00000  Uiso   1.00
O976   O     0.56012   0.12709   0.75000   0.00000  Uiso   1.00
O977   O     0.56012   0.20625   0.75000   0.00000  Uiso   1.00
O978   O     0.43988   0.12709   0.74999   0.00000  Uiso   1.00
O979   O     0.49999   0.20627   0.68513   0.00000  Uiso   1.00
O980   O     0.50001   0.12707   0.81487   0.00000  Uiso   1.00
O981   O     0.50001   0.20627   0.81487   0.00000  Uiso   1.00
O982   O     0.49999   0.12707   0.68513   0.00000  Uiso   1.00
C983   C     0.58074   0.16768   0.88342   0.00000  Uiso   1.00
C984   C     0.59380   0.11649   0.87748   0.00000  Uiso   1.00
C985   C     0.63847   0.11252   0.86452   0.00000  Uiso   1.00
H986   H     0.64623   0.13920   0.83932   0.00000  Uiso   1.00
H987   H     0.65822   0.11772   0.89445   0.00000  Uiso   1.00
H988   H     0.64449   0.07709   0.85096   0.00000  Uiso   1.00
H989   H     0.58966   0.09648   0.90878   0.00000  Uiso   1.00
H990   H     0.57412   0.10016   0.85113   0.00000  Uiso   1.00
H991   H     0.57756   0.18432   0.85015   0.00000  Uiso   1.00
H992   H     0.60510   0.18885   0.90007   0.00000  Uiso   1.00
C993   C     0.41922   0.16835   0.61666   0.00000  Uiso   1.00
C994   C     0.40608   0.11732   0.62374   0.00000  Uiso   1.00
C995   C     0.36093   0.11362   0.63480   0.00000  Uiso   1.00
H996   H     0.35220   0.14096   0.65897   0.00000  Uiso   1.00
H997   H     0.34233   0.11792   0.60389   0.00000  Uiso   1.00
H998   H     0.35446   0.07854   0.64894   0.00000  Uiso   1.00
H999   H     0.41143   0.09617   0.59337   0.00000  Uiso   1.00
H1000  H     0.42481   0.10206   0.65143   0.00000  Uiso   1.00
H1001  H     0.42245   0.18578   0.64956   0.00000  Uiso   1.00
H1002  H     0.39489   0.18920   0.59960   0.00000  Uiso   1.00
H1003  H     0.43867   0.16307   0.88368   0.00000  Uiso   1.00
H1004  H     0.56131   0.16337   0.61633   0.00000  Uiso   1.00
C1005  C     0.38489   0.16773   0.94570   0.00000  Uiso   1.00
C1006  C     0.37517   0.21268   0.91897   0.00000  Uiso   1.00
C1007  C     0.35640   0.25066   0.94753   0.00000  Uiso   1.00
H1008  H     0.65984   0.23847   0.95997   0.00000  Uiso   1.00
H1009  H     0.37751   0.25965   0.97579   0.00000  Uiso   1.00
H1010  H     0.35097   0.28260   0.92717   0.00000  Uiso   1.00
H1011  H     0.40292   0.22733   0.90355   0.00000  Uiso   1.00
H1012  H     0.35293   0.20401   0.89161   0.00000  Uiso   1.00
H1013  H     0.38636   0.13734   0.92288   0.00000  Uiso   1.00
H1014  H     0.35885   0.15997   0.96773   0.00000  Uiso   1.00
C1015  C     0.61506   0.16907   0.55436   0.00000  Uiso   1.00
C1016  C     0.62422   0.21410   0.58117   0.00000  Uiso   1.00
C1017  C     0.64289   0.25234   0.55281   0.00000  Uiso   1.00
H1018  H     0.33977   0.24062   0.54087   0.00000  Uiso   1.00
H1019  H     0.62202   0.26097   0.52424   0.00000  Uiso   1.00
H1020  H     0.64768   0.28441   0.57316   0.00000  Uiso   1.00
H1021  H     0.59623   0.22842   0.59637   0.00000  Uiso   1.00
H1022  H     0.64635   0.20563   0.60871   0.00000  Uiso   1.00
H1023  H     0.61394   0.13863   0.57715   0.00000  Uiso   1.00
H1024  H     0.64121   0.16178   0.53234   0.00000  Uiso   1.00
H1025  H     0.39466   0.16798   0.53284   0.00000  Uiso   1.00
H1026  H     0.60531   0.16893   0.96722   0.00000  Uiso   1.00
H1027  H     0.37053   0.09083   0.74954   0.00000  Uiso   1.00
H1028  H     0.62948   0.24240   0.75057   0.00000  Uiso   1.00
H1029  H     0.62941   0.09084   0.74829   0.00000  Uiso   1.00
H1030  H     0.37056   0.24239   0.75089   0.00000  Uiso   1.00
H1031  H     0.45016   0.04342   0.70366   0.00000  Uiso   1.00
H1032  H     0.54972   0.28981   0.79652   0.00000  Uiso   1.00
H1033  H     0.54985   0.04342   0.79632   0.00000  Uiso   1.00
H1034  H     0.45029   0.28982   0.70347   0.00000  Uiso   1.00
C1035  C     0.75401   0.16665   0.75016   0.00000  Uiso   1.00
C1036  C     0.91266   0.16666   0.74974   0.00000  Uiso   1.00
C1037  C     0.75775   0.17003   0.51815   0.00000  Uiso   1.00
C1038  C     0.90886   0.17063   0.98189   0.00000  Uiso   1.00
C1039  C     0.68791   0.12409   0.74978   0.00000  Uiso   1.00
C1040  C     0.97876   0.20914   0.75016   0.00000  Uiso   1.00
C1041  C     0.97872   0.12410   0.74886   0.00000  Uiso   1.00
C1042  C     0.68793   0.20913   0.75048   0.00000  Uiso   1.00
C1043  C     0.95727   0.16663   0.74941   0.00000  Uiso   1.00
C1044  C     0.70939   0.16662   0.75029   0.00000  Uiso   1.00
C1045  C     0.80569   0.02478   0.72424   0.00000  Uiso   1.00
C1046  C     0.86095   0.30852   0.77582   0.00000  Uiso   1.00
C1047  C     0.86099   0.02478   0.77576   0.00000  Uiso   1.00
C1048  C     0.80572   0.30852   0.72418   0.00000  Uiso   1.00
C1049  C     0.83165   0.16672   0.66455   0.00000  Uiso   1.00
C1050  C     0.83497   0.16671   0.83545   0.00000  Uiso   1.00
C1051  C     0.87387   0.16982   0.90811   0.00000  Uiso   1.00
C1052  C     0.79275   0.16990   0.59192   0.00000  Uiso   1.00
C1053  C     0.83653   0.16722   0.88368   0.00000  Uiso   1.00
C1054  C     0.83010   0.16726   0.61634   0.00000  Uiso   1.00
C1055  C     0.79928   0.16636   0.90462   0.00000  Uiso   1.00
C1056  C     0.86735   0.16655   0.59539   0.00000  Uiso   1.00
C1057  C     0.79709   0.16967   0.95082   0.00000  Uiso   1.00
C1058  C     0.86952   0.17000   0.54921   0.00000  Uiso   1.00
C1059  C     0.83409   0.17114   0.97654   0.00000  Uiso   1.00
C1060  C     0.83252   0.17118   0.52348   0.00000  Uiso   1.00
C1061  C     0.87265   0.17083   0.95534   0.00000  Uiso   1.00
C1062  C     0.79396   0.17068   0.54469   0.00000  Uiso   1.00
C1063  C     0.75873   0.17020   0.97178   0.00000  Uiso   1.00
C1064  C     0.90788   0.17093   0.52826   0.00000  Uiso   1.00
Cu1065 Cu    0.83333   0.21355   0.75000   0.00000  Uiso   1.00
Cu1066 Cu    0.83333   0.11978   0.75000   0.00000  Uiso   1.00
N1067  N     0.83333   0.28402   0.75000   0.00000  Uiso   1.00
N1068  N     0.83333   0.04931   0.75000   0.00000  Uiso   1.00
O1069  O     0.77321   0.20625   0.74999   0.00000  Uiso   1.00
O1070  O     0.89345   0.12709   0.75000   0.00000  Uiso   1.00
O1071  O     0.89345   0.20625   0.75000   0.00000  Uiso   1.00
O1072  O     0.77321   0.12709   0.74999   0.00000  Uiso   1.00
O1073  O     0.83332   0.20627   0.68513   0.00000  Uiso   1.00
O1074  O     0.83334   0.12707   0.81487   0.00000  Uiso   1.00
O1075  O     0.83334   0.20627   0.81487   0.00000  Uiso   1.00
O1076  O     0.83332   0.12707   0.68513   0.00000  Uiso   1.00
C1077  C     0.91408   0.16768   0.88342   0.00000  Uiso   1.00
C1078  C     0.92713   0.11649   0.87748   0.00000  Uiso   1.00
C1079  C     0.97180   0.11252   0.86452   0.00000  Uiso   1.00
H1080  H     0.97956   0.13920   0.83932   0.00000  Uiso   1.00
H1081  H     0.99155   0.11772   0.89445   0.00000  Uiso   1.00
H1082  H     0.97782   0.07709   0.85096   0.00000  Uiso   1.00
H1083  H     0.92299   0.09648   0.90878   0.00000  Uiso   1.00
H1084  H     0.90746   0.10016   0.85113   0.00000  Uiso   1.00
H1085  H     0.91089   0.18432   0.85015   0.00000  Uiso   1.00
H1086  H     0.93843   0.18885   0.90007   0.00000  Uiso   1.00
C1087  C     0.75255   0.16835   0.61666   0.00000  Uiso   1.00
C1088  C     0.73942   0.11732   0.62374   0.00000  Uiso   1.00
C1089  C     0.69427   0.11362   0.63480   0.00000  Uiso   1.00
H1090  H     0.68554   0.14096   0.65897   0.00000  Uiso   1.00
H1091  H     0.67567   0.11792   0.60389   0.00000  Uiso   1.00
H1092  H     0.68779   0.07854   0.64894   0.00000  Uiso   1.00
H1093  H     0.74477   0.09617   0.59337   0.00000  Uiso   1.00
H1094  H     0.75814   0.10206   0.65143   0.00000  Uiso   1.00
H1095  H     0.75579   0.18578   0.64956   0.00000  Uiso   1.00
H1096  H     0.72822   0.18920   0.59960   0.00000  Uiso   1.00
H1097  H     0.77200   0.16307   0.88368   0.00000  Uiso   1.00
H1098  H     0.89464   0.16337   0.61633   0.00000  Uiso   1.00
C1099  C     0.71823   0.16773   0.94570   0.00000  Uiso   1.00
C1100  C     0.70850   0.21268   0.91897   0.00000  Uiso   1.00
C1101  C     0.68974   0.25066   0.94753   0.00000  Uiso   1.00
H1102  H     0.99317   0.23847   0.95997   0.00000  Uiso   1.00
H1103  H     0.71085   0.25965   0.97579   0.00000  Uiso   1.00
H1104  H     0.68430   0.28260   0.92717   0.00000  Uiso   1.00
H1105  H     0.73626   0.22733   0.90355   0.00000  Uiso   1.00
H1106  H     0.68626   0.20401   0.89161   0.00000  Uiso   1.00
H1107  H     0.71969   0.13734   0.92288   0.00000  Uiso   1.00
H1108  H     0.69218   0.15997   0.96773   0.00000  Uiso   1.00
C1109  C     0.94840   0.16907   0.55436   0.00000  Uiso   1.00
C1110  C     0.95756   0.21410   0.58117   0.00000  Uiso   1.00
C1111  C     0.97622   0.25234   0.55281   0.00000  Uiso   1.00
H1112  H     0.67310   0.24062   0.54087   0.00000  Uiso   1.00
H1113  H     0.95536   0.26097   0.52424   0.00000  Uiso   1.00
H1114  H     0.98101   0.28441   0.57316   0.00000  Uiso   1.00
H1115  H     0.92957   0.22842   0.59637   0.00000  Uiso   1.00
H1116  H     0.97968   0.20563   0.60871   0.00000  Uiso   1.00
H1117  H     0.94727   0.13863   0.57715   0.00000  Uiso   1.00
H1118  H     0.97455   0.16178   0.53234   0.00000  Uiso   1.00
H1119  H     0.72799   0.16798   0.53284   0.00000  Uiso   1.00
H1120  H     0.93864   0.16893   0.96722   0.00000  Uiso   1.00
H1121  H     0.70386   0.09083   0.74954   0.00000  Uiso   1.00
H1122  H     0.96282   0.24240   0.75057   0.00000  Uiso   1.00
H1123  H     0.96274   0.09084   0.74829   0.00000  Uiso   1.00
H1124  H     0.70389   0.24239   0.75089   0.00000  Uiso   1.00
H1125  H     0.78349   0.04342   0.70366   0.00000  Uiso   1.00
H1126  H     0.88306   0.28981   0.79652   0.00000  Uiso   1.00
H1127  H     0.88319   0.04342   0.79632   0.00000  Uiso   1.00
H1128  H     0.78362   0.28982   0.70347   0.00000  Uiso   1.00
C1129  C     0.08734   0.49999   0.75016   0.00000  Uiso   1.00
C1130  C     0.24599   0.49999   0.74974   0.00000  Uiso   1.00
C1131  C     0.09108   0.50336   0.51815   0.00000  Uiso   1.00
C1132  C     0.24219   0.50397   0.98189   0.00000  Uiso   1.00
C1133  C     0.02124   0.45742   0.74978   0.00000  Uiso   1.00
C1134  C     0.31209   0.54247   0.75016   0.00000  Uiso   1.00
C1135  C     0.31205   0.45743   0.74886   0.00000  Uiso   1.00
C1136  C     0.02126   0.54246   0.75048   0.00000  Uiso   1.00
C1137  C     0.29060   0.49997   0.74941   0.00000  Uiso   1.00
C1138  C     0.04272   0.49995   0.75029   0.00000  Uiso   1.00
C1139  C     0.13902   0.35812   0.72424   0.00000  Uiso   1.00
C1140  C     0.19428   0.64185   0.77582   0.00000  Uiso   1.00
C1141  C     0.19432   0.35812   0.77576   0.00000  Uiso   1.00
C1142  C     0.13905   0.64185   0.72418   0.00000  Uiso   1.00
C1143  C     0.16499   0.50005   0.66455   0.00000  Uiso   1.00
C1144  C     0.16831   0.50004   0.83545   0.00000  Uiso   1.00
C1145  C     0.20720   0.50315   0.90811   0.00000  Uiso   1.00
C1146  C     0.12609   0.50323   0.59192   0.00000  Uiso   1.00
C1147  C     0.16987   0.50055   0.88368   0.00000  Uiso   1.00
C1148  C     0.16343   0.50060   0.61634   0.00000  Uiso   1.00
C1149  C     0.13261   0.49969   0.90462   0.00000  Uiso   1.00
C1150  C     0.20068   0.49989   0.59539   0.00000  Uiso   1.00
C1151  C     0.13043   0.50301   0.95082   0.00000  Uiso   1.00
C1152  C     0.20285   0.50333   0.54921   0.00000  Uiso   1.00
C1153  C     0.16742   0.50447   0.97654   0.00000  Uiso   1.00
C1154  C     0.16585   0.50451   0.52348   0.00000  Uiso   1.00
C1155  C     0.20599   0.50417   0.95534   0.00000  Uiso   1.00
C1156  C     0.12729   0.50402   0.54469   0.00000  Uiso   1.00
C1157  C     0.09206   0.50353   0.97178   0.00000  Uiso   1.00
C1158  C     0.24121   0.50426   0.52826   0.00000  Uiso   1.00
Cu1159 Cu    0.16667   0.54689   0.75000   0.00000  Uiso   1.00
Cu1160 Cu    0.16667   0.45311   0.75000   0.00000  Uiso   1.00
N1161  N     0.16667   0.61736   0.75000   0.00000  Uiso   1.00
N1162  N     0.16667   0.38264   0.75000   0.00000  Uiso   1.00
O1163  O     0.10655   0.53958   0.74999   0.00000  Uiso   1.00
O1164  O     0.22679   0.46042   0.75000   0.00000  Uiso   1.00
O1165  O     0.22679   0.53958   0.75000   0.00000  Uiso   1.00
O1166  O     0.10655   0.46042   0.74999   0.00000  Uiso   1.00
O1167  O     0.16666   0.53960   0.68513   0.00000  Uiso   1.00
O1168  O     0.16668   0.46040   0.81487   0.00000  Uiso   1.00
O1169  O     0.16668   0.53960   0.81487   0.00000  Uiso   1.00
O1170  O     0.16666   0.46040   0.68513   0.00000  Uiso   1.00
C1171  C     0.24741   0.50102   0.88342   0.00000  Uiso   1.00
C1172  C     0.26047   0.44982   0.87748   0.00000  Uiso   1.00
C1173  C     0.30514   0.44585   0.86452   0.00000  Uiso   1.00
H1174  H     0.31290   0.47253   0.83932   0.00000  Uiso   1.00
H1175  H     0.32488   0.45105   0.89445   0.00000  Uiso   1.00
H1176  H     0.31116   0.41042   0.85096   0.00000  Uiso   1.00
H1177  H     0.25633   0.42981   0.90878   0.00000  Uiso   1.00
H1178  H     0.24079   0.43350   0.85113   0.00000  Uiso   1.00
H1179  H     0.24422   0.51765   0.85015   0.00000  Uiso   1.00
H1180  H     0.27176   0.52218   0.90007   0.00000  Uiso   1.00
C1181  C     0.08589   0.50168   0.61666   0.00000  Uiso   1.00
C1182  C     0.07275   0.45066   0.62374   0.00000  Uiso   1.00
C1183  C     0.02760   0.44695   0.63480   0.00000  Uiso   1.00
H1184  H     0.01887   0.47430   0.65897   0.00000  Uiso   1.00
H1185  H     0.00900   0.45126   0.60389   0.00000  Uiso   1.00
H1186  H     0.02112   0.41188   0.64894   0.00000  Uiso   1.00
H1187  H     0.07810   0.42951   0.59337   0.00000  Uiso   1.00
H1188  H     0.09147   0.43540   0.65143   0.00000  Uiso   1.00
H1189  H     0.08912   0.51912   0.64956   0.00000  Uiso   1.00
H1190  H     0.06156   0.52253   0.59960   0.00000  Uiso   1.00
H1191  H     0.10534   0.49641   0.88368   0.00000  Uiso   1.00
H1192  H     0.22798   0.49671   0.61633   0.00000  Uiso   1.00
C1193  C     0.05156   0.50106   0.94570   0.00000  Uiso   1.00
C1194  C     0.04184   0.54601   0.91897   0.00000  Uiso   1.00
C1195  C     0.02307   0.58399   0.94753   0.00000  Uiso   1.00
H1196  H     0.32651   0.57180   0.95997   0.00000  Uiso   1.00
H1197  H     0.04418   0.59298   0.97579   0.00000  Uiso   1.00
H1198  H     0.01763   0.61593   0.92717   0.00000  Uiso   1.00
H1199  H     0.06959   0.56066   0.90355   0.00000  Uiso   1.00
H1200  H     0.01960   0.53734   0.89161   0.00000  Uiso   1.00
H1201  H     0.05302   0.47067   0.92288   0.00000  Uiso   1.00
H1202  H     0.02552   0.49330   0.96773   0.00000  Uiso   1.00
C1203  C     0.28173   0.50241   0.55436   0.00000  Uiso   1.00
C1204  C     0.29089   0.54743   0.58117   0.00000  Uiso   1.00
C1205  C     0.30955   0.58567   0.55281   0.00000  Uiso   1.00
H1206  H     0.00643   0.57395   0.54087   0.00000  Uiso   1.00
H1207  H     0.28869   0.59430   0.52424   0.00000  Uiso   1.00
H1208  H     0.31435   0.61774   0.57316   0.00000  Uiso   1.00
H1209  H     0.26290   0.56175   0.59637   0.00000  Uiso   1.00
H1210  H     0.31301   0.53897   0.60871   0.00000  Uiso   1.00
H1211  H     0.28060   0.47196   0.57715   0.00000  Uiso   1.00
H1212  H     0.30788   0.49511   0.53234   0.00000  Uiso   1.00
H1213  H     0.06132   0.50132   0.53284   0.00000  Uiso   1.00
H1214  H     0.27197   0.50226   0.96722   0.00000  Uiso   1.00
H1215  H     0.03720   0.42416   0.74954   0.00000  Uiso   1.00
H1216  H     0.29615   0.57573   0.75057   0.00000  Uiso   1.00
H1217  H     0.29608   0.42418   0.74829   0.00000  Uiso   1.00
H1218  H     0.03723   0.57573   0.75089   0.00000  Uiso   1.00
H1219  H     0.11683   0.37675   0.70366   0.00000  Uiso   1.00
H1220  H     0.21639   0.62315   0.79652   0.00000  Uiso   1.00
H1221  H     0.21652   0.37675   0.79632   0.00000  Uiso   1.00
H1222  H     0.11695   0.62315   0.70347   0.00000  Uiso   1.00
C1223  C     0.42067   0.49999   0.75016   0.00000  Uiso   1.00
C1224  C     0.57932   0.49999   0.74974   0.00000  Uiso   1.00
C1225  C     0.42442   0.50336   0.51815   0.00000  Uiso   1.00
C1226  C     0.57553   0.50397   0.98189   0.00000  Uiso   1.00
C1227  C     0.35458   0.45742   0.74978   0.00000  Uiso   1.00
C1228  C     0.64543   0.54247   0.75016   0.00000  Uiso   1.00
C1229  C     0.64539   0.45743   0.74886   0.00000  Uiso   1.00
C1230  C     0.35459   0.54246   0.75048   0.00000  Uiso   1.00
C1231  C     0.62393   0.49997   0.74941   0.00000  Uiso   1.00
C1232  C     0.37606   0.49995   0.75029   0.00000  Uiso   1.00
C1233  C     0.47235   0.35812   0.72424   0.00000  Uiso   1.00
C1234  C     0.52762   0.64185   0.77582   0.00000  Uiso   1.00
C1235  C     0.52765   0.35812   0.77576   0.00000  Uiso   1.00
C1236  C     0.47239   0.64185   0.72418   0.00000  Uiso   1.00
C1237  C     0.49832   0.50005   0.66455   0.00000  Uiso   1.00
C1238  C     0.50164   0.50004   0.83545   0.00000  Uiso   1.00
C1239  C     0.54054   0.50315   0.90811   0.00000  Uiso   1.00
C1240  C     0.45942   0.50323   0.59192   0.00000  Uiso   1.00
C1241  C     0.50320   0.50055   0.88368   0.00000  Uiso   1.00
C1242  C     0.49676   0.50060   0.61634   0.00000  Uiso   1.00
C1243  C     0.46595   0.49969   0.90462   0.00000  Uiso   1.00
C1244  C     0.53402   0.49989   0.59539   0.00000  Uiso   1.00
C1245  C     0.46376   0.50301   0.95082   0.00000  Uiso   1.00
C1246  C     0.53618   0.50333   0.54921   0.00000  Uiso   1.00
C1247  C     0.50075   0.50447   0.97654   0.00000  Uiso   1.00
C1248  C     0.49918   0.50451   0.52348   0.00000  Uiso   1.00
C1249  C     0.53932   0.50417   0.95534   0.00000  Uiso   1.00
C1250  C     0.46062   0.50402   0.54469   0.00000  Uiso   1.00
C1251  C     0.42540   0.50353   0.97178   0.00000  Uiso   1.00
C1252  C     0.57454   0.50426   0.52826   0.00000  Uiso   1.00
Cu1253 Cu    0.50000   0.54689   0.75000   0.00000  Uiso   1.00
Cu1254 Cu    0.50000   0.45311   0.75000   0.00000  Uiso   1.00
N1255  N     0.50000   0.61736   0.75000   0.00000  Uiso   1.00
N1256  N     0.50000   0.38264   0.75000   0.00000  Uiso   1.00
O1257  O     0.43988   0.53958   0.74999   0.00000  Uiso   1.00
O1258  O     0.56012   0.46042   0.75000   0.00000  Uiso   1.00
O1259  O     0.56012   0.53958   0.75000   0.00000  Uiso   1.00
O1260  O     0.43988   0.46042   0.74999   0.00000  Uiso   1.00
O1261  O     0.49999   0.53960   0.68513   0.00000  Uiso   1.00
O1262  O     0.50001   0.46040   0.81487   0.00000  Uiso   1.00
O1263  O     0.50001   0.53960   0.81487   0.00000  Uiso   1.00
O1264  O     0.49999   0.46040   0.68513   0.00000  Uiso   1.00
C1265  C     0.58074   0.50102   0.88342   0.00000  Uiso   1.00
C1266  C     0.59380   0.44982   0.87748   0.00000  Uiso   1.00
C1267  C     0.63847   0.44585   0.86452   0.00000  Uiso   1.00
H1268  H     0.64623   0.47253   0.83932   0.00000  Uiso   1.00
H1269  H     0.65822   0.45105   0.89445   0.00000  Uiso   1.00
H1270  H     0.64449   0.41042   0.85096   0.00000  Uiso   1.00
H1271  H     0.58966   0.42981   0.90878   0.00000  Uiso   1.00
H1272  H     0.57412   0.43350   0.85113   0.00000  Uiso   1.00
H1273  H     0.57756   0.51765   0.85015   0.00000  Uiso   1.00
H1274  H     0.60510   0.52218   0.90007   0.00000  Uiso   1.00
C1275  C     0.41922   0.50168   0.61666   0.00000  Uiso   1.00
C1276  C     0.40608   0.45066   0.62374   0.00000  Uiso   1.00
C1277  C     0.36093   0.44695   0.63480   0.00000  Uiso   1.00
H1278  H     0.35220   0.47430   0.65897   0.00000  Uiso   1.00
H1279  H     0.34233   0.45126   0.60389   0.00000  Uiso   1.00
H1280  H     0.35446   0.41188   0.64894   0.00000  Uiso   1.00
H1281  H     0.41143   0.42951   0.59337   0.00000  Uiso   1.00
H1282  H     0.42481   0.43540   0.65143   0.00000  Uiso   1.00
H1283  H     0.42245   0.51912   0.64956   0.00000  Uiso   1.00
H1284  H     0.39489   0.52253   0.59960   0.00000  Uiso   1.00
H1285  H     0.43867   0.49641   0.88368   0.00000  Uiso   1.00
H1286  H     0.56131   0.49671   0.61633   0.00000  Uiso   1.00
C1287  C     0.38489   0.50106   0.94570   0.00000  Uiso   1.00
C1288  C     0.37517   0.54601   0.91897   0.00000  Uiso   1.00
C1289  C     0.35640   0.58399   0.94753   0.00000  Uiso   1.00
H1290  H     0.65984   0.57180   0.95997   0.00000  Uiso   1.00
H1291  H     0.37751   0.59298   0.97579   0.00000  Uiso   1.00
H1292  H     0.35097   0.61593   0.92717   0.00000  Uiso   1.00
H1293  H     0.40292   0.56066   0.90355   0.00000  Uiso   1.00
H1294  H     0.35293   0.53734   0.89161   0.00000  Uiso   1.00
H1295  H     0.38636   0.47067   0.92288   0.00000  Uiso   1.00
H1296  H     0.35885   0.49330   0.96773   0.00000  Uiso   1.00
C1297  C     0.61506   0.50241   0.55436   0.00000  Uiso   1.00
C1298  C     0.62422   0.54743   0.58117   0.00000  Uiso   1.00
C1299  C     0.64289   0.58567   0.55281   0.00000  Uiso   1.00
H1300  H     0.33977   0.57395   0.54087   0.00000  Uiso   1.00
H1301  H     0.62202   0.59430   0.52424   0.00000  Uiso   1.00
H1302  H     0.64768   0.61774   0.57316   0.00000  Uiso   1.00
H1303  H     0.59623   0.56175   0.59637   0.00000  Uiso   1.00
H1304  H     0.64635   0.53897   0.60871   0.00000  Uiso   1.00
H1305  H     0.61394   0.47196   0.57715   0.00000  Uiso   1.00
H1306  H     0.64121   0.49511   0.53234   0.00000  Uiso   1.00
H1307  H     0.39466   0.50132   0.53284   0.00000  Uiso   1.00
H1308  H     0.60531   0.50226   0.96722   0.00000  Uiso   1.00
H1309  H     0.37053   0.42416   0.74954   0.00000  Uiso   1.00
H1310  H     0.62948   0.57573   0.75057   0.00000  Uiso   1.00
H1311  H     0.62941   0.42418   0.74829   0.00000  Uiso   1.00
H1312  H     0.37056   0.57573   0.75089   0.00000  Uiso   1.00
H1313  H     0.45016   0.37675   0.70366   0.00000  Uiso   1.00
H1314  H     0.54972   0.62315   0.79652   0.00000  Uiso   1.00
H1315  H     0.54985   0.37675   0.79632   0.00000  Uiso   1.00
H1316  H     0.45029   0.62315   0.70347   0.00000  Uiso   1.00
C1317  C     0.75401   0.49999   0.75016   0.00000  Uiso   1.00
C1318  C     0.91266   0.49999   0.74974   0.00000  Uiso   1.00
C1319  C     0.75775   0.50336   0.51815   0.00000  Uiso   1.00
C1320  C     0.90886   0.50397   0.98189   0.00000  Uiso   1.00
C1321  C     0.68791   0.45742   0.74978   0.00000  Uiso   1.00
C1322  C     0.97876   0.54247   0.75016   0.00000  Uiso   1.00
C1323  C     0.97872   0.45743   0.74886   0.00000  Uiso   1.00
C1324  C     0.68793   0.54246   0.75048   0.00000  Uiso   1.00
C1325  C     0.95727   0.49997   0.74941   0.00000  Uiso   1.00
C1326  C     0.70939   0.49995   0.75029   0.00000  Uiso   1.00
C1327  C     0.80569   0.35812   0.72424   0.00000  Uiso   1.00
C1328  C     0.86095   0.64185   0.77582   0.00000  Uiso   1.00
C1329  C     0.86099   0.35812   0.77576   0.00000  Uiso   1.00
C1330  C     0.80572   0.64185   0.72418   0.00000  Uiso   1.00
C1331  C     0.83165   0.50005   0.66455   0.00000  Uiso   1.00
C1332  C     0.83497   0.50004   0.83545   0.00000  Uiso   1.00
C1333  C     0.87387   0.50315   0.90811   0.00000  Uiso   1.00
C1334  C     0.79275   0.50323   0.59192   0.00000  Uiso   1.00
C1335  C     0.83653   0.50055   0.88368   0.00000  Uiso   1.00
C1336  C     0.83010   0.50060   0.61634   0.00000  Uiso   1.00
C1337  C     0.79928   0.49969   0.90462   0.00000  Uiso   1.00
C1338  C     0.86735   0.49989   0.59539   0.00000  Uiso   1.00
C1339  C     0.79709   0.50301   0.95082   0.00000  Uiso   1.00
C1340  C     0.86952   0.50333   0.54921   0.00000  Uiso   1.00
C1341  C     0.83409   0.50447   0.97654   0.00000  Uiso   1.00
C1342  C     0.83252   0.50451   0.52348   0.00000  Uiso   1.00
C1343  C     0.87265   0.50417   0.95534   0.00000  Uiso   1.00
C1344  C     0.79396   0.50402   0.54469   0.00000  Uiso   1.00
C1345  C     0.75873   0.50353   0.97178   0.00000  Uiso   1.00
C1346  C     0.90788   0.50426   0.52826   0.00000  Uiso   1.00
Cu1347 Cu    0.83333   0.54689   0.75000   0.00000  Uiso   1.00
Cu1348 Cu    0.83333   0.45311   0.75000   0.00000  Uiso   1.00
N1349  N     0.83333   0.61736   0.75000   0.00000  Uiso   1.00
N1350  N     0.83333   0.38264   0.75000   0.00000  Uiso   1.00
O1351  O     0.77321   0.53958   0.74999   0.00000  Uiso   1.00
O1352  O     0.89345   0.46042   0.75000   0.00000  Uiso   1.00
O1353  O     0.89345   0.53958   0.75000   0.00000  Uiso   1.00
O1354  O     0.77321   0.46042   0.74999   0.00000  Uiso   1.00
O1355  O     0.83332   0.53960   0.68513   0.00000  Uiso   1.00
O1356  O     0.83334   0.46040   0.81487   0.00000  Uiso   1.00
O1357  O     0.83334   0.53960   0.81487   0.00000  Uiso   1.00
O1358  O     0.83332   0.46040   0.68513   0.00000  Uiso   1.00
C1359  C     0.91408   0.50102   0.88342   0.00000  Uiso   1.00
C1360  C     0.92713   0.44982   0.87748   0.00000  Uiso   1.00
C1361  C     0.97180   0.44585   0.86452   0.00000  Uiso   1.00
H1362  H     0.97956   0.47253   0.83932   0.00000  Uiso   1.00
H1363  H     0.99155   0.45105   0.89445   0.00000  Uiso   1.00
H1364  H     0.97782   0.41042   0.85096   0.00000  Uiso   1.00
H1365  H     0.92299   0.42981   0.90878   0.00000  Uiso   1.00
H1366  H     0.90746   0.43350   0.85113   0.00000  Uiso   1.00
H1367  H     0.91089   0.51765   0.85015   0.00000  Uiso   1.00
H1368  H     0.93843   0.52218   0.90007   0.00000  Uiso   1.00
C1369  C     0.75255   0.50168   0.61666   0.00000  Uiso   1.00
C1370  C     0.73942   0.45066   0.62374   0.00000  Uiso   1.00
C1371  C     0.69427   0.44695   0.63480   0.00000  Uiso   1.00
H1372  H     0.68554   0.47430   0.65897   0.00000  Uiso   1.00
H1373  H     0.67567   0.45126   0.60389   0.00000  Uiso   1.00
H1374  H     0.68779   0.41188   0.64894   0.00000  Uiso   1.00
H1375  H     0.74477   0.42951   0.59337   0.00000  Uiso   1.00
H1376  H     0.75814   0.43540   0.65143   0.00000  Uiso   1.00
H1377  H     0.75579   0.51912   0.64956   0.00000  Uiso   1.00
H1378  H     0.72822   0.52253   0.59960   0.00000  Uiso   1.00
H1379  H     0.77200   0.49641   0.88368   0.00000  Uiso   1.00
H1380  H     0.89464   0.49671   0.61633   0.00000  Uiso   1.00
C1381  C     0.71823   0.50106   0.94570   0.00000  Uiso   1.00
C1382  C     0.70850   0.54601   0.91897   0.00000  Uiso   1.00
C1383  C     0.68974   0.58399   0.94753   0.00000  Uiso   1.00
H1384  H     0.99317   0.57180   0.95997   0.00000  Uiso   1.00
H1385  H     0.71085   0.59298   0.97579   0.00000  Uiso   1.00
H1386  H     0.68430   0.61593   0.92717   0.00000  Uiso   1.00
H1387  H     0.73626   0.56066   0.90355   0.00000  Uiso   1.00
H1388  H     0.68626   0.53734   0.89161   0.00000  Uiso   1.00
H1389  H     0.71969   0.47067   0.92288   0.00000  Uiso   1.00
H1390  H     0.69218   0.49330   0.96773   0.00000  Uiso   1.00
C1391  C     0.94840   0.50241   0.55436   0.00000  Uiso   1.00
C1392  C     0.95756   0.54743   0.58117   0.00000  Uiso   1.00
C1393  C     0.97622   0.58567   0.55281   0.00000  Uiso   1.00
H1394  H     0.67310   0.57395   0.54087   0.00000  Uiso   1.00
H1395  H     0.95536   0.59430   0.52424   0.00000  Uiso   1.00
H1396  H     0.98101   0.61774   0.57316   0.00000  Uiso   1.00
H1397  H     0.92957   0.56175   0.59637   0.00000  Uiso   1.00
H1398  H     0.97968   0.53897   0.60871   0.00000  Uiso   1.00
H1399  H     0.94727   0.47196   0.57715   0.00000  Uiso   1.00
H1400  H     0.97455   0.49511   0.53234   0.00000  Uiso   1.00
H1401  H     0.72799   0.50132   0.53284   0.00000  Uiso   1.00
H1402  H     0.93864   0.50226   0.96722   0.00000  Uiso   1.00
H1403  H     0.70386   0.42416   0.74954   0.00000  Uiso   1.00
H1404  H     0.96282   0.57573   0.75057   0.00000  Uiso   1.00
H1405  H     0.96274   0.42418   0.74829   0.00000  Uiso   1.00
H1406  H     0.70389   0.57573   0.75089   0.00000  Uiso   1.00
H1407  H     0.78349   0.37675   0.70366   0.00000  Uiso   1.00
H1408  H     0.88306   0.62315   0.79652   0.00000  Uiso   1.00
H1409  H     0.88319   0.37675   0.79632   0.00000  Uiso   1.00
H1410  H     0.78362   0.62315   0.70347   0.00000  Uiso   1.00
C1411  C     0.08734   0.83332   0.75016   0.00000  Uiso   1.00
C1412  C     0.24599   0.83333   0.74974   0.00000  Uiso   1.00
C1413  C     0.09108   0.83669   0.51815   0.00000  Uiso   1.00
C1414  C     0.24219   0.83730   0.98189   0.00000  Uiso   1.00
C1415  C     0.02124   0.79075   0.74978   0.00000  Uiso   1.00
C1416  C     0.31209   0.87580   0.75016   0.00000  Uiso   1.00
C1417  C     0.31205   0.79077   0.74886   0.00000  Uiso   1.00
C1418  C     0.02126   0.87580   0.75048   0.00000  Uiso   1.00
C1419  C     0.29060   0.83330   0.74941   0.00000  Uiso   1.00
C1420  C     0.04272   0.83329   0.75029   0.00000  Uiso   1.00
C1421  C     0.13902   0.69145   0.72424   0.00000  Uiso   1.00
C1422  C     0.19428   0.97518   0.77582   0.00000  Uiso   1.00
C1423  C     0.19432   0.69145   0.77576   0.00000  Uiso   1.00
C1424  C     0.13905   0.97518   0.72418   0.00000  Uiso   1.00
C1425  C     0.16499   0.83338   0.66455   0.00000  Uiso   1.00
C1426  C     0.16831   0.83337   0.83545   0.00000  Uiso   1.00
C1427  C     0.20720   0.83649   0.90811   0.00000  Uiso   1.00
C1428  C     0.12609   0.83656   0.59192   0.00000  Uiso   1.00
C1429  C     0.16987   0.83389   0.88368   0.00000  Uiso   1.00
C1430  C     0.16343   0.83393   0.61634   0.00000  Uiso   1.00
C1431  C     0.13261   0.83302   0.90462   0.00000  Uiso   1.00
C1432  C     0.20068   0.83322   0.59539   0.00000  Uiso   1.00
C1433  C     0.13043   0.83634   0.95082   0.00000  Uiso   1.00
C1434  C     0.20285   0.83666   0.54921   0.00000  Uiso   1.00
C1435  C     0.16742   0.83781   0.97654   0.00000  Uiso   1.00
C1436  C     0.16585   0.83784   0.52348   0.00000  Uiso   1.00
C1437  C     0.20599   0.83750   0.95534   0.00000  Uiso   1.00
C1438  C     0.12729   0.83735   0.54469   0.00000  Uiso   1.00
C1439  C     0.09206   0.83687   0.97178   0.00000  Uiso   1.00
C1440  C     0.24121   0.83760   0.52826   0.00000  Uiso   1.00
Cu1441 Cu    0.16667   0.88022   0.75000   0.00000  Uiso   1.00
Cu1442 Cu    0.16667   0.78645   0.75000   0.00000  Uiso   1.00
N1443  N     0.16667   0.95069   0.75000   0.00000  Uiso   1.00
N1444  N     0.16667   0.71598   0.75000   0.00000  Uiso   1.00
O1445  O     0.10655   0.87291   0.74999   0.00000  Uiso   1.00
O1446  O     0.22679   0.79375   0.75000   0.00000  Uiso   1.00
O1447  O     0.22679   0.87291   0.75000   0.00000  Uiso   1.00
O1448  O     0.10655   0.79375   0.74999   0.00000  Uiso   1.00
O1449  O     0.16666   0.87293   0.68513   0.00000  Uiso   1.00
O1450  O     0.16668   0.79373   0.81487   0.00000  Uiso   1.00
O1451  O     0.16668   0.87293   0.81487   0.00000  Uiso   1.00
O1452  O     0.16666   0.79373   0.68513   0.00000  Uiso   1.00
C1453  C     0.24741   0.83435   0.88342   0.00000  Uiso   1.00
C1454  C     0.26047   0.78315   0.87748   0.00000  Uiso   1.00
C1455  C     0.30514   0.77918   0.86452   0.00000  Uiso   1.00
H1456  H     0.31290   0.80587   0.83932   0.00000  Uiso   1.00
H1457  H     0.32488   0.78438   0.89445   0.00000  Uiso   1.00
H1458  H     0.31116   0.74375   0.85096   0.00000  Uiso   1.00
H1459  H     0.25633   0.76315   0.90878   0.00000  Uiso   1.00
H1460  H     0.24079   0.76683   0.85113   0.00000  Uiso   1.00
H1461  H     0.24422   0.85099   0.85015   0.00000  Uiso   1.00
H1462  H     0.27176   0.85552   0.90007   0.00000  Uiso   1.00
C1463  C     0.08589   0.83501   0.61666   0.00000  Uiso   1.00
C1464  C     0.07275   0.78399   0.62374   0.00000  Uiso   1.00
C1465  C     0.02760   0.78028   0.63480   0.00000  Uiso   1.00
H1466  H     0.01887   0.80763   0.65897   0.00000  Uiso   1.00
H1467  H     0.00900   0.78459   0.60389   0.00000  Uiso   1.00
H1468  H     0.02112   0.74521   0.64894   0.00000  Uiso   1.00
H1469  H     0.07810   0.76284   0.59337   0.00000  Uiso   1.00
H1470  H     0.09147   0.76873   0.65143   0.00000  Uiso   1.00
H1471  H     0.08912   0.85245   0.64956   0.00000  Uiso   1.00
H1472  H     0.06156   0.85587   0.59960   0.00000  Uiso   1.00
H1473  H     0.10534   0.82974   0.88368   0.00000  Uiso   1.00
H1474  H     0.22798   0.83004   0.61633   0.00000  Uiso   1.00
C1475  C     0.05156   0.83440   0.94570   0.00000  Uiso   1.00
C1476  C     0.04184   0.87934   0.91897   0.00000  Uiso   1.00
C1477  C     0.02307   0.91733   0.94753   0.00000  Uiso   1.00
H1478  H     0.32651   0.90513   0.95997   0.00000  Uiso   1.00
H1479  H     0.04418   0.92631   0.97579   0.00000  Uiso   1.00
H1480  H     0.01763   0.94926   0.92717   0.00000  Uiso   1.00
H1481  H     0.06959   0.89399   0.90355   0.00000  Uiso   1.00
H1482  H     0.01960   0.87067   0.89161   0.00000  Uiso   1.00
H1483  H     0.05302   0.80401   0.92288   0.00000  Uiso   1.00
H1484  H     0.02552   0.82664   0.96773   0.00000  Uiso   1.00
C1485  C     0.28173   0.83574   0.55436   0.00000  Uiso   1.00
C1486  C     0.29089   0.88077   0.58117   0.00000  Uiso   1.00
C1487  C     0.30955   0.91901   0.55281   0.00000  Uiso   1.00
H1488  H     0.00643   0.90729   0.54087   0.00000  Uiso   1.00
H1489  H     0.28869   0.92763   0.52424   0.00000  Uiso   1.00
H1490  H     0.31435   0.95107   0.57316   0.00000  Uiso   1.00
H1491  H     0.26290   0.89508   0.59637   0.00000  Uiso   1.00
H1492  H     0.31301   0.87230   0.60871   0.00000  Uiso   1.00
H1493  H     0.28060   0.80530   0.57715   0.00000  Uiso   1.00
H1494  H     0.30788   0.82844   0.53234   0.00000  Uiso   1.00
H1495  H     0.06132   0.83465   0.53284   0.00000  Uiso   1.00
H1496  H     0.27197   0.83559   0.96722   0.00000  Uiso   1.00
H1497  H     0.03720   0.75750   0.74954   0.00000  Uiso   1.00
H1498  H     0.29615   0.90907   0.75057   0.00000  Uiso   1.00
H1499  H     0.29608   0.75751   0.74829   0.00000  Uiso   1.00
H1500  H     0.03723   0.90906   0.75089   0.00000  Uiso   1.00
H1501  H     0.11683   0.71008   0.70366   0.00000  Uiso   1.00
H1502  H     0.21639   0.95648   0.79652   0.00000  Uiso   1.00
H1503  H     0.21652   0.71009   0.79632   0.00000  Uiso   1.00
H1504  H     0.11695   0.95648   0.70347   0.00000  Uiso   1.00
C1505  C     0.42067   0.83332   0.75016   0.00000  Uiso   1.00
C1506  C     0.57932   0.83333   0.74974   0.00000  Uiso   1.00
C1507  C     0.42442   0.83669   0.51815   0.00000  Uiso   1.00
C1508  C     0.57553   0.83730   0.98189   0.00000  Uiso   1.00
C1509  C     0.35458   0.79075   0.74978   0.00000  Uiso   1.00
C1510  C     0.64543   0.87580   0.75016   0.00000  Uiso   1.00
C1511  C     0.64539   0.79077   0.74886   0.00000  Uiso   1.00
C1512  C     0.35459   0.87580   0.75048   0.00000  Uiso   1.00
C1513  C     0.62393   0.83330   0.74941   0.00000  Uiso   1.00
C1514  C     0.37606   0.83329   0.75029   0.00000  Uiso   1.00
C1515  C     0.47235   0.69145   0.72424   0.00000  Uiso   1.00
C1516  C     0.52762   0.97518   0.77582   0.00000  Uiso   1.00
C1517  C     0.52765   0.69145   0.77576   0.00000  Uiso   1.00
C1518  C     0.47239   0.97518   0.72418   0.00000  Uiso   1.00
C1519  C     0.49832   0.83338   0.66455   0.00000  Uiso   1.00
C1520  C     0.50164   0.83337   0.83545   0.00000  Uiso   1.00
C1521  C     0.54054   0.83649   0.90811   0.00000  Uiso   1.00
C1522  C     0.45942   0.83656   0.59192   0.00000  Uiso   1.00
C1523  C     0.50320   0.83389   0.88368   0.00000  Uiso   1.00
C1524  C     0.49676   0.83393   0.61634   0.00000  Uiso   1.00
C1525  C     0.46595   0.83302   0.90462   0.00000  Uiso   1.00
C1526  C     0.53402   0.83322   0.59539   0.00000  Uiso   1.00
C1527  C     0.46376   0.83634   0.95082   0.00000  Uiso   1.00
C1528  C     0.53618   0.83666   0.54921   0.00000  Uiso   1.00
C1529  C     0.50075   0.83781   0.97654   0.00000  Uiso   1.00
C1530  C     0.49918   0.83784   0.52348   0.00000  Uiso   1.00
C1531  C     0.53932   0.83750   0.95534   0.00000  Uiso   1.00
C1532  C     0.46062   0.83735   0.54469   0.00000  Uiso   1.00
C1533  C     0.42540   0.83687   0.97178   0.00000  Uiso   1.00
C1534  C     0.57454   0.83760   0.52826   0.00000  Uiso   1.00
Cu1535 Cu    0.50000   0.88022   0.75000   0.00000  Uiso   1.00
Cu1536 Cu    0.50000   0.78645   0.75000   0.00000  Uiso   1.00
N1537  N     0.50000   0.95069   0.75000   0.00000  Uiso   1.00
N1538  N     0.50000   0.71598   0.75000   0.00000  Uiso   1.00
O1539  O     0.43988   0.87291   0.74999   0.00000  Uiso   1.00
O1540  O     0.56012   0.79375   0.75000   0.00000  Uiso   1.00
O1541  O     0.56012   0.87291   0.75000   0.00000  Uiso   1.00
O1542  O     0.43988   0.79375   0.74999   0.00000  Uiso   1.00
O1543  O     0.49999   0.87293   0.68513   0.00000  Uiso   1.00
O1544  O     0.50001   0.79373   0.81487   0.00000  Uiso   1.00
O1545  O     0.50001   0.87293   0.81487   0.00000  Uiso   1.00
O1546  O     0.49999   0.79373   0.68513   0.00000  Uiso   1.00
C1547  C     0.58074   0.83435   0.88342   0.00000  Uiso   1.00
C1548  C     0.59380   0.78315   0.87748   0.00000  Uiso   1.00
C1549  C     0.63847   0.77918   0.86452   0.00000  Uiso   1.00
H1550  H     0.64623   0.80587   0.83932   0.00000  Uiso   1.00
H1551  H     0.65822   0.78438   0.89445   0.00000  Uiso   1.00
H1552  H     0.64449   0.74375   0.85096   0.00000  Uiso   1.00
H1553  H     0.58966   0.76315   0.90878   0.00000  Uiso   1.00
H1554  H     0.57412   0.76683   0.85113   0.00000  Uiso   1.00
H1555  H     0.57756   0.85099   0.85015   0.00000  Uiso   1.00
H1556  H     0.60510   0.85552   0.90007   0.00000  Uiso   1.00
C1557  C     0.41922   0.83501   0.61666   0.00000  Uiso   1.00
C1558  C     0.40608   0.78399   0.62374   0.00000  Uiso   1.00
C1559  C     0.36093   0.78028   0.63480   0.00000  Uiso   1.00
H1560  H     0.35220   0.80763   0.65897   0.00000  Uiso   1.00
H1561  H     0.34233   0.78459   0.60389   0.00000  Uiso   1.00
H1562  H     0.35446   0.74521   0.64894   0.00000  Uiso   1.00
H1563  H     0.41143   0.76284   0.59337   0.00000  Uiso   1.00
H1564  H     0.42481   0.76873   0.65143   0.00000  Uiso   1.00
H1565  H     0.42245   0.85245   0.64956   0.00000  Uiso   1.00
H1566  H     0.39489   0.85587   0.59960   0.00000  Uiso   1.00
H1567  H     0.43867   0.82974   0.88368   0.00000  Uiso   1.00
H1568  H     0.56131   0.83004   0.61633   0.00000  Uiso   1.00
C1569  C     0.38489   0.83440   0.94570   0.00000  Uiso   1.00
C1570  C     0.37517   0.87934   0.91897   0.00000  Uiso   1.00
C1571  C     0.35640   0.91733   0.94753   0.00000  Uiso   1.00
H1572  H     0.65984   0.90513   0.95997   0.00000  Uiso   1.00
H1573  H     0.37751   0.92631   0.97579   0.00000  Uiso   1.00
H1574  H     0.35097   0.94926   0.92717   0.00000  Uiso   1.00
H1575  H     0.40292   0.89399   0.90355   0.00000  Uiso   1.00
H1576  H     0.35293   0.87067   0.89161   0.00000  Uiso   1.00
H1577  H     0.38636   0.80401   0.92288   0.00000  Uiso   1.00
H1578  H     0.35885   0.82664   0.96773   0.00000  Uiso   1.00
C1579  C     0.61506   0.83574   0.55436   0.00000  Uiso   1.00
C1580  C     0.62422   0.88077   0.58117   0.00000  Uiso   1.00
C1581  C     0.64289   0.91901   0.55281   0.00000  Uiso   1.00
H1582  H     0.33977   0.90729   0.54087   0.00000  Uiso   1.00
H1583  H     0.62202   0.92763   0.52424   0.00000  Uiso   1.00
H1584  H     0.64768   0.95107   0.57316   0.00000  Uiso   1.00
H1585  H     0.59623   0.89508   0.59637   0.00000  Uiso   1.00
H1586  H     0.64635   0.87230   0.60871   0.00000  Uiso   1.00
H1587  H     0.61394   0.80530   0.57715   0.00000  Uiso   1.00
H1588  H     0.64121   0.82844   0.53234   0.00000  Uiso   1.00
H1589  H     0.39466   0.83465   0.53284   0.00000  Uiso   1.00
H1590  H     0.60531   0.83559   0.96722   0.00000  Uiso   1.00
H1591  H     0.37053   0.75750   0.74954   0.00000  Uiso   1.00
H1592  H     0.62948   0.90907   0.75057   0.00000  Uiso   1.00
H1593  H     0.62941   0.75751   0.74829   0.00000  Uiso   1.00
H1594  H     0.37056   0.90906   0.75089   0.00000  Uiso   1.00
H1595  H     0.45016   0.71008   0.70366   0.00000  Uiso   1.00
H1596  H     0.54972   0.95648   0.79652   0.00000  Uiso   1.00
H1597  H     0.54985   0.71009   0.79632   0.00000  Uiso   1.00
H1598  H     0.45029   0.95648   0.70347   0.00000  Uiso   1.00
C1599  C     0.75401   0.83332   0.75016   0.00000  Uiso   1.00
C1600  C     0.91266   0.83333   0.74974   0.00000  Uiso   1.00
C1601  C     0.75775   0.83669   0.51815   0.00000  Uiso   1.00
C1602  C     0.90886   0.83730   0.98189   0.00000  Uiso   1.00
C1603  C     0.68791   0.79075   0.74978   0.00000  Uiso   1.00
C1604  C     0.97876   0.87580   0.75016   0.00000  Uiso   1.00
C1605  C     0.97872   0.79077   0.74886   0.00000  Uiso   1.00
C1606  C     0.68793   0.87580   0.75048   0.00000  Uiso   1.00
C1607  C     0.95727   0.83330   0.74941   0.00000  Uiso   1.00
C1608  C     0.70939   0.83329   0.75029   0.00000  Uiso   1.00
C1609  C     0.80569   0.69145   0.72424   0.00000  Uiso   1.00
C1610  C     0.86095   0.97518   0.77582   0.00000  Uiso   1.00
C1611  C     0.86099   0.69145   0.77576   0.00000  Uiso   1.00
C1612  C     0.80572   0.97518   0.72418   0.00000  Uiso   1.00
C1613  C     0.83165   0.83338   0.66455   0.00000  Uiso   1.00
C1614  C     0.83497   0.83337   0.83545   0.00000  Uiso   1.00
C1615  C     0.87387   0.83649   0.90811   0.00000  Uiso   1.00
C1616  C     0.79275   0.83656   0.59192   0.00000  Uiso   1.00
C1617  C     0.83653   0.83389   0.88368   0.00000  Uiso   1.00
C1618  C     0.83010   0.83393   0.61634   0.00000  Uiso   1.00
C1619  C     0.79928   0.83302   0.90462   0.00000  Uiso   1.00
C1620  C     0.86735   0.83322   0.59539   0.00000  Uiso   1.00
C1621  C     0.79709   0.83634   0.95082   0.00000  Uiso   1.00
C1622  C     0.86952   0.83666   0.54921   0.00000  Uiso   1.00
C1623  C     0.83409   0.83781   0.97654   0.00000  Uiso   1.00
C1624  C     0.83252   0.83784   0.52348   0.00000  Uiso   1.00
C1625  C     0.87265   0.83750   0.95534   0.00000  Uiso   1.00
C1626  C     0.79396   0.83735   0.54469   0.00000  Uiso   1.00
C1627  C     0.75873   0.83687   0.97178   0.00000  Uiso   1.00
C1628  C     0.90788   0.83760   0.52826   0.00000  Uiso   1.00
Cu1629 Cu    0.83333   0.88022   0.75000   0.00000  Uiso   1.00
Cu1630 Cu    0.83333   0.78645   0.75000   0.00000  Uiso   1.00
N1631  N     0.83333   0.95069   0.75000   0.00000  Uiso   1.00
N1632  N     0.83333   0.71598   0.75000   0.00000  Uiso   1.00
O1633  O     0.77321   0.87291   0.74999   0.00000  Uiso   1.00
O1634  O     0.89345   0.79375   0.75000   0.00000  Uiso   1.00
O1635  O     0.89345   0.87291   0.75000   0.00000  Uiso   1.00
O1636  O     0.77321   0.79375   0.74999   0.00000  Uiso   1.00
O1637  O     0.83332   0.87293   0.68513   0.00000  Uiso   1.00
O1638  O     0.83334   0.79373   0.81487   0.00000  Uiso   1.00
O1639  O     0.83334   0.87293   0.81487   0.00000  Uiso   1.00
O1640  O     0.83332   0.79373   0.68513   0.00000  Uiso   1.00
C1641  C     0.91408   0.83435   0.88342   0.00000  Uiso   1.00
C1642  C     0.92713   0.78315   0.87748   0.00000  Uiso   1.00
C1643  C     0.97180   0.77918   0.86452   0.00000  Uiso   1.00
H1644  H     0.97956   0.80587   0.83932   0.00000  Uiso   1.00
H1645  H     0.99155   0.78438   0.89445   0.00000  Uiso   1.00
H1646  H     0.97782   0.74375   0.85096   0.00000  Uiso   1.00
H1647  H     0.92299   0.76315   0.90878   0.00000  Uiso   1.00
H1648  H     0.90746   0.76683   0.85113   0.00000  Uiso   1.00
H1649  H     0.91089   0.85099   0.85015   0.00000  Uiso   1.00
H1650  H     0.93843   0.85552   0.90007   0.00000  Uiso   1.00
C1651  C     0.75255   0.83501   0.61666   0.00000  Uiso   1.00
C1652  C     0.73942   0.78399   0.62374   0.00000  Uiso   1.00
C1653  C     0.69427   0.78028   0.63480   0.00000  Uiso   1.00
H1654  H     0.68554   0.80763   0.65897   0.00000  Uiso   1.00
H1655  H     0.67567   0.78459   0.60389   0.00000  Uiso   1.00
H1656  H     0.68779   0.74521   0.64894   0.00000  Uiso   1.00
H1657  H     0.74477   0.76284   0.59337   0.00000  Uiso   1.00
H1658  H     0.75814   0.76873   0.65143   0.00000  Uiso   1.00
H1659  H     0.75579   0.85245   0.64956   0.00000  Uiso   1.00
H1660  H     0.72822   0.85587   0.59960   0.00000  Uiso   1.00
H1661  H     0.77200   0.82974   0.88368   0.00000  Uiso   1.00
H1662  H     0.89464   0.83004   0.61633   0.00000  Uiso   1.00
C1663  C     0.71823   0.83440   0.94570   0.00000  Uiso   1.00
C1664  C     0.70850   0.87934   0.91897   0.00000  Uiso   1.00
C1665  C     0.68974   0.91733   0.94753   0.00000  Uiso   1.00
H1666  H     0.99317   0.90513   0.95997   0.00000  Uiso   1.00
H1667  H     0.71085   0.92631   0.97579   0.00000  Uiso   1.00
H1668  H     0.68430   0.94926   0.92717   0.00000  Uiso   1.00
H1669  H     0.73626   0.89399   0.90355   0.00000  Uiso   1.00
H1670  H     0.68626   0.87067   0.89161   0.00000  Uiso   1.00
H1671  H     0.71969   0.80401   0.92288   0.00000  Uiso   1.00
H1672  H     0.69218   0.82664   0.96773   0.00000  Uiso   1.00
C1673  C     0.94840   0.83574   0.55436   0.00000  Uiso   1.00
C1674  C     0.95756   0.88077   0.58117   0.00000  Uiso   1.00
C1675  C     0.97622   0.91901   0.55281   0.00000  Uiso   1.00
H1676  H     0.67310   0.90729   0.54087   0.00000  Uiso   1.00
H1677  H     0.95536   0.92763   0.52424   0.00000  Uiso   1.00
H1678  H     0.98101   0.95107   0.57316   0.00000  Uiso   1.00
H1679  H     0.92957   0.89508   0.59637   0.00000  Uiso   1.00
H1680  H     0.97968   0.87230   0.60871   0.00000  Uiso   1.00
H1681  H     0.94727   0.80530   0.57715   0.00000  Uiso   1.00
H1682  H     0.97455   0.82844   0.53234   0.00000  Uiso   1.00
H1683  H     0.72799   0.83465   0.53284   0.00000  Uiso   1.00
H1684  H     0.93864   0.83559   0.96722   0.00000  Uiso   1.00
H1685  H     0.70386   0.75750   0.74954   0.00000  Uiso   1.00
H1686  H     0.96282   0.90907   0.75057   0.00000  Uiso   1.00
H1687  H     0.96274   0.75751   0.74829   0.00000  Uiso   1.00
H1688  H     0.70389   0.90906   0.75089   0.00000  Uiso   1.00
H1689  H     0.78349   0.71008   0.70366   0.00000  Uiso   1.00
H1690  H     0.88306   0.95648   0.79652   0.00000  Uiso   1.00
H1691  H     0.88319   0.71009   0.79632   0.00000  Uiso   1.00
H1692  H     0.78362   0.95648   0.70347   0.00000  Uiso   1.00
loop_
_geom_bond_atom_site_label_1
_geom_bond_atom_site_label_2
_geom_bond_distance
_geom_bond_site_symmetry_2
_ccdc_geom_bond_type
C1     O38     1.292   .     A
C1     O35     1.293   .     A
C1     C10     1.455   .     S
C2     O36     1.292   .     A
C2     O37     1.293   .     A
C2     C9      1.455   .     S
C3     H85     1.078   .     S
C3     C28     1.409   .     A
C3     C875    1.396   1_554 S
C4     H86     1.078   .     S
C4     C27     1.409   .     A
C4     C876    1.396   .     S
C5     H87     1.083   .     S
C5     C10     1.402   .     A
C5     C195    1.386   1_455 S
C6     C9      1.401   .     A
C6     H88     1.083   .     S
C6     C102    1.386   .     S
C7     H89     1.083   .     S
C7     C9      1.402   .     A
C7     C99     1.386   .     S
C8     H90     1.083   .     S
C8     C10     1.401   .     A
C8     C194    1.386   1_455 S
C11    N34     1.367   .     A
C11    H91     1.081   .     S
C11    C578    1.416   1_545 S
C12    H92     1.082   .     S
C12    N33     1.367   .     A
C12    C295    1.417   .     S
C13    H93     1.081   .     S
C13    N34     1.367   .     A
C13    C576    1.417   1_545 S
C14    N33     1.367   .     A
C14    H94     1.082   .     S
C14    C293    1.416   .     S
C15    C20     1.450   .     S
C15    O39     1.288   .     A
C15    O42     1.291   .     A
C16    O40     1.291   .     A
C16    C19     1.450   .     S
C16    O41     1.289   .     A
C17    C27     1.422   .     A
C17    C43     1.524   .     S
C17    C19     1.408   .     A
C18    C53     1.524   .     S
C18    C20     1.408   .     A
C18    C28     1.422   .     A
C19    C21     1.382   .     A
C20    C22     1.382   .     A
C21    C23     1.396   .     A
C21    H63     1.081   .     S
C22    C24     1.396   .     A
C22    H64     1.081   .     S
C23    C29     1.415   .     A
C23    C25     1.417   .     A
C24    C26     1.417   .     A
C24    C30     1.415   .     A
C25    C27     1.424   .     A
C25    C872    1.414   .     S
C26    C28     1.424   .     A
C26    C871    1.414   1_554 S
C29    C65     1.521   .     S
C29    C849    1.396   .     S
C30    C75     1.521   .     S
C30    C850    1.396   1_554 S
Cu31   N33     2.012   .     S
Cu31   O37     1.972   .     S
Cu31   Cu32    2.678   .     S
Cu31   O35     1.971   .     S
Cu31   O41     1.962   .     S
Cu31   O39     1.962   .     S
Cu32   O36     1.971   .     S
Cu32   O38     1.972   .     S
Cu32   N34     2.012   .     S
Cu32   O40     1.962   .     S
Cu32   O42     1.962   .     S
C43    C44     1.535   .     S
C43    H52     1.108   .     S
C43    H51     1.110   .     S
C44    H49     1.112   .     S
C44    H50     1.110   .     S
C44    C45     1.521   .     S
C45    H48     1.110   .     S
C45    H47     1.104   .     S
C45    H46     1.108   .     S
C53    C54     1.535   .     S
C53    H61     1.110   .     S
C53    H62     1.108   .     S
C54    H60     1.109   .     S
C54    H59     1.112   .     S
C54    C55     1.521   .     S
C55    H56     1.109   .     S
C55    H57     1.104   .     S
C55    H58     1.110   .     S
C65    H73     1.108   .     S
C65    H74     1.112   .     S
C65    C66     1.543   .     S
C66    H72     1.111   .     S
C66    H71     1.109   .     S
C66    C67     1.522   .     S
C67    H69     1.110   .     S
C67    H70     1.110   .     S
C67    H256    1.109   1_455 S
H68    C161    1.109   .     S
C75    H83     1.108   .     S
C75    C76     1.543   .     S
C75    H84     1.112   .     S
C76    C77     1.522   .     S
C76    H82     1.111   .     S
C76    H81     1.109   .     S
C77    H79     1.110   .     S
C77    H80     1.110   .     S
C77    H172    1.109   .     S
H78    C265    1.109   1_455 S
C95    O132    1.292   .     A
C95    O129    1.293   .     A
C95    C104    1.455   .     S
C96    O130    1.292   .     A
C96    O131    1.293   .     A
C96    C103    1.455   .     S
C97    H179    1.078   .     S
C97    C122    1.409   .     A
C97    C969    1.396   1_554 S
C98    H180    1.078   .     S
C98    C121    1.409   .     A
C98    C970    1.396   .     S
C99    H181    1.083   .     S
C99    C104    1.402   .     A
C100   C103    1.401   .     A
C100   H182    1.083   .     S
C100   C196    1.386   .     S
C101   H183    1.083   .     S
C101   C103    1.402   .     A
C101   C193    1.386   .     S
C102   H184    1.083   .     S
C102   C104    1.401   .     A
C105   N128    1.367   .     A
C105   H185    1.081   .     S
C105   C672    1.416   1_545 S
C106   H186    1.082   .     S
C106   N127    1.367   .     A
C106   C389    1.417   .     S
C107   H187    1.081   .     S
C107   N128    1.367   .     A
C107   C670    1.417   1_545 S
C108   N127    1.367   .     A
C108   H188    1.082   .     S
C108   C387    1.416   .     S
C109   C114    1.450   .     S
C109   O133    1.288   .     A
C109   O136    1.291   .     A
C110   O134    1.291   .     A
C110   C113    1.450   .     S
C110   O135    1.289   .     A
C111   C121    1.422   .     A
C111   C137    1.524   .     S
C111   C113    1.408   .     A
C112   C147    1.524   .     S
C112   C114    1.408   .     A
C112   C122    1.422   .     A
C113   C115    1.382   .     A
C114   C116    1.382   .     A
C115   C117    1.396   .     A
C115   H157    1.081   .     S
C116   C118    1.396   .     A
C116   H158    1.081   .     S
C117   C123    1.415   .     A
C117   C119    1.417   .     A
C118   C120    1.417   .     A
C118   C124    1.415   .     A
C119   C121    1.424   .     A
C119   C966    1.414   .     S
C120   C122    1.424   .     A
C120   C965    1.414   1_554 S
C123   C159    1.521   .     S
C123   C943    1.396   .     S
C124   C169    1.521   .     S
C124   C944    1.396   1_554 S
Cu125  N127    2.012   .     S
Cu125  O131    1.972   .     S
Cu125  Cu126   2.678   .     S
Cu125  O129    1.971   .     S
Cu125  O135    1.962   .     S
Cu125  O133    1.962   .     S
Cu126  O130    1.971   .     S
Cu126  O132    1.972   .     S
Cu126  N128    2.012   .     S
Cu126  O134    1.962   .     S
Cu126  O136    1.962   .     S
C137   C138    1.535   .     S
C137   H146    1.108   .     S
C137   H145    1.110   .     S
C138   H143    1.112   .     S
C138   H144    1.110   .     S
C138   C139    1.521   .     S
C139   H142    1.110   .     S
C139   H141    1.104   .     S
C139   H140    1.108   .     S
C147   C148    1.535   .     S
C147   H155    1.110   .     S
C147   H156    1.108   .     S
C148   H154    1.109   .     S
C148   H153    1.112   .     S
C148   C149    1.521   .     S
C149   H150    1.109   .     S
C149   H151    1.104   .     S
C149   H152    1.110   .     S
C159   H167    1.108   .     S
C159   H168    1.112   .     S
C159   C160    1.543   .     S
C160   H166    1.111   .     S
C160   H165    1.109   .     S
C160   C161    1.522   .     S
C161   H163    1.110   .     S
C161   H164    1.110   .     S
H162   C255    1.109   .     S
C169   H177    1.108   .     S
C169   C170    1.543   .     S
C169   H178    1.112   .     S
C170   C171    1.522   .     S
C170   H176    1.111   .     S
C170   H175    1.109   .     S
C171   H173    1.110   .     S
C171   H174    1.110   .     S
C171   H266    1.109   .     S
C189   O226    1.292   .     A
C189   O223    1.293   .     A
C189   C198    1.455   .     S
C190   O224    1.292   .     A
C190   O225    1.293   .     A
C190   C197    1.455   .     S
C191   H273    1.078   .     S
C191   C216    1.409   .     A
C191   C1063   1.396   1_554 S
C192   H274    1.078   .     S
C192   C215    1.409   .     A
C192   C1064   1.396   .     S
C193   H275    1.083   .     S
C193   C198    1.402   .     A
C194   C197    1.401   .     A
C194   H276    1.083   .     S
C194   C8      1.386   1_655 S
C195   H277    1.083   .     S
C195   C197    1.402   .     A
C195   C5      1.386   1_655 S
C196   H278    1.083   .     S
C196   C198    1.401   .     A
C199   N222    1.367   .     A
C199   H279    1.081   .     S
C199   C766    1.416   1_545 S
C200   H280    1.082   .     S
C200   N221    1.367   .     A
C200   C483    1.417   .     S
C201   H281    1.081   .     S
C201   N222    1.367   .     A
C201   C764    1.417   1_545 S
C202   N221    1.367   .     A
C202   H282    1.082   .     S
C202   C481    1.416   .     S
C203   C208    1.450   .     S
C203   O227    1.288   .     A
C203   O230    1.291   .     A
C204   O228    1.291   .     A
C204   C207    1.450   .     S
C204   O229    1.289   .     A
C205   C215    1.422   .     A
C205   C231    1.524   .     S
C205   C207    1.408   .     A
C206   C241    1.524   .     S
C206   C208    1.408   .     A
C206   C216    1.422   .     A
C207   C209    1.382   .     A
C208   C210    1.382   .     A
C209   C211    1.396   .     A
C209   H251    1.081   .     S
C210   C212    1.396   .     A
C210   H252    1.081   .     S
C211   C217    1.415   .     A
C211   C213    1.417   .     A
C212   C214    1.417   .     A
C212   C218    1.415   .     A
C213   C215    1.424   .     A
C213   C1060   1.414   .     S
C214   C216    1.424   .     A
C214   C1059   1.414   1_554 S
C217   C253    1.521   .     S
C217   C1037   1.396   .     S
C218   C263    1.521   .     S
C218   C1038   1.396   1_554 S
Cu219  N221    2.012   .     S
Cu219  O225    1.972   .     S
Cu219  Cu220   2.678   .     S
Cu219  O223    1.971   .     S
Cu219  O229    1.962   .     S
Cu219  O227    1.962   .     S
Cu220  O224    1.971   .     S
Cu220  O226    1.972   .     S
Cu220  N222    2.012   .     S
Cu220  O228    1.962   .     S
Cu220  O230    1.962   .     S
C231   C232    1.535   .     S
C231   H240    1.108   .     S
C231   H239    1.110   .     S
C232   H237    1.112   .     S
C232   H238    1.110   .     S
C232   C233    1.521   .     S
C233   H236    1.110   .     S
C233   H235    1.104   .     S
C233   H234    1.108   .     S
C241   C242    1.535   .     S
C241   H249    1.110   .     S
C241   H250    1.108   .     S
C242   H248    1.109   .     S
C242   H247    1.112   .     S
C242   C243    1.521   .     S
C243   H244    1.109   .     S
C243   H245    1.104   .     S
C243   H246    1.110   .     S
C253   H261    1.108   .     S
C253   H262    1.112   .     S
C253   C254    1.543   .     S
C254   H260    1.111   .     S
C254   H259    1.109   .     S
C254   C255    1.522   .     S
C255   H257    1.110   .     S
C255   H258    1.110   .     S
H256   C67     1.109   1_655 S
C263   H271    1.108   .     S
C263   C264    1.543   .     S
C263   H272    1.112   .     S
C264   C265    1.522   .     S
C264   H270    1.111   .     S
C264   H269    1.109   .     S
C265   H267    1.110   .     S
C265   H268    1.110   .     S
C265   H78     1.109   1_655 S
C283   O320    1.292   .     A
C283   O317    1.293   .     A
C283   C292    1.455   .     S
C284   O318    1.292   .     A
C284   O319    1.293   .     A
C284   C291    1.455   .     S
C285   H367    1.078   .     S
C285   C310    1.409   .     A
C285   C1157   1.396   1_554 S
C286   H368    1.078   .     S
C286   C309    1.409   .     A
C286   C1158   1.396   .     S
C287   H369    1.083   .     S
C287   C292    1.402   .     A
C287   C477    1.386   1_455 S
C288   C291    1.401   .     A
C288   H370    1.083   .     S
C288   C384    1.386   .     S
C289   H371    1.083   .     S
C289   C291    1.402   .     A
C289   C381    1.386   .     S
C290   H372    1.083   .     S
C290   C292    1.401   .     A
C290   C476    1.386   1_455 S
C293   N316    1.367   .     A
C293   H373    1.081   .     S
C294   H374    1.082   .     S
C294   N315    1.367   .     A
C294   C577    1.417   .     S
C295   H375    1.081   .     S
C295   N316    1.367   .     A
C296   N315    1.367   .     A
C296   H376    1.082   .     S
C296   C575    1.416   .     S
C297   C302    1.450   .     S
C297   O321    1.288   .     A
C297   O324    1.291   .     A
C298   O322    1.291   .     A
C298   C301    1.450   .     S
C298   O323    1.289   .     A
C299   C309    1.422   .     A
C299   C325    1.524   .     S
C299   C301    1.408   .     A
C300   C335    1.524   .     S
C300   C302    1.408   .     A
C300   C310    1.422   .     A
C301   C303    1.382   .     A
C302   C304    1.382   .     A
C303   C305    1.396   .     A
C303   H345    1.081   .     S
C304   C306    1.396   .     A
C304   H346    1.081   .     S
C305   C311    1.415   .     A
C305   C307    1.417   .     A
C306   C308    1.417   .     A
C306   C312    1.415   .     A
C307   C309    1.424   .     A
C307   C1154   1.414   .     S
C308   C310    1.424   .     A
C308   C1153   1.414   1_554 S
C311   C347    1.521   .     S
C311   C1131   1.396   .     S
C312   C357    1.521   .     S
C312   C1132   1.396   1_554 S
Cu313  N315    2.012   .     S
Cu313  O319    1.972   .     S
Cu313  Cu314   2.678   .     S
Cu313  O317    1.971   .     S
Cu313  O323    1.962   .     S
Cu313  O321    1.962   .     S
Cu314  O318    1.971   .     S
Cu314  O320    1.972   .     S
Cu314  N316    2.012   .     S
Cu314  O322    1.962   .     S
Cu314  O324    1.962   .     S
C325   C326    1.535   .     S
C325   H334    1.108   .     S
C325   H333    1.110   .     S
C326   H331    1.112   .     S
C326   H332    1.110   .     S
C326   C327    1.521   .     S
C327   H330    1.110   .     S
C327   H329    1.104   .     S
C327   H328    1.108   .     S
C335   C336    1.535   .     S
C335   H343    1.110   .     S
C335   H344    1.108   .     S
C336   H342    1.109   .     S
C336   H341    1.112   .     S
C336   C337    1.521   .     S
C337   H338    1.109   .     S
C337   H339    1.104   .     S
C337   H340    1.110   .     S
C347   H355    1.108   .     S
C347   H356    1.112   .     S
C347   C348    1.543   .     S
C348   H354    1.111   .     S
C348   H353    1.109   .     S
C348   C349    1.522   .     S
C349   H351    1.110   .     S
C349   H352    1.110   .     S
C349   H538    1.109   1_455 S
H350   C443    1.109   .     S
C357   H365    1.108   .     S
C357   C358    1.543   .     S
C357   H366    1.112   .     S
C358   C359    1.522   .     S
C358   H364    1.111   .     S
C358   H363    1.109   .     S
C359   H361    1.110   .     S
C359   H362    1.110   .     S
C359   H454    1.109   .     S
H360   C547    1.109   1_455 S
C377   O414    1.292   .     A
C377   O411    1.293   .     A
C377   C386    1.455   .     S
C378   O412    1.292   .     A
C378   O413    1.293   .     A
C378   C385    1.455   .     S
C379   H461    1.078   .     S
C379   C404    1.409   .     A
C379   C1251   1.396   1_554 S
C380   H462    1.078   .     S
C380   C403    1.409   .     A
C380   C1252   1.396   .     S
C381   H463    1.083   .     S
C381   C386    1.402   .     A
C382   C385    1.401   .     A
C382   H464    1.083   .     S
C382   C478    1.386   .     S
C383   H465    1.083   .     S
C383   C385    1.402   .     A
C383   C475    1.386   .     S
C384   H466    1.083   .     S
C384   C386    1.401   .     A
C387   N410    1.367   .     A
C387   H467    1.081   .     S
C388   H468    1.082   .     S
C388   N409    1.367   .     A
C388   C671    1.417   .     S
C389   H469    1.081   .     S
C389   N410    1.367   .     A
C390   N409    1.367   .     A
C390   H470    1.082   .     S
C390   C669    1.416   .     S
C391   C396    1.450   .     S
C391   O415    1.288   .     A
C391   O418    1.291   .     A
C392   O416    1.291   .     A
C392   C395    1.450   .     S
C392   O417    1.289   .     A
C393   C403    1.422   .     A
C393   C419    1.524   .     S
C393   C395    1.408   .     A
C394   C429    1.524   .     S
C394   C396    1.408   .     A
C394   C404    1.422   .     A
C395   C397    1.382   .     A
C396   C398    1.382   .     A
C397   C399    1.396   .     A
C397   H439    1.081   .     S
C398   C400    1.396   .     A
C398   H440    1.081   .     S
C399   C405    1.415   .     A
C399   C401    1.417   .     A
C400   C402    1.417   .     A
C400   C406    1.415   .     A
C401   C403    1.424   .     A
C401   C1248   1.414   .     S
C402   C404    1.424   .     A
C402   C1247   1.414   1_554 S
C405   C441    1.521   .     S
C405   C1225   1.396   .     S
C406   C451    1.521   .     S
C406   C1226   1.396   1_554 S
Cu407  N409    2.012   .     S
Cu407  O413    1.972   .     S
Cu407  Cu408   2.678   .     S
Cu407  O411    1.971   .     S
Cu407  O417    1.962   .     S
Cu407  O415    1.962   .     S
Cu408  O412    1.971   .     S
Cu408  O414    1.972   .     S
Cu408  N410    2.012   .     S
Cu408  O416    1.962   .     S
Cu408  O418    1.962   .     S
C419   C420    1.535   .     S
C419   H428    1.108   .     S
C419   H427    1.110   .     S
C420   H425    1.112   .     S
C420   H426    1.110   .     S
C420   C421    1.521   .     S
C421   H424    1.110   .     S
C421   H423    1.104   .     S
C421   H422    1.108   .     S
C429   C430    1.535   .     S
C429   H437    1.110   .     S
C429   H438    1.108   .     S
C430   H436    1.109   .     S
C430   H435    1.112   .     S
C430   C431    1.521   .     S
C431   H432    1.109   .     S
C431   H433    1.104   .     S
C431   H434    1.110   .     S
C441   H449    1.108   .     S
C441   H450    1.112   .     S
C441   C442    1.543   .     S
C442   H448    1.111   .     S
C442   H447    1.109   .     S
C442   C443    1.522   .     S
C443   H445    1.110   .     S
C443   H446    1.110   .     S
H444   C537    1.109   .     S
C451   H459    1.108   .     S
C451   C452    1.543   .     S
C451   H460    1.112   .     S
C452   C453    1.522   .     S
C452   H458    1.111   .     S
C452   H457    1.109   .     S
C453   H455    1.110   .     S
C453   H456    1.110   .     S
C453   H548    1.109   .     S
C471   O508    1.292   .     A
C471   O505    1.293   .     A
C471   C480    1.455   .     S
C472   O506    1.292   .     A
C472   O507    1.293   .     A
C472   C479    1.455   .     S
C473   H555    1.078   .     S
C473   C498    1.409   .     A
C473   C1345   1.396   1_554 S
C474   H556    1.078   .     S
C474   C497    1.409   .     A
C474   C1346   1.396   .     S
C475   H557    1.083   .     S
C475   C480    1.402   .     A
C476   C479    1.401   .     A
C476   H558    1.083   .     S
C476   C290    1.386   1_655 S
C477   H559    1.083   .     S
C477   C479    1.402   .     A
C477   C287    1.386   1_655 S
C478   H560    1.083   .     S
C478   C480    1.401   .     A
C481   N504    1.367   .     A
C481   H561    1.081   .     S
C482   H562    1.082   .     S
C482   N503    1.367   .     A
C482   C765    1.417   .     S
C483   H563    1.081   .     S
C483   N504    1.367   .     A
C484   N503    1.367   .     A
C484   H564    1.082   .     S
C484   C763    1.416   .     S
C485   C490    1.450   .     S
C485   O509    1.288   .     A
C485   O512    1.291   .     A
C486   O510    1.291   .     A
C486   C489    1.450   .     S
C486   O511    1.289   .     A
C487   C497    1.422   .     A
C487   C513    1.524   .     S
C487   C489    1.408   .     A
C488   C523    1.524   .     S
C488   C490    1.408   .     A
C488   C498    1.422   .     A
C489   C491    1.382   .     A
C490   C492    1.382   .     A
C491   C493    1.396   .     A
C491   H533    1.081   .     S
C492   C494    1.396   .     A
C492   H534    1.081   .     S
C493   C499    1.415   .     A
C493   C495    1.417   .     A
C494   C496    1.417   .     A
C494   C500    1.415   .     A
C495   C497    1.424   .     A
C495   C1342   1.414   .     S
C496   C498    1.424   .     A
C496   C1341   1.414   1_554 S
C499   C535    1.521   .     S
C499   C1319   1.396   .     S
C500   C545    1.521   .     S
C500   C1320   1.396   1_554 S
Cu501  N503    2.012   .     S
Cu501  O507    1.972   .     S
Cu501  Cu502   2.678   .     S
Cu501  O505    1.971   .     S
Cu501  O511    1.962   .     S
Cu501  O509    1.962   .     S
Cu502  O506    1.971   .     S
Cu502  O508    1.972   .     S
Cu502  N504    2.012   .     S
Cu502  O510    1.962   .     S
Cu502  O512    1.962   .     S
C513   C514    1.535   .     S
C513   H522    1.108   .     S
C513   H521    1.110   .     S
C514   H519    1.112   .     S
C514   H520    1.110   .     S
C514   C515    1.521   .     S
C515   H518    1.110   .     S
C515   H517    1.104   .     S
C515   H516    1.108   .     S
C523   C524    1.535   .     S
C523   H531    1.110   .     S
C523   H532    1.108   .     S
C524   H530    1.109   .     S
C524   H529    1.112   .     S
C524   C525    1.521   .     S
C525   H526    1.109   .     S
C525   H527    1.104   .     S
C525   H528    1.110   .     S
C535   H543    1.108   .     S
C535   H544    1.112   .     S
C535   C536    1.543   .     S
C536   H542    1.111   .     S
C536   H541    1.109   .     S
C536   C537    1.522   .     S
C537   H539    1.110   .     S
C537   H540    1.110   .     S
H538   C349    1.109   1_655 S
C545   H553    1.108   .     S
C545   C546    1.543   .     S
C545   H554    1.112   .     S
C546   C547    1.522   .     S
C546   H552    1.111   .     S
C546   H551    1.109   .     S
C547   H549    1.110   .     S
C547   H550    1.110   .     S
C547   H360    1.109   1_655 S
C565   O602    1.292   .     A
C565   O599    1.293   .     A
C565   C574    1.455   .     S
C566   O600    1.292   .     A
C566   O601    1.293   .     A
C566   C573    1.455   .     S
C567   H649    1.078   .     S
C567   C592    1.409   .     A
C567   C1439   1.396   1_554 S
C568   H650    1.078   .     S
C568   C591    1.409   .     A
C568   C1440   1.396   .     S
C569   H651    1.083   .     S
C569   C574    1.402   .     A
C569   C759    1.386   1_455 S
C570   C573    1.401   .     A
C570   H652    1.083   .     S
C570   C666    1.386   .     S
C571   H653    1.083   .     S
C571   C573    1.402   .     A
C571   C663    1.386   .     S
C572   H654    1.083   .     S
C572   C574    1.401   .     A
C572   C758    1.386   1_455 S
C575   N598    1.367   .     A
C575   H655    1.081   .     S
C576   H656    1.082   .     S
C576   N597    1.367   .     A
C576   C13     1.417   1_565 S
C577   H657    1.081   .     S
C577   N598    1.367   .     A
C578   N597    1.367   .     A
C578   H658    1.082   .     S
C578   C11     1.416   1_565 S
C579   C584    1.450   .     S
C579   O603    1.288   .     A
C579   O606    1.291   .     A
C580   O604    1.291   .     A
C580   C583    1.450   .     S
C580   O605    1.289   .     A
C581   C591    1.422   .     A
C581   C607    1.524   .     S
C581   C583    1.408   .     A
C582   C617    1.524   .     S
C582   C584    1.408   .     A
C582   C592    1.422   .     A
C583   C585    1.382   .     A
C584   C586    1.382   .     A
C585   C587    1.396   .     A
C585   H627    1.081   .     S
C586   C588    1.396   .     A
C586   H628    1.081   .     S
C587   C593    1.415   .     A
C587   C589    1.417   .     A
C588   C590    1.417   .     A
C588   C594    1.415   .     A
C589   C591    1.424   .     A
C589   C1436   1.414   .     S
C590   C592    1.424   .     A
C590   C1435   1.414   1_554 S
C593   C629    1.521   .     S
C593   C1413   1.396   .     S
C594   C639    1.521   .     S
C594   C1414   1.396   1_554 S
Cu595  N597    2.012   .     S
Cu595  O601    1.972   .     S
Cu595  Cu596   2.678   .     S
Cu595  O599    1.971   .     S
Cu595  O605    1.962   .     S
Cu595  O603    1.962   .     S
Cu596  O600    1.971   .     S
Cu596  O602    1.972   .     S
Cu596  N598    2.012   .     S
Cu596  O604    1.962   .     S
Cu596  O606    1.962   .     S
C607   C608    1.535   .     S
C607   H616    1.108   .     S
C607   H615    1.110   .     S
C608   H613    1.112   .     S
C608   H614    1.110   .     S
C608   C609    1.521   .     S
C609   H612    1.110   .     S
C609   H611    1.104   .     S
C609   H610    1.108   .     S
C617   C618    1.535   .     S
C617   H625    1.110   .     S
C617   H626    1.108   .     S
C618   H624    1.109   .     S
C618   H623    1.112   .     S
C618   C619    1.521   .     S
C619   H620    1.109   .     S
C619   H621    1.104   .     S
C619   H622    1.110   .     S
C629   H637    1.108   .     S
C629   H638    1.112   .     S
C629   C630    1.543   .     S
C630   H636    1.111   .     S
C630   H635    1.109   .     S
C630   C631    1.522   .     S
C631   H633    1.110   .     S
C631   H634    1.110   .     S
C631   H820    1.109   1_455 S
H632   C725    1.109   .     S
C639   H647    1.108   .     S
C639   C640    1.543   .     S
C639   H648    1.112   .     S
C640   C641    1.522   .     S
C640   H646    1.111   .     S
C640   H645    1.109   .     S
C641   H643    1.110   .     S
C641   H644    1.110   .     S
C641   H736    1.109   .     S
H642   C829    1.109   1_455 S
C659   O696    1.292   .     A
C659   O693    1.293   .     A
C659   C668    1.455   .     S
C660   O694    1.292   .     A
C660   O695    1.293   .     A
C660   C667    1.455   .     S
C661   H743    1.078   .     S
C661   C686    1.409   .     A
C661   C1533   1.396   1_554 S
C662   H744    1.078   .     S
C662   C685    1.409   .     A
C662   C1534   1.396   .     S
C663   H745    1.083   .     S
C663   C668    1.402   .     A
C664   C667    1.401   .     A
C664   H746    1.083   .     S
C664   C760    1.386   .     S
C665   H747    1.083   .     S
C665   C667    1.402   .     A
C665   C757    1.386   .     S
C666   H748    1.083   .     S
C666   C668    1.401   .     A
C669   N692    1.367   .     A
C669   H749    1.081   .     S
C670   H750    1.082   .     S
C670   N691    1.367   .     A
C670   C107    1.417   1_565 S
C671   H751    1.081   .     S
C671   N692    1.367   .     A
C672   N691    1.367   .     A
C672   H752    1.082   .     S
C672   C105    1.416   1_565 S
C673   C678    1.450   .     S
C673   O697    1.288   .     A
C673   O700    1.291   .     A
C674   O698    1.291   .     A
C674   C677    1.450   .     S
C674   O699    1.289   .     A
C675   C685    1.422   .     A
C675   C701    1.524   .     S
C675   C677    1.408   .     A
C676   C711    1.524   .     S
C676   C678    1.408   .     A
C676   C686    1.422   .     A
C677   C679    1.382   .     A
C678   C680    1.382   .     A
C679   C681    1.396   .     A
C679   H721    1.081   .     S
C680   C682    1.396   .     A
C680   H722    1.081   .     S
C681   C687    1.415   .     A
C681   C683    1.417   .     A
C682   C684    1.417   .     A
C682   C688    1.415   .     A
C683   C685    1.424   .     A
C683   C1530   1.414   .     S
C684   C686    1.424   .     A
C684   C1529   1.414   1_554 S
C687   C723    1.521   .     S
C687   C1507   1.396   .     S
C688   C733    1.521   .     S
C688   C1508   1.396   1_554 S
Cu689  N691    2.012   .     S
Cu689  O695    1.972   .     S
Cu689  Cu690   2.678   .     S
Cu689  O693    1.971   .     S
Cu689  O699    1.962   .     S
Cu689  O697    1.962   .     S
Cu690  O694    1.971   .     S
Cu690  O696    1.972   .     S
Cu690  N692    2.012   .     S
Cu690  O698    1.962   .     S
Cu690  O700    1.962   .     S
C701   C702    1.535   .     S
C701   H710    1.108   .     S
C701   H709    1.110   .     S
C702   H707    1.112   .     S
C702   H708    1.110   .     S
C702   C703    1.521   .     S
C703   H706    1.110   .     S
C703   H705    1.104   .     S
C703   H704    1.108   .     S
C711   C712    1.535   .     S
C711   H719    1.110   .     S
C711   H720    1.108   .     S
C712   H718    1.109   .     S
C712   H717    1.112   .     S
C712   C713    1.521   .     S
C713   H714    1.109   .     S
C713   H715    1.104   .     S
C713   H716    1.110   .     S
C723   H731    1.108   .     S
C723   H732    1.112   .     S
C723   C724    1.543   .     S
C724   H730    1.111   .     S
C724   H729    1.109   .     S
C724   C725    1.522   .     S
C725   H727    1.110   .     S
C725   H728    1.110   .     S
H726   C819    1.109   .     S
C733   H741    1.108   .     S
C733   C734    1.543   .     S
C733   H742    1.112   .     S
C734   C735    1.522   .     S
C734   H740    1.111   .     S
C734   H739    1.109   .     S
C735   H737    1.110   .     S
C735   H738    1.110   .     S
C735   H830    1.109   .     S
C753   O790    1.292   .     A
C753   O787    1.293   .     A
C753   C762    1.455   .     S
C754   O788    1.292   .     A
C754   O789    1.293   .     A
C754   C761    1.455   .     S
C755   H837    1.078   .     S
C755   C780    1.409   .     A
C755   C1627   1.396   1_554 S
C756   H838    1.078   .     S
C756   C779    1.409   .     A
C756   C1628   1.396   .     S
C757   H839    1.083   .     S
C757   C762    1.402   .     A
C758   C761    1.401   .     A
C758   H840    1.083   .     S
C758   C572    1.386   1_655 S
C759   H841    1.083   .     S
C759   C761    1.402   .     A
C759   C569    1.386   1_655 S
C760   H842    1.083   .     S
C760   C762    1.401   .     A
C763   N786    1.367   .     A
C763   H843    1.081   .     S
C764   H844    1.082   .     S
C764   N785    1.367   .     A
C764   C201    1.417   1_565 S
C765   H845    1.081   .     S
C765   N786    1.367   .     A
C766   N785    1.367   .     A
C766   H846    1.082   .     S
C766   C199    1.416   1_565 S
C767   C772    1.450   .     S
C767   O791    1.288   .     A
C767   O794    1.291   .     A
C768   O792    1.291   .     A
C768   C771    1.450   .     S
C768   O793    1.289   .     A
C769   C779    1.422   .     A
C769   C795    1.524   .     S
C769   C771    1.408   .     A
C770   C805    1.524   .     S
C770   C772    1.408   .     A
C770   C780    1.422   .     A
C771   C773    1.382   .     A
C772   C774    1.382   .     A
C773   C775    1.396   .     A
C773   H815    1.081   .     S
C774   C776    1.396   .     A
C774   H816    1.081   .     S
C775   C781    1.415   .     A
C775   C777    1.417   .     A
C776   C778    1.417   .     A
C776   C782    1.415   .     A
C777   C779    1.424   .     A
C777   C1624   1.414   .     S
C778   C780    1.424   .     A
C778   C1623   1.414   1_554 S
C781   C817    1.521   .     S
C781   C1601   1.396   .     S
C782   C827    1.521   .     S
C782   C1602   1.396   1_554 S
Cu783  N785    2.012   .     S
Cu783  O789    1.972   .     S
Cu783  Cu784   2.678   .     S
Cu783  O787    1.971   .     S
Cu783  O793    1.962   .     S
Cu783  O791    1.962   .     S
Cu784  O788    1.971   .     S
Cu784  O790    1.972   .     S
Cu784  N786    2.012   .     S
Cu784  O792    1.962   .     S
Cu784  O794    1.962   .     S
C795   C796    1.535   .     S
C795   H804    1.108   .     S
C795   H803    1.110   .     S
C796   H801    1.112   .     S
C796   H802    1.110   .     S
C796   C797    1.521   .     S
C797   H800    1.110   .     S
C797   H799    1.104   .     S
C797   H798    1.108   .     S
C805   C806    1.535   .     S
C805   H813    1.110   .     S
C805   H814    1.108   .     S
C806   H812    1.109   .     S
C806   H811    1.112   .     S
C806   C807    1.521   .     S
C807   H808    1.109   .     S
C807   H809    1.104   .     S
C807   H810    1.110   .     S
C817   H825    1.108   .     S
C817   H826    1.112   .     S
C817   C818    1.543   .     S
C818   H824    1.111   .     S
C818   H823    1.109   .     S
C818   C819    1.522   .     S
C819   H821    1.110   .     S
C819   H822    1.110   .     S
H820   C631    1.109   1_655 S
C827   H835    1.108   .     S
C827   C828    1.543   .     S
C827   H836    1.112   .     S
C828   C829    1.522   .     S
C828   H834    1.111   .     S
C828   H833    1.109   .     S
C829   H831    1.110   .     S
C829   H832    1.110   .     S
C829   H642    1.109   1_655 S
C847   O884    1.292   .     A
C847   O881    1.293   .     A
C847   C856    1.455   .     S
C848   O882    1.292   .     A
C848   O883    1.293   .     A
C848   C855    1.455   .     S
C849   H931    1.078   .     S
C849   C874    1.409   .     A
C850   H932    1.078   .     S
C850   C873    1.409   .     A
C850   C30     1.396   1_556 S
C851   H933    1.083   .     S
C851   C856    1.402   .     A
C851   C1041   1.386   1_455 S
C852   C855    1.401   .     A
C852   H934    1.083   .     S
C852   C948    1.386   .     S
C853   H935    1.083   .     S
C853   C855    1.402   .     A
C853   C945    1.386   .     S
C854   H936    1.083   .     S
C854   C856    1.401   .     A
C854   C1040   1.386   1_455 S
C857   N880    1.367   .     A
C857   H937    1.081   .     S
C857   C1424   1.416   1_545 S
C858   H938    1.082   .     S
C858   N879    1.367   .     A
C858   C1141   1.417   .     S
C859   H939    1.081   .     S
C859   N880    1.367   .     A
C859   C1422   1.417   1_545 S
C860   N879    1.367   .     A
C860   H940    1.082   .     S
C860   C1139   1.416   .     S
C861   C866    1.450   .     S
C861   O885    1.288   .     A
C861   O888    1.291   .     A
C862   O886    1.291   .     A
C862   C865    1.450   .     S
C862   O887    1.289   .     A
C863   C873    1.422   .     A
C863   C889    1.524   .     S
C863   C865    1.408   .     A
C864   C899    1.524   .     S
C864   C866    1.408   .     A
C864   C874    1.422   .     A
C865   C867    1.382   .     A
C866   C868    1.382   .     A
C867   C869    1.396   .     A
C867   H909    1.081   .     S
C868   C870    1.396   .     A
C868   H910    1.081   .     S
C869   C875    1.415   .     A
C869   C871    1.417   .     A
C870   C872    1.417   .     A
C870   C876    1.415   .     A
C871   C873    1.424   .     A
C871   C26     1.414   1_556 S
C872   C874    1.424   .     A
C875   C911    1.521   .     S
C875   C3      1.396   1_556 S
C876   C921    1.521   .     S
Cu877  N879    2.012   .     S
Cu877  O883    1.972   .     S
Cu877  Cu878   2.678   .     S
Cu877  O881    1.971   .     S
Cu877  O887    1.962   .     S
Cu877  O885    1.962   .     S
Cu878  O882    1.971   .     S
Cu878  O884    1.972   .     S
Cu878  N880    2.012   .     S
Cu878  O886    1.962   .     S
Cu878  O888    1.962   .     S
C889   C890    1.535   .     S
C889   H898    1.108   .     S
C889   H897    1.110   .     S
C890   H895    1.112   .     S
C890   H896    1.110   .     S
C890   C891    1.521   .     S
C891   H894    1.110   .     S
C891   H893    1.104   .     S
C891   H892    1.108   .     S
C899   C900    1.535   .     S
C899   H907    1.110   .     S
C899   H908    1.108   .     S
C900   H906    1.109   .     S
C900   H905    1.112   .     S
C900   C901    1.521   .     S
C901   H902    1.109   .     S
C901   H903    1.104   .     S
C901   H904    1.110   .     S
C911   H919    1.108   .     S
C911   H920    1.112   .     S
C911   C912    1.543   .     S
C912   H918    1.111   .     S
C912   H917    1.109   .     S
C912   C913    1.522   .     S
C913   H915    1.110   .     S
C913   H916    1.110   .     S
C913   H1102   1.109   1_455 S
H914   C1007   1.109   .     S
C921   H929    1.108   .     S
C921   C922    1.543   .     S
C921   H930    1.112   .     S
C922   C923    1.522   .     S
C922   H928    1.111   .     S
C922   H927    1.109   .     S
C923   H925    1.110   .     S
C923   H926    1.110   .     S
C923   H1018   1.109   .     S
H924   C1111   1.109   1_455 S
C941   O978    1.292   .     A
C941   O975    1.293   .     A
C941   C950    1.455   .     S
C942   O976    1.292   .     A
C942   O977    1.293   .     A
C942   C949    1.455   .     S
C943   H1025   1.078   .     S
C943   C968    1.409   .     A
C944   H1026   1.078   .     S
C944   C967    1.409   .     A
C944   C124    1.396   1_556 S
C945   H1027   1.083   .     S
C945   C950    1.402   .     A
C946   C949    1.401   .     A
C946   H1028   1.083   .     S
C946   C1042   1.386   .     S
C947   H1029   1.083   .     S
C947   C949    1.402   .     A
C947   C1039   1.386   .     S
C948   H1030   1.083   .     S
C948   C950    1.401   .     A
C951   N974    1.367   .     A
C951   H1031   1.081   .     S
C951   C1518   1.416   1_545 S
C952   H1032   1.082   .     S
C952   N973    1.367   .     A
C952   C1235   1.417   .     S
C953   H1033   1.081   .     S
C953   N974    1.367   .     A
C953   C1516   1.417   1_545 S
C954   N973    1.367   .     A
C954   H1034   1.082   .     S
C954   C1233   1.416   .     S
C955   C960    1.450   .     S
C955   O979    1.288   .     A
C955   O982    1.291   .     A
C956   O980    1.291   .     A
C956   C959    1.450   .     S
C956   O981    1.289   .     A
C957   C967    1.422   .     A
C957   C983    1.524   .     S
C957   C959    1.408   .     A
C958   C993    1.524   .     S
C958   C960    1.408   .     A
C958   C968    1.422   .     A
C959   C961    1.382   .     A
C960   C962    1.382   .     A
C961   C963    1.396   .     A
C961   H1003   1.081   .     S
C962   C964    1.396   .     A
C962   H1004   1.081   .     S
C963   C969    1.415   .     A
C963   C965    1.417   .     A
C964   C966    1.417   .     A
C964   C970    1.415   .     A
C965   C967    1.424   .     A
C965   C120    1.414   1_556 S
C966   C968    1.424   .     A
C969   C1005   1.521   .     S
C969   C97     1.396   1_556 S
C970   C1015   1.521   .     S
Cu971  N973    2.012   .     S
Cu971  O977    1.972   .     S
Cu971  Cu972   2.678   .     S
Cu971  O975    1.971   .     S
Cu971  O981    1.962   .     S
Cu971  O979    1.962   .     S
Cu972  O976    1.971   .     S
Cu972  O978    1.972   .     S
Cu972  N974    2.012   .     S
Cu972  O980    1.962   .     S
Cu972  O982    1.962   .     S
C983   C984    1.535   .     S
C983   H992    1.108   .     S
C983   H991    1.110   .     S
C984   H989    1.112   .     S
C984   H990    1.110   .     S
C984   C985    1.521   .     S
C985   H988    1.110   .     S
C985   H987    1.104   .     S
C985   H986    1.108   .     S
C993   C994    1.535   .     S
C993   H1001   1.110   .     S
C993   H1002   1.108   .     S
C994   H1000   1.109   .     S
C994   H999    1.112   .     S
C994   C995    1.521   .     S
C995   H996    1.109   .     S
C995   H997    1.104   .     S
C995   H998    1.110   .     S
C1005  H1013   1.108   .     S
C1005  H1014   1.112   .     S
C1005  C1006   1.543   .     S
C1006  H1012   1.111   .     S
C1006  H1011   1.109   .     S
C1006  C1007   1.522   .     S
C1007  H1009   1.110   .     S
C1007  H1010   1.110   .     S
H1008  C1101   1.109   .     S
C1015  H1023   1.108   .     S
C1015  C1016   1.543   .     S
C1015  H1024   1.112   .     S
C1016  C1017   1.522   .     S
C1016  H1022   1.111   .     S
C1016  H1021   1.109   .     S
C1017  H1019   1.110   .     S
C1017  H1020   1.110   .     S
C1017  H1112   1.109   .     S
C1035  O1072   1.292   .     A
C1035  O1069   1.293   .     A
C1035  C1044   1.455   .     S
C1036  O1070   1.292   .     A
C1036  O1071   1.293   .     A
C1036  C1043   1.455   .     S
C1037  H1119   1.078   .     S
C1037  C1062   1.409   .     A
C1038  H1120   1.078   .     S
C1038  C1061   1.409   .     A
C1038  C218    1.396   1_556 S
C1039  H1121   1.083   .     S
C1039  C1044   1.402   .     A
C1040  C1043   1.401   .     A
C1040  H1122   1.083   .     S
C1040  C854    1.386   1_655 S
C1041  H1123   1.083   .     S
C1041  C1043   1.402   .     A
C1041  C851    1.386   1_655 S
C1042  H1124   1.083   .     S
C1042  C1044   1.401   .     A
C1045  N1068   1.367   .     A
C1045  H1125   1.081   .     S
C1045  C1612   1.416   1_545 S
C1046  H1126   1.082   .     S
C1046  N1067   1.367   .     A
C1046  C1329   1.417   .     S
C1047  H1127   1.081   .     S
C1047  N1068   1.367   .     A
C1047  C1610   1.417   1_545 S
C1048  N1067   1.367   .     A
C1048  H1128   1.082   .     S
C1048  C1327   1.416   .     S
C1049  C1054   1.450   .     S
C1049  O1073   1.288   .     A
C1049  O1076   1.291   .     A
C1050  O1074   1.291   .     A
C1050  C1053   1.450   .     S
C1050  O1075   1.289   .     A
C1051  C1061   1.422   .     A
C1051  C1077   1.524   .     S
C1051  C1053   1.408   .     A
C1052  C1087   1.524   .     S
C1052  C1054   1.408   .     A
C1052  C1062   1.422   .     A
C1053  C1055   1.382   .     A
C1054  C1056   1.382   .     A
C1055  C1057   1.396   .     A
C1055  H1097   1.081   .     S
C1056  C1058   1.396   .     A
C1056  H1098   1.081   .     S
C1057  C1063   1.415   .     A
C1057  C1059   1.417   .     A
C1058  C1060   1.417   .     A
C1058  C1064   1.415   .     A
C1059  C1061   1.424   .     A
C1059  C214    1.414   1_556 S
C1060  C1062   1.424   .     A
C1063  C1099   1.521   .     S
C1063  C191    1.396   1_556 S
C1064  C1109   1.521   .     S
Cu1065 N1067   2.012   .     S
Cu1065 O1071   1.972   .     S
Cu1065 Cu1066  2.678   .     S
Cu1065 O1069   1.971   .     S
Cu1065 O1075   1.962   .     S
Cu1065 O1073   1.962   .     S
Cu1066 O1070   1.971   .     S
Cu1066 O1072   1.972   .     S
Cu1066 N1068   2.012   .     S
Cu1066 O1074   1.962   .     S
Cu1066 O1076   1.962   .     S
C1077  C1078   1.535   .     S
C1077  H1086   1.108   .     S
C1077  H1085   1.110   .     S
C1078  H1083   1.112   .     S
C1078  H1084   1.110   .     S
C1078  C1079   1.521   .     S
C1079  H1082   1.110   .     S
C1079  H1081   1.104   .     S
C1079  H1080   1.108   .     S
C1087  C1088   1.535   .     S
C1087  H1095   1.110   .     S
C1087  H1096   1.108   .     S
C1088  H1094   1.109   .     S
C1088  H1093   1.112   .     S
C1088  C1089   1.521   .     S
C1089  H1090   1.109   .     S
C1089  H1091   1.104   .     S
C1089  H1092   1.110   .     S
C1099  H1107   1.108   .     S
C1099  H1108   1.112   .     S
C1099  C1100   1.543   .     S
C1100  H1106   1.111   .     S
C1100  H1105   1.109   .     S
C1100  C1101   1.522   .     S
C1101  H1103   1.110   .     S
C1101  H1104   1.110   .     S
H1102  C913    1.109   1_655 S
C1109  H1117   1.108   .     S
C1109  C1110   1.543   .     S
C1109  H1118   1.112   .     S
C1110  C1111   1.522   .     S
C1110  H1116   1.111   .     S
C1110  H1115   1.109   .     S
C1111  H1113   1.110   .     S
C1111  H1114   1.110   .     S
C1111  H924    1.109   1_655 S
C1129  O1166   1.292   .     A
C1129  O1163   1.293   .     A
C1129  C1138   1.455   .     S
C1130  O1164   1.292   .     A
C1130  O1165   1.293   .     A
C1130  C1137   1.455   .     S
C1131  H1213   1.078   .     S
C1131  C1156   1.409   .     A
C1132  H1214   1.078   .     S
C1132  C1155   1.409   .     A
C1132  C312    1.396   1_556 S
C1133  H1215   1.083   .     S
C1133  C1138   1.402   .     A
C1133  C1323   1.386   1_455 S
C1134  C1137   1.401   .     A
C1134  H1216   1.083   .     S
C1134  C1230   1.386   .     S
C1135  H1217   1.083   .     S
C1135  C1137   1.402   .     A
C1135  C1227   1.386   .     S
C1136  H1218   1.083   .     S
C1136  C1138   1.401   .     A
C1136  C1322   1.386   1_455 S
C1139  N1162   1.367   .     A
C1139  H1219   1.081   .     S
C1140  H1220   1.082   .     S
C1140  N1161   1.367   .     A
C1140  C1423   1.417   .     S
C1141  H1221   1.081   .     S
C1141  N1162   1.367   .     A
C1142  N1161   1.367   .     A
C1142  H1222   1.082   .     S
C1142  C1421   1.416   .     S
C1143  C1148   1.450   .     S
C1143  O1167   1.288   .     A
C1143  O1170   1.291   .     A
C1144  O1168   1.291   .     A
C1144  C1147   1.450   .     S
C1144  O1169   1.289   .     A
C1145  C1155   1.422   .     A
C1145  C1171   1.524   .     S
C1145  C1147   1.408   .     A
C1146  C1181   1.524   .     S
C1146  C1148   1.408   .     A
C1146  C1156   1.422   .     A
C1147  C1149   1.382   .     A
C1148  C1150   1.382   .     A
C1149  C1151   1.396   .     A
C1149  H1191   1.081   .     S
C1150  C1152   1.396   .     A
C1150  H1192   1.081   .     S
C1151  C1157   1.415   .     A
C1151  C1153   1.417   .     A
C1152  C1154   1.417   .     A
C1152  C1158   1.415   .     A
C1153  C1155   1.424   .     A
C1153  C308    1.414   1_556 S
C1154  C1156   1.424   .     A
C1157  C1193   1.521   .     S
C1157  C285    1.396   1_556 S
C1158  C1203   1.521   .     S
Cu1159 N1161   2.012   .     S
Cu1159 O1165   1.972   .     S
Cu1159 Cu1160  2.678   .     S
Cu1159 O1163   1.971   .     S
Cu1159 O1169   1.962   .     S
Cu1159 O1167   1.962   .     S
Cu1160 O1164   1.971   .     S
Cu1160 O1166   1.972   .     S
Cu1160 N1162   2.012   .     S
Cu1160 O1168   1.962   .     S
Cu1160 O1170   1.962   .     S
C1171  C1172   1.535   .     S
C1171  H1180   1.108   .     S
C1171  H1179   1.110   .     S
C1172  H1177   1.112   .     S
C1172  H1178   1.110   .     S
C1172  C1173   1.521   .     S
C1173  H1176   1.110   .     S
C1173  H1175   1.104   .     S
C1173  H1174   1.108   .     S
C1181  C1182   1.535   .     S
C1181  H1189   1.110   .     S
C1181  H1190   1.108   .     S
C1182  H1188   1.109   .     S
C1182  H1187   1.112   .     S
C1182  C1183   1.521   .     S
C1183  H1184   1.109   .     S
C1183  H1185   1.104   .     S
C1183  H1186   1.110   .     S
C1193  H1201   1.108   .     S
C1193  H1202   1.112   .     S
C1193  C1194   1.543   .     S
C1194  H1200   1.111   .     S
C1194  H1199   1.109   .     S
C1194  C1195   1.522   .     S
C1195  H1197   1.110   .     S
C1195  H1198   1.110   .     S
C1195  H1384   1.109   1_455 S
H1196  C1289   1.109   .     S
C1203  H1211   1.108   .     S
C1203  C1204   1.543   .     S
C1203  H1212   1.112   .     S
C1204  C1205   1.522   .     S
C1204  H1210   1.111   .     S
C1204  H1209   1.109   .     S
C1205  H1207   1.110   .     S
C1205  H1208   1.110   .     S
C1205  H1300   1.109   .     S
H1206  C1393   1.109   1_455 S
C1223  O1260   1.292   .     A
C1223  O1257   1.293   .     A
C1223  C1232   1.455   .     S
C1224  O1258   1.292   .     A
C1224  O1259   1.293   .     A
C1224  C1231   1.455   .     S
C1225  H1307   1.078   .     S
C1225  C1250   1.409   .     A
C1226  H1308   1.078   .     S
C1226  C1249   1.409   .     A
C1226  C406    1.396   1_556 S
C1227  H1309   1.083   .     S
C1227  C1232   1.402   .     A
C1228  C1231   1.401   .     A
C1228  H1310   1.083   .     S
C1228  C1324   1.386   .     S
C1229  H1311   1.083   .     S
C1229  C1231   1.402   .     A
C1229  C1321   1.386   .     S
C1230  H1312   1.083   .     S
C1230  C1232   1.401   .     A
C1233  N1256   1.367   .     A
C1233  H1313   1.081   .     S
C1234  H1314   1.082   .     S
C1234  N1255   1.367   .     A
C1234  C1517   1.417   .     S
C1235  H1315   1.081   .     S
C1235  N1256   1.367   .     A
C1236  N1255   1.367   .     A
C1236  H1316   1.082   .     S
C1236  C1515   1.416   .     S
C1237  C1242   1.450   .     S
C1237  O1261   1.288   .     A
C1237  O1264   1.291   .     A
C1238  O1262   1.291   .     A
C1238  C1241   1.450   .     S
C1238  O1263   1.289   .     A
C1239  C1249   1.422   .     A
C1239  C1265   1.524   .     S
C1239  C1241   1.408   .     A
C1240  C1275   1.524   .     S
C1240  C1242   1.408   .     A
C1240  C1250   1.422   .     A
C1241  C1243   1.382   .     A
C1242  C1244   1.382   .     A
C1243  C1245   1.396   .     A
C1243  H1285   1.081   .     S
C1244  C1246   1.396   .     A
C1244  H1286   1.081   .     S
C1245  C1251   1.415   .     A
C1245  C1247   1.417   .     A
C1246  C1248   1.417   .     A
C1246  C1252   1.415   .     A
C1247  C1249   1.424   .     A
C1247  C402    1.414   1_556 S
C1248  C1250   1.424   .     A
C1251  C1287   1.521   .     S
C1251  C379    1.396   1_556 S
C1252  C1297   1.521   .     S
Cu1253 N1255   2.012   .     S
Cu1253 O1259   1.972   .     S
Cu1253 Cu1254  2.678   .     S
Cu1253 O1257   1.971   .     S
Cu1253 O1263   1.962   .     S
Cu1253 O1261   1.962   .     S
Cu1254 O1258   1.971   .     S
Cu1254 O1260   1.972   .     S
Cu1254 N1256   2.012   .     S
Cu1254 O1262   1.962   .     S
Cu1254 O1264   1.962   .     S
C1265  C1266   1.535   .     S
C1265  H1274   1.108   .     S
C1265  H1273   1.110   .     S
C1266  H1271   1.112   .     S
C1266  H1272   1.110   .     S
C1266  C1267   1.521   .     S
C1267  H1270   1.110   .     S
C1267  H1269   1.104   .     S
C1267  H1268   1.108   .     S
C1275  C1276   1.535   .     S
C1275  H1283   1.110   .     S
C1275  H1284   1.108   .     S
C1276  H1282   1.109   .     S
C1276  H1281   1.112   .     S
C1276  C1277   1.521   .     S
C1277  H1278   1.109   .     S
C1277  H1279   1.104   .     S
C1277  H1280   1.110   .     S
C1287  H1295   1.108   .     S
C1287  H1296   1.112   .     S
C1287  C1288   1.543   .     S
C1288  H1294   1.111   .     S
C1288  H1293   1.109   .     S
C1288  C1289   1.522   .     S
C1289  H1291   1.110   .     S
C1289  H1292   1.110   .     S
H1290  C1383   1.109   .     S
C1297  H1305   1.108   .     S
C1297  C1298   1.543   .     S
C1297  H1306   1.112   .     S
C1298  C1299   1.522   .     S
C1298  H1304   1.111   .     S
C1298  H1303   1.109   .     S
C1299  H1301   1.110   .     S
C1299  H1302   1.110   .     S
C1299  H1394   1.109   .     S
C1317  O1354   1.292   .     A
C1317  O1351   1.293   .     A
C1317  C1326   1.455   .     S
C1318  O1352   1.292   .     A
C1318  O1353   1.293   .     A
C1318  C1325   1.455   .     S
C1319  H1401   1.078   .     S
C1319  C1344   1.409   .     A
C1320  H1402   1.078   .     S
C1320  C1343   1.409   .     A
C1320  C500    1.396   1_556 S
C1321  H1403   1.083   .     S
C1321  C1326   1.402   .     A
C1322  C1325   1.401   .     A
C1322  H1404   1.083   .     S
C1322  C1136   1.386   1_655 S
C1323  H1405   1.083   .     S
C1323  C1325   1.402   .     A
C1323  C1133   1.386   1_655 S
C1324  H1406   1.083   .     S
C1324  C1326   1.401   .     A
C1327  N1350   1.367   .     A
C1327  H1407   1.081   .     S
C1328  H1408   1.082   .     S
C1328  N1349   1.367   .     A
C1328  C1611   1.417   .     S
C1329  H1409   1.081   .     S
C1329  N1350   1.367   .     A
C1330  N1349   1.367   .     A
C1330  H1410   1.082   .     S
C1330  C1609   1.416   .     S
C1331  C1336   1.450   .     S
C1331  O1355   1.288   .     A
C1331  O1358   1.291   .     A
C1332  O1356   1.291   .     A
C1332  C1335   1.450   .     S
C1332  O1357   1.289   .     A
C1333  C1343   1.422   .     A
C1333  C1359   1.524   .     S
C1333  C1335   1.408   .     A
C1334  C1369   1.524   .     S
C1334  C1336   1.408   .     A
C1334  C1344   1.422   .     A
C1335  C1337   1.382   .     A
C1336  C1338   1.382   .     A
C1337  C1339   1.396   .     A
C1337  H1379   1.081   .     S
C1338  C1340   1.396   .     A
C1338  H1380   1.081   .     S
C1339  C1345   1.415   .     A
C1339  C1341   1.417   .     A
C1340  C1342   1.417   .     A
C1340  C1346   1.415   .     A
C1341  C1343   1.424   .     A
C1341  C496    1.414   1_556 S
C1342  C1344   1.424   .     A
C1345  C1381   1.521   .     S
C1345  C473    1.396   1_556 S
C1346  C1391   1.521   .     S
Cu1347 N1349   2.012   .     S
Cu1347 O1353   1.972   .     S
Cu1347 Cu1348  2.678   .     S
Cu1347 O1351   1.971   .     S
Cu1347 O1357   1.962   .     S
Cu1347 O1355   1.962   .     S
Cu1348 O1352   1.971   .     S
Cu1348 O1354   1.972   .     S
Cu1348 N1350   2.012   .     S
Cu1348 O1356   1.962   .     S
Cu1348 O1358   1.962   .     S
C1359  C1360   1.535   .     S
C1359  H1368   1.108   .     S
C1359  H1367   1.110   .     S
C1360  H1365   1.112   .     S
C1360  H1366   1.110   .     S
C1360  C1361   1.521   .     S
C1361  H1364   1.110   .     S
C1361  H1363   1.104   .     S
C1361  H1362   1.108   .     S
C1369  C1370   1.535   .     S
C1369  H1377   1.110   .     S
C1369  H1378   1.108   .     S
C1370  H1376   1.109   .     S
C1370  H1375   1.112   .     S
C1370  C1371   1.521   .     S
C1371  H1372   1.109   .     S
C1371  H1373   1.104   .     S
C1371  H1374   1.110   .     S
C1381  H1389   1.108   .     S
C1381  H1390   1.112   .     S
C1381  C1382   1.543   .     S
C1382  H1388   1.111   .     S
C1382  H1387   1.109   .     S
C1382  C1383   1.522   .     S
C1383  H1385   1.110   .     S
C1383  H1386   1.110   .     S
H1384  C1195   1.109   1_655 S
C1391  H1399   1.108   .     S
C1391  C1392   1.543   .     S
C1391  H1400   1.112   .     S
C1392  C1393   1.522   .     S
C1392  H1398   1.111   .     S
C1392  H1397   1.109   .     S
C1393  H1395   1.110   .     S
C1393  H1396   1.110   .     S
C1393  H1206   1.109   1_655 S
C1411  O1448   1.292   .     A
C1411  O1445   1.293   .     A
C1411  C1420   1.455   .     S
C1412  O1446   1.292   .     A
C1412  O1447   1.293   .     A
C1412  C1419   1.455   .     S
C1413  H1495   1.078   .     S
C1413  C1438   1.409   .     A
C1414  H1496   1.078   .     S
C1414  C1437   1.409   .     A
C1414  C594    1.396   1_556 S
C1415  H1497   1.083   .     S
C1415  C1420   1.402   .     A
C1415  C1605   1.386   1_455 S
C1416  C1419   1.401   .     A
C1416  H1498   1.083   .     S
C1416  C1512   1.386   .     S
C1417  H1499   1.083   .     S
C1417  C1419   1.402   .     A
C1417  C1509   1.386   .     S
C1418  H1500   1.083   .     S
C1418  C1420   1.401   .     A
C1418  C1604   1.386   1_455 S
C1421  N1444   1.367   .     A
C1421  H1501   1.081   .     S
C1422  H1502   1.082   .     S
C1422  N1443   1.367   .     A
C1422  C859    1.417   1_565 S
C1423  H1503   1.081   .     S
C1423  N1444   1.367   .     A
C1424  N1443   1.367   .     A
C1424  H1504   1.082   .     S
C1424  C857    1.416   1_565 S
C1425  C1430   1.450   .     S
C1425  O1449   1.288   .     A
C1425  O1452   1.291   .     A
C1426  O1450   1.291   .     A
C1426  C1429   1.450   .     S
C1426  O1451   1.289   .     A
C1427  C1437   1.422   .     A
C1427  C1453   1.524   .     S
C1427  C1429   1.408   .     A
C1428  C1463   1.524   .     S
C1428  C1430   1.408   .     A
C1428  C1438   1.422   .     A
C1429  C1431   1.382   .     A
C1430  C1432   1.382   .     A
C1431  C1433   1.396   .     A
C1431  H1473   1.081   .     S
C1432  C1434   1.396   .     A
C1432  H1474   1.081   .     S
C1433  C1439   1.415   .     A
C1433  C1435   1.417   .     A
C1434  C1436   1.417   .     A
C1434  C1440   1.415   .     A
C1435  C1437   1.424   .     A
C1435  C590    1.414   1_556 S
C1436  C1438   1.424   .     A
C1439  C1475   1.521   .     S
C1439  C567    1.396   1_556 S
C1440  C1485   1.521   .     S
Cu1441 N1443   2.012   .     S
Cu1441 O1447   1.972   .     S
Cu1441 Cu1442  2.678   .     S
Cu1441 O1445   1.971   .     S
Cu1441 O1451   1.962   .     S
Cu1441 O1449   1.962   .     S
Cu1442 O1446   1.971   .     S
Cu1442 O1448   1.972   .     S
Cu1442 N1444   2.012   .     S
Cu1442 O1450   1.962   .     S
Cu1442 O1452   1.962   .     S
C1453  C1454   1.535   .     S
C1453  H1462   1.108   .     S
C1453  H1461   1.110   .     S
C1454  H1459   1.112   .     S
C1454  H1460   1.110   .     S
C1454  C1455   1.521   .     S
C1455  H1458   1.110   .     S
C1455  H1457   1.104   .     S
C1455  H1456   1.108   .     S
C1463  C1464   1.535   .     S
C1463  H1471   1.110   .     S
C1463  H1472   1.108   .     S
C1464  H1470   1.109   .     S
C1464  H1469   1.112   .     S
C1464  C1465   1.521   .     S
C1465  H1466   1.109   .     S
C1465  H1467   1.104   .     S
C1465  H1468   1.110   .     S
C1475  H1483   1.108   .     S
C1475  H1484   1.112   .     S
C1475  C1476   1.543   .     S
C1476  H1482   1.111   .     S
C1476  H1481   1.109   .     S
C1476  C1477   1.522   .     S
C1477  H1479   1.110   .     S
C1477  H1480   1.110   .     S
C1477  H1666   1.109   1_455 S
H1478  C1571   1.109   .     S
C1485  H1493   1.108   .     S
C1485  C1486   1.543   .     S
C1485  H1494   1.112   .     S
C1486  C1487   1.522   .     S
C1486  H1492   1.111   .     S
C1486  H1491   1.109   .     S
C1487  H1489   1.110   .     S
C1487  H1490   1.110   .     S
C1487  H1582   1.109   .     S
H1488  C1675   1.109   1_455 S
C1505  O1542   1.292   .     A
C1505  O1539   1.293   .     A
C1505  C1514   1.455   .     S
C1506  O1540   1.292   .     A
C1506  O1541   1.293   .     A
C1506  C1513   1.455   .     S
C1507  H1589   1.078   .     S
C1507  C1532   1.409   .     A
C1508  H1590   1.078   .     S
C1508  C1531   1.409   .     A
C1508  C688    1.396   1_556 S
C1509  H1591   1.083   .     S
C1509  C1514   1.402   .     A
C1510  C1513   1.401   .     A
C1510  H1592   1.083   .     S
C1510  C1606   1.386   .     S
C1511  H1593   1.083   .     S
C1511  C1513   1.402   .     A
C1511  C1603   1.386   .     S
C1512  H1594   1.083   .     S
C1512  C1514   1.401   .     A
C1515  N1538   1.367   .     A
C1515  H1595   1.081   .     S
C1516  H1596   1.082   .     S
C1516  N1537   1.367   .     A
C1516  C953    1.417   1_565 S
C1517  H1597   1.081   .     S
C1517  N1538   1.367   .     A
C1518  N1537   1.367   .     A
C1518  H1598   1.082   .     S
C1518  C951    1.416   1_565 S
C1519  C1524   1.450   .     S
C1519  O1543   1.288   .     A
C1519  O1546   1.291   .     A
C1520  O1544   1.291   .     A
C1520  C1523   1.450   .     S
C1520  O1545   1.289   .     A
C1521  C1531   1.422   .     A
C1521  C1547   1.524   .     S
C1521  C1523   1.408   .     A
C1522  C1557   1.524   .     S
C1522  C1524   1.408   .     A
C1522  C1532   1.422   .     A
C1523  C1525   1.382   .     A
C1524  C1526   1.382   .     A
C1525  C1527   1.396   .     A
C1525  H1567   1.081   .     S
C1526  C1528   1.396   .     A
C1526  H1568   1.081   .     S
C1527  C1533   1.415   .     A
C1527  C1529   1.417   .     A
C1528  C1530   1.417   .     A
C1528  C1534   1.415   .     A
C1529  C1531   1.424   .     A
C1529  C684    1.414   1_556 S
C1530  C1532   1.424   .     A
C1533  C1569   1.521   .     S
C1533  C661    1.396   1_556 S
C1534  C1579   1.521   .     S
Cu1535 N1537   2.012   .     S
Cu1535 O1541   1.972   .     S
Cu1535 Cu1536  2.678   .     S
Cu1535 O1539   1.971   .     S
Cu1535 O1545   1.962   .     S
Cu1535 O1543   1.962   .     S
Cu1536 O1540   1.971   .     S
Cu1536 O1542   1.972   .     S
Cu1536 N1538   2.012   .     S
Cu1536 O1544   1.962   .     S
Cu1536 O1546   1.962   .     S
C1547  C1548   1.535   .     S
C1547  H1556   1.108   .     S
C1547  H1555   1.110   .     S
C1548  H1553   1.112   .     S
C1548  H1554   1.110   .     S
C1548  C1549   1.521   .     S
C1549  H1552   1.110   .     S
C1549  H1551   1.104   .     S
C1549  H1550   1.108   .     S
C1557  C1558   1.535   .     S
C1557  H1565   1.110   .     S
C1557  H1566   1.108   .     S
C1558  H1564   1.109   .     S
C1558  H1563   1.112   .     S
C1558  C1559   1.521   .     S
C1559  H1560   1.109   .     S
C1559  H1561   1.104   .     S
C1559  H1562   1.110   .     S
C1569  H1577   1.108   .     S
C1569  H1578   1.112   .     S
C1569  C1570   1.543   .     S
C1570  H1576   1.111   .     S
C1570  H1575   1.109   .     S
C1570  C1571   1.522   .     S
C1571  H1573   1.110   .     S
C1571  H1574   1.110   .     S
H1572  C1665   1.109   .     S
C1579  H1587   1.108   .     S
C1579  C1580   1.543   .     S
C1579  H1588   1.112   .     S
C1580  C1581   1.522   .     S
C1580  H1586   1.111   .     S
C1580  H1585   1.109   .     S
C1581  H1583   1.110   .     S
C1581  H1584   1.110   .     S
C1581  H1676   1.109   .     S
C1599  O1636   1.292   .     A
C1599  O1633   1.293   .     A
C1599  C1608   1.455   .     S
C1600  O1634   1.292   .     A
C1600  O1635   1.293   .     A
C1600  C1607   1.455   .     S
C1601  H1683   1.078   .     S
C1601  C1626   1.409   .     A
C1602  H1684   1.078   .     S
C1602  C1625   1.409   .     A
C1602  C782    1.396   1_556 S
C1603  H1685   1.083   .     S
C1603  C1608   1.402   .     A
C1604  C1607   1.401   .     A
C1604  H1686   1.083   .     S
C1604  C1418   1.386   1_655 S
C1605  H1687   1.083   .     S
C1605  C1607   1.402   .     A
C1605  C1415   1.386   1_655 S
C1606  H1688   1.083   .     S
C1606  C1608   1.401   .     A
C1609  N1632   1.367   .     A
C1609  H1689   1.081   .     S
C1610  H1690   1.082   .     S
C1610  N1631   1.367   .     A
C1610  C1047   1.417   1_565 S
C1611  H1691   1.081   .     S
C1611  N1632   1.367   .     A
C1612  N1631   1.367   .     A
C1612  H1692   1.082   .     S
C1612  C1045   1.416   1_565 S
C1613  C1618   1.450   .     S
C1613  O1637   1.288   .     A
C1613  O1640   1.291   .     A
C1614  O1638   1.291   .     A
C1614  C1617   1.450   .     S
C1614  O1639   1.289   .     A
C1615  C1625   1.422   .     A
C1615  C1641   1.524   .     S
C1615  C1617   1.408   .     A
C1616  C1651   1.524   .     S
C1616  C1618   1.408   .     A
C1616  C1626   1.422   .     A
C1617  C1619   1.382   .     A
C1618  C1620   1.382   .     A
C1619  C1621   1.396   .     A
C1619  H1661   1.081   .     S
C1620  C1622   1.396   .     A
C1620  H1662   1.081   .     S
C1621  C1627   1.415   .     A
C1621  C1623   1.417   .     A
C1622  C1624   1.417   .     A
C1622  C1628   1.415   .     A
C1623  C1625   1.424   .     A
C1623  C778    1.414   1_556 S
C1624  C1626   1.424   .     A
C1627  C1663   1.521   .     S
C1627  C755    1.396   1_556 S
C1628  C1673   1.521   .     S
Cu1629 N1631   2.012   .     S
Cu1629 O1635   1.972   .     S
Cu1629 Cu1630  2.678   .     S
Cu1629 O1633   1.971   .     S
Cu1629 O1639   1.962   .     S
Cu1629 O1637   1.962   .     S
Cu1630 O1634   1.971   .     S
Cu1630 O1636   1.972   .     S
Cu1630 N1632   2.012   .     S
Cu1630 O1638   1.962   .     S
Cu1630 O1640   1.962   .     S
C1641  C1642   1.535   .     S
C1641  H1650   1.108   .     S
C1641  H1649   1.110   .     S
C1642  H1647   1.112   .     S
C1642  H1648   1.110   .     S
C1642  C1643   1.521   .     S
C1643  H1646   1.110   .     S
C1643  H1645   1.104   .     S
C1643  H1644   1.108   .     S
C1651  C1652   1.535   .     S
C1651  H1659   1.110   .     S
C1651  H1660   1.108   .     S
C1652  H1658   1.109   .     S
C1652  H1657   1.112   .     S
C1652  C1653   1.521   .     S
C1653  H1654   1.109   .     S
C1653  H1655   1.104   .     S
C1653  H1656   1.110   .     S
C1663  H1671   1.108   .     S
C1663  H1672   1.112   .     S
C1663  C1664   1.543   .     S
C1664  H1670   1.111   .     S
C1664  H1669   1.109   .     S
C1664  C1665   1.522   .     S
C1665  H1667   1.110   .     S
C1665  H1668   1.110   .     S
H1666  C1477   1.109   1_655 S
C1673  H1681   1.108   .     S
C1673  C1674   1.543   .     S
C1673  H1682   1.112   .     S
C1674  C1675   1.522   .     S
C1674  H1680   1.111   .     S
C1674  H1679   1.109   .     S
C1675  H1677   1.110   .     S
C1675  H1678   1.110   .     S
C1675  H1488   1.109   1_655 S
