data_str_m2_o10_o17_pcu_sym.56
_audit_creation_date              2020-01-03
_audit_creation_method            'Materials Studio'
_symmetry_space_group_name_H-M    'P1'
_symmetry_Int_Tables_number       1
_symmetry_cell_setting            triclinic
loop_
_symmetry_equiv_pos_as_xyz
  x,y,z
_cell_length_a                    30.1892
_cell_length_b                    26.8464
_cell_length_c                    22.8545
_cell_angle_alpha                 101.9505
_cell_angle_beta                  95.5215
_cell_angle_gamma                 93.2042
loop_
_atom_site_label
_atom_site_type_symbol
_atom_site_fract_x
_atom_site_fract_y
_atom_site_fract_z
_atom_site_U_iso_or_equiv
_atom_site_adp_type
_atom_site_occupancy
C1     C     0.24763   0.06684   0.15118   0.00000  Uiso   1.00
C2     C     0.08824   0.11691   0.14514   0.00000  Uiso   1.00
C3     C     0.38458   0.16463   0.17140   0.00000  Uiso   1.00
C4     C     0.11549   0.16222   0.16994   0.00000  Uiso   1.00
C5     C     0.40302   0.11750   0.15653   0.00000  Uiso   1.00
C6     C     0.09718   0.20414   0.20370   0.00000  Uiso   1.00
C7     C     0.44942   0.11500   0.16167   0.00000  Uiso   1.00
C8     C     0.05211   0.20111   0.21389   0.00000  Uiso   1.00
C9     C     0.47756   0.15906   0.18724   0.00000  Uiso   1.00
C10    C     0.02422   0.15732   0.18640   0.00000  Uiso   1.00
C11    C     0.45907   0.20509   0.21252   0.00000  Uiso   1.00
C12    C     0.25153   0.26614   0.18145   0.00000  Uiso   1.00
C13    C     0.04246   0.11306   0.15523   0.00000  Uiso   1.00
C14    C     0.46807   0.06901   0.14117   0.00000  Uiso   1.00
C15    C     0.03423   0.24290   0.24861   0.00000  Uiso   1.00
C16    C     0.36596   0.06280   0.07671   0.00000  Uiso   1.00
C17    C     0.33086   0.01848   0.05821   0.00000  Uiso   1.00
C18    C     0.10446   0.28126   0.17780   0.00000  Uiso   1.00
C19    C     0.14030   0.29438   0.14101   0.00000  Uiso   1.00
C20    C     0.20499   0.32561   0.04441   0.00000  Uiso   1.00
C21    C     0.18016   0.27688   0.00671   0.00000  Uiso   1.00
C22    C     0.31969   0.01832   0.24376   0.00000  Uiso   1.00
C23    C     0.01348   0.06764   0.13575   0.00000  Uiso   1.00
C24    C     0.34055   0.07139   0.27147   0.00000  Uiso   1.00
C25    C     0.17267   0.10584   0.32516   0.00000  Uiso   1.00
C26    C     0.14394   0.06688   0.27699   0.00000  Uiso   1.00
C27    C     0.33288   0.21538   0.00534   0.00000  Uiso   1.00
C28    C     0.36988   0.23564   0.05626   0.00000  Uiso   1.00
C29    C     0.48838   0.24565   0.24803   0.00000  Uiso   1.00
C30    C     0.24452   0.01049   0.14141   0.00000  Uiso   1.00
C31    C     0.25423   0.32161   0.18853   0.00000  Uiso   1.00
C32    C     0.16438   0.16515   0.16695   0.00000  Uiso   1.00
C33    C     0.33553   0.16645   0.16719   0.00000  Uiso   1.00
C34    C     0.41252   0.20827   0.20029   0.00000  Uiso   1.00
Cl35   Cl    0.38886   0.26709   0.21179   0.00000  Uiso   1.00
Cl36   Cl    0.11163   0.06888   0.09650   0.00000  Uiso   1.00
Cl37   Cl    0.02961   0.00634   0.10634   0.00000  Uiso   1.00
Cl38   Cl    0.47145   0.29908   0.29743   0.00000  Uiso   1.00
Cu39   Cu    0.25500   0.17246   0.22813   0.00000  Uiso   1.00
Cu40   Cu    0.24499   0.16087   0.10521   0.00000  Uiso   1.00
H41    H     0.44707   0.03368   0.12660   0.00000  Uiso   1.00
H42    H     0.16123   0.26192   0.13012   0.00000  Uiso   1.00
H43    H     0.12428   0.30190   0.09842   0.00000  Uiso   1.00
H44    H     0.16114   0.32866   0.16630   0.00000  Uiso   1.00
H45    H     0.21936   0.01403   0.01346   0.00000  Uiso   1.00
H46    H     0.18070   0.01527   0.06885   0.00000  Uiso   1.00
H47    H     0.14567   0.28494   0.32554   0.00000  Uiso   1.00
H48    H     0.19724   0.26286   0.29990   0.00000  Uiso   1.00
H49    H     0.17842   0.24628   0.03255   0.00000  Uiso   1.00
H50    H     0.33192   0.00734   0.19866   0.00000  Uiso   1.00
H51    H     0.33184   0.32447   0.27016   0.00000  Uiso   1.00
H52    H     0.05606   0.27469   0.27509   0.00000  Uiso   1.00
H53    H     0.37535   0.06989   0.29119   0.00000  Uiso   1.00
H54    H     0.34191   0.09314   0.23607   0.00000  Uiso   1.00
H55    H     0.31978   0.09105   0.30509   0.00000  Uiso   1.00
H56    H     0.15583   0.14218   0.33275   0.00000  Uiso   1.00
H57    H     0.17613   0.09030   0.03273   0.00000  Uiso   1.00
H58    H     0.15870   0.02950   0.27148   0.00000  Uiso   1.00
H59    H     0.10974   0.06253   0.29025   0.00000  Uiso   1.00
H60    H     0.14202   0.07931   0.23357   0.00000  Uiso   1.00
H61    H     0.33340   0.23997   0.30529   0.00000  Uiso   1.00
H62    H     0.34111   0.17611   0.31922   0.00000  Uiso   1.00
H63    H     0.39634   0.05251   0.05437   0.00000  Uiso   1.00
H64    H     0.35704   0.26199   0.09357   0.00000  Uiso   1.00
H65    H     0.38395   0.20357   0.07345   0.00000  Uiso   1.00
H66    H     0.39747   0.25595   0.03953   0.00000  Uiso   1.00
H67    H     0.35336   0.09634   0.06127   0.00000  Uiso   1.00
H68    H     0.30038   0.02990   0.03501   0.00000  Uiso   1.00
H69    H     0.32224   0.00360   0.09748   0.00000  Uiso   1.00
H70    H     0.34452   0.32066   0.02808   0.00000  Uiso   1.00
H71    H     0.09338   0.31683   0.20446   0.00000  Uiso   1.00
H72    H     0.07510   0.26286   0.14536   0.00000  Uiso   1.00
N73    N     0.23744   0.15214   0.01284   0.00000  Uiso   1.00
N74    N     0.26255   0.18119   0.32049   0.00000  Uiso   1.00
O75    O     0.25325   0.09538   0.20659   0.00000  Uiso   1.00
O76    O     0.12155   0.25094   0.21740   0.00000  Uiso   1.00
O77    O     0.23975   0.31311   0.08324   0.00000  Uiso   1.00
O78    O     0.27277   0.01726   0.24328   0.00000  Uiso   1.00
O79    O     0.21480   0.11291   0.30638   0.00000  Uiso   1.00
O80    O     0.29082   0.21552   0.02702   0.00000  Uiso   1.00
O81    O     0.24674   0.23796   0.12674   0.00000  Uiso   1.00
O82    O     0.24480   0.08559   0.10279   0.00000  Uiso   1.00
O83    O     0.25520   0.24774   0.23055   0.00000  Uiso   1.00
O84    O     0.18935   0.17155   0.21857   0.00000  Uiso   1.00
O85    O     0.31064   0.16179   0.11476   0.00000  Uiso   1.00
O86    O     0.18090   0.16176   0.11477   0.00000  Uiso   1.00
O87    O     0.31910   0.17157   0.21857   0.00000  Uiso   1.00
O88    O     0.37542   0.07331   0.13949   0.00000  Uiso   1.00
C89    C     0.74763   0.06684   0.15118   0.00000  Uiso   1.00
C90    C     0.58824   0.11691   0.14514   0.00000  Uiso   1.00
C91    C     0.88458   0.16463   0.17140   0.00000  Uiso   1.00
C92    C     0.61549   0.16222   0.16994   0.00000  Uiso   1.00
C93    C     0.90302   0.11750   0.15653   0.00000  Uiso   1.00
C94    C     0.59718   0.20414   0.20370   0.00000  Uiso   1.00
C95    C     0.94942   0.11500   0.16167   0.00000  Uiso   1.00
C96    C     0.55211   0.20111   0.21389   0.00000  Uiso   1.00
C97    C     0.97756   0.15906   0.18724   0.00000  Uiso   1.00
C98    C     0.52422   0.15732   0.18640   0.00000  Uiso   1.00
C99    C     0.95907   0.20509   0.21252   0.00000  Uiso   1.00
C100   C     0.75153   0.26614   0.18145   0.00000  Uiso   1.00
C101   C     0.54246   0.11306   0.15523   0.00000  Uiso   1.00
C102   C     0.96807   0.06901   0.14117   0.00000  Uiso   1.00
C103   C     0.53423   0.24290   0.24861   0.00000  Uiso   1.00
C104   C     0.86596   0.06280   0.07671   0.00000  Uiso   1.00
C105   C     0.83086   0.01848   0.05821   0.00000  Uiso   1.00
C106   C     0.60446   0.28126   0.17780   0.00000  Uiso   1.00
C107   C     0.64030   0.29438   0.14101   0.00000  Uiso   1.00
C108   C     0.70499   0.32561   0.04441   0.00000  Uiso   1.00
C109   C     0.68016   0.27688   0.00671   0.00000  Uiso   1.00
C110   C     0.81969   0.01832   0.24376   0.00000  Uiso   1.00
C111   C     0.51348   0.06764   0.13575   0.00000  Uiso   1.00
C112   C     0.84055   0.07139   0.27147   0.00000  Uiso   1.00
C113   C     0.67267   0.10584   0.32516   0.00000  Uiso   1.00
C114   C     0.64394   0.06688   0.27699   0.00000  Uiso   1.00
C115   C     0.83288   0.21538   0.00534   0.00000  Uiso   1.00
C116   C     0.86988   0.23564   0.05626   0.00000  Uiso   1.00
C117   C     0.98838   0.24565   0.24803   0.00000  Uiso   1.00
C118   C     0.74452   0.01049   0.14141   0.00000  Uiso   1.00
C119   C     0.75423   0.32161   0.18853   0.00000  Uiso   1.00
C120   C     0.66438   0.16515   0.16695   0.00000  Uiso   1.00
C121   C     0.83553   0.16645   0.16719   0.00000  Uiso   1.00
C122   C     0.91252   0.20827   0.20029   0.00000  Uiso   1.00
Cl123  Cl    0.88886   0.26709   0.21179   0.00000  Uiso   1.00
Cl124  Cl    0.61163   0.06888   0.09650   0.00000  Uiso   1.00
Cl125  Cl    0.52961   0.00634   0.10634   0.00000  Uiso   1.00
Cl126  Cl    0.97145   0.29908   0.29743   0.00000  Uiso   1.00
Cu127  Cu    0.75500   0.17246   0.22813   0.00000  Uiso   1.00
Cu128  Cu    0.74499   0.16087   0.10521   0.00000  Uiso   1.00
H129   H     0.94707   0.03368   0.12660   0.00000  Uiso   1.00
H130   H     0.66123   0.26192   0.13012   0.00000  Uiso   1.00
H131   H     0.62428   0.30190   0.09842   0.00000  Uiso   1.00
H132   H     0.66114   0.32866   0.16630   0.00000  Uiso   1.00
H133   H     0.71936   0.01403   0.01346   0.00000  Uiso   1.00
H134   H     0.68070   0.01527   0.06885   0.00000  Uiso   1.00
H135   H     0.64567   0.28494   0.32554   0.00000  Uiso   1.00
H136   H     0.69724   0.26286   0.29990   0.00000  Uiso   1.00
H137   H     0.67842   0.24628   0.03255   0.00000  Uiso   1.00
H138   H     0.83192   0.00734   0.19866   0.00000  Uiso   1.00
H139   H     0.83184   0.32447   0.27016   0.00000  Uiso   1.00
H140   H     0.55606   0.27469   0.27509   0.00000  Uiso   1.00
H141   H     0.87535   0.06989   0.29119   0.00000  Uiso   1.00
H142   H     0.84191   0.09314   0.23607   0.00000  Uiso   1.00
H143   H     0.81978   0.09105   0.30509   0.00000  Uiso   1.00
H144   H     0.65583   0.14218   0.33275   0.00000  Uiso   1.00
H145   H     0.67613   0.09030   0.03273   0.00000  Uiso   1.00
H146   H     0.65870   0.02950   0.27148   0.00000  Uiso   1.00
H147   H     0.60974   0.06253   0.29025   0.00000  Uiso   1.00
H148   H     0.64202   0.07931   0.23357   0.00000  Uiso   1.00
H149   H     0.83340   0.23997   0.30529   0.00000  Uiso   1.00
H150   H     0.84111   0.17611   0.31922   0.00000  Uiso   1.00
H151   H     0.89634   0.05251   0.05437   0.00000  Uiso   1.00
H152   H     0.85704   0.26199   0.09357   0.00000  Uiso   1.00
H153   H     0.88395   0.20357   0.07345   0.00000  Uiso   1.00
H154   H     0.89747   0.25595   0.03953   0.00000  Uiso   1.00
H155   H     0.85336   0.09634   0.06127   0.00000  Uiso   1.00
H156   H     0.80038   0.02990   0.03501   0.00000  Uiso   1.00
H157   H     0.82224   0.00360   0.09748   0.00000  Uiso   1.00
H158   H     0.84452   0.32066   0.02808   0.00000  Uiso   1.00
H159   H     0.59338   0.31683   0.20446   0.00000  Uiso   1.00
H160   H     0.57510   0.26286   0.14536   0.00000  Uiso   1.00
N161   N     0.73744   0.15214   0.01284   0.00000  Uiso   1.00
N162   N     0.76255   0.18119   0.32049   0.00000  Uiso   1.00
O163   O     0.75325   0.09538   0.20659   0.00000  Uiso   1.00
O164   O     0.62155   0.25094   0.21740   0.00000  Uiso   1.00
O165   O     0.73975   0.31311   0.08324   0.00000  Uiso   1.00
O166   O     0.77277   0.01726   0.24328   0.00000  Uiso   1.00
O167   O     0.71480   0.11291   0.30638   0.00000  Uiso   1.00
O168   O     0.79082   0.21552   0.02702   0.00000  Uiso   1.00
O169   O     0.74674   0.23796   0.12674   0.00000  Uiso   1.00
O170   O     0.74480   0.08559   0.10279   0.00000  Uiso   1.00
O171   O     0.75520   0.24774   0.23055   0.00000  Uiso   1.00
O172   O     0.68935   0.17155   0.21857   0.00000  Uiso   1.00
O173   O     0.81064   0.16179   0.11476   0.00000  Uiso   1.00
O174   O     0.68090   0.16176   0.11477   0.00000  Uiso   1.00
O175   O     0.81910   0.17157   0.21857   0.00000  Uiso   1.00
O176   O     0.87542   0.07331   0.13949   0.00000  Uiso   1.00
C177   C     0.24763   0.40018   0.15118   0.00000  Uiso   1.00
C178   C     0.08824   0.45024   0.14514   0.00000  Uiso   1.00
C179   C     0.38458   0.49796   0.17140   0.00000  Uiso   1.00
C180   C     0.11549   0.49556   0.16994   0.00000  Uiso   1.00
C181   C     0.40302   0.45083   0.15653   0.00000  Uiso   1.00
C182   C     0.09718   0.53747   0.20370   0.00000  Uiso   1.00
C183   C     0.44942   0.44834   0.16167   0.00000  Uiso   1.00
C184   C     0.05211   0.53444   0.21389   0.00000  Uiso   1.00
C185   C     0.47756   0.49240   0.18724   0.00000  Uiso   1.00
C186   C     0.02422   0.49066   0.18640   0.00000  Uiso   1.00
C187   C     0.45907   0.53843   0.21252   0.00000  Uiso   1.00
C188   C     0.25153   0.59947   0.18145   0.00000  Uiso   1.00
C189   C     0.04246   0.44639   0.15523   0.00000  Uiso   1.00
C190   C     0.46807   0.40234   0.14117   0.00000  Uiso   1.00
C191   C     0.03423   0.57624   0.24861   0.00000  Uiso   1.00
C192   C     0.36596   0.39613   0.07671   0.00000  Uiso   1.00
C193   C     0.33086   0.35182   0.05821   0.00000  Uiso   1.00
C194   C     0.10446   0.61460   0.17780   0.00000  Uiso   1.00
C195   C     0.14030   0.62771   0.14101   0.00000  Uiso   1.00
C196   C     0.20499   0.65894   0.04441   0.00000  Uiso   1.00
C197   C     0.18016   0.61021   0.00671   0.00000  Uiso   1.00
C198   C     0.31969   0.35166   0.24376   0.00000  Uiso   1.00
C199   C     0.01348   0.40097   0.13575   0.00000  Uiso   1.00
C200   C     0.34055   0.40472   0.27147   0.00000  Uiso   1.00
C201   C     0.17267   0.43917   0.32516   0.00000  Uiso   1.00
C202   C     0.14394   0.40021   0.27699   0.00000  Uiso   1.00
C203   C     0.33288   0.54871   0.00534   0.00000  Uiso   1.00
C204   C     0.36988   0.56898   0.05626   0.00000  Uiso   1.00
C205   C     0.48838   0.57899   0.24803   0.00000  Uiso   1.00
C206   C     0.24452   0.34382   0.14141   0.00000  Uiso   1.00
C207   C     0.25423   0.65494   0.18853   0.00000  Uiso   1.00
C208   C     0.16438   0.49848   0.16695   0.00000  Uiso   1.00
C209   C     0.33553   0.49978   0.16719   0.00000  Uiso   1.00
C210   C     0.41252   0.54160   0.20029   0.00000  Uiso   1.00
Cl211  Cl    0.38886   0.60043   0.21179   0.00000  Uiso   1.00
Cl212  Cl    0.11163   0.40221   0.09650   0.00000  Uiso   1.00
Cl213  Cl    0.02961   0.33968   0.10634   0.00000  Uiso   1.00
Cl214  Cl    0.47145   0.63242   0.29743   0.00000  Uiso   1.00
Cu215  Cu    0.25500   0.50579   0.22813   0.00000  Uiso   1.00
Cu216  Cu    0.24499   0.49421   0.10521   0.00000  Uiso   1.00
H217   H     0.44707   0.36702   0.12660   0.00000  Uiso   1.00
H218   H     0.16123   0.59526   0.13012   0.00000  Uiso   1.00
H219   H     0.12428   0.63523   0.09842   0.00000  Uiso   1.00
H220   H     0.16114   0.66200   0.16630   0.00000  Uiso   1.00
H221   H     0.21936   0.34737   0.01346   0.00000  Uiso   1.00
H222   H     0.18070   0.34861   0.06885   0.00000  Uiso   1.00
H223   H     0.14567   0.61827   0.32554   0.00000  Uiso   1.00
H224   H     0.19724   0.59619   0.29990   0.00000  Uiso   1.00
H225   H     0.17842   0.57962   0.03255   0.00000  Uiso   1.00
H226   H     0.33192   0.34068   0.19866   0.00000  Uiso   1.00
H227   H     0.33184   0.65780   0.27016   0.00000  Uiso   1.00
H228   H     0.05606   0.60802   0.27509   0.00000  Uiso   1.00
H229   H     0.37535   0.40322   0.29119   0.00000  Uiso   1.00
H230   H     0.34191   0.42647   0.23607   0.00000  Uiso   1.00
H231   H     0.31978   0.42438   0.30509   0.00000  Uiso   1.00
H232   H     0.15583   0.47551   0.33275   0.00000  Uiso   1.00
H233   H     0.17613   0.42363   0.03273   0.00000  Uiso   1.00
H234   H     0.15870   0.36283   0.27148   0.00000  Uiso   1.00
H235   H     0.10974   0.39586   0.29025   0.00000  Uiso   1.00
H236   H     0.14202   0.41264   0.23357   0.00000  Uiso   1.00
H237   H     0.33340   0.57331   0.30529   0.00000  Uiso   1.00
H238   H     0.34111   0.50945   0.31922   0.00000  Uiso   1.00
H239   H     0.39634   0.38585   0.05437   0.00000  Uiso   1.00
H240   H     0.35704   0.59532   0.09357   0.00000  Uiso   1.00
H241   H     0.38395   0.53690   0.07345   0.00000  Uiso   1.00
H242   H     0.39747   0.58928   0.03953   0.00000  Uiso   1.00
H243   H     0.35336   0.42967   0.06127   0.00000  Uiso   1.00
H244   H     0.30038   0.36323   0.03501   0.00000  Uiso   1.00
H245   H     0.32224   0.33694   0.09748   0.00000  Uiso   1.00
H246   H     0.34452   0.65399   0.02808   0.00000  Uiso   1.00
H247   H     0.09338   0.65016   0.20446   0.00000  Uiso   1.00
H248   H     0.07510   0.59620   0.14536   0.00000  Uiso   1.00
N249   N     0.23744   0.48547   0.01284   0.00000  Uiso   1.00
N250   N     0.26255   0.51453   0.32049   0.00000  Uiso   1.00
O251   O     0.25325   0.42871   0.20659   0.00000  Uiso   1.00
O252   O     0.12155   0.58427   0.21740   0.00000  Uiso   1.00
O253   O     0.23975   0.64644   0.08324   0.00000  Uiso   1.00
O254   O     0.27277   0.35059   0.24328   0.00000  Uiso   1.00
O255   O     0.21480   0.44624   0.30638   0.00000  Uiso   1.00
O256   O     0.29082   0.54886   0.02702   0.00000  Uiso   1.00
O257   O     0.24674   0.57129   0.12674   0.00000  Uiso   1.00
O258   O     0.24480   0.41892   0.10279   0.00000  Uiso   1.00
O259   O     0.25520   0.58108   0.23055   0.00000  Uiso   1.00
O260   O     0.18935   0.50488   0.21857   0.00000  Uiso   1.00
O261   O     0.31064   0.49512   0.11476   0.00000  Uiso   1.00
O262   O     0.18090   0.49510   0.11477   0.00000  Uiso   1.00
O263   O     0.31910   0.50490   0.21857   0.00000  Uiso   1.00
O264   O     0.37542   0.40664   0.13949   0.00000  Uiso   1.00
C265   C     0.74763   0.40018   0.15118   0.00000  Uiso   1.00
C266   C     0.58824   0.45024   0.14514   0.00000  Uiso   1.00
C267   C     0.88458   0.49796   0.17140   0.00000  Uiso   1.00
C268   C     0.61549   0.49556   0.16994   0.00000  Uiso   1.00
C269   C     0.90302   0.45083   0.15653   0.00000  Uiso   1.00
C270   C     0.59718   0.53747   0.20370   0.00000  Uiso   1.00
C271   C     0.94942   0.44834   0.16167   0.00000  Uiso   1.00
C272   C     0.55211   0.53444   0.21389   0.00000  Uiso   1.00
C273   C     0.97756   0.49240   0.18724   0.00000  Uiso   1.00
C274   C     0.52422   0.49066   0.18640   0.00000  Uiso   1.00
C275   C     0.95907   0.53843   0.21252   0.00000  Uiso   1.00
C276   C     0.75153   0.59947   0.18145   0.00000  Uiso   1.00
C277   C     0.54246   0.44639   0.15523   0.00000  Uiso   1.00
C278   C     0.96807   0.40234   0.14117   0.00000  Uiso   1.00
C279   C     0.53423   0.57624   0.24861   0.00000  Uiso   1.00
C280   C     0.86596   0.39613   0.07671   0.00000  Uiso   1.00
C281   C     0.83086   0.35182   0.05821   0.00000  Uiso   1.00
C282   C     0.60446   0.61460   0.17780   0.00000  Uiso   1.00
C283   C     0.64030   0.62771   0.14101   0.00000  Uiso   1.00
C284   C     0.70499   0.65894   0.04441   0.00000  Uiso   1.00
C285   C     0.68016   0.61021   0.00671   0.00000  Uiso   1.00
C286   C     0.81969   0.35166   0.24376   0.00000  Uiso   1.00
C287   C     0.51348   0.40097   0.13575   0.00000  Uiso   1.00
C288   C     0.84055   0.40472   0.27147   0.00000  Uiso   1.00
C289   C     0.67267   0.43917   0.32516   0.00000  Uiso   1.00
C290   C     0.64394   0.40021   0.27699   0.00000  Uiso   1.00
C291   C     0.83288   0.54871   0.00534   0.00000  Uiso   1.00
C292   C     0.86988   0.56898   0.05626   0.00000  Uiso   1.00
C293   C     0.98838   0.57899   0.24803   0.00000  Uiso   1.00
C294   C     0.74452   0.34382   0.14141   0.00000  Uiso   1.00
C295   C     0.75423   0.65494   0.18853   0.00000  Uiso   1.00
C296   C     0.66438   0.49848   0.16695   0.00000  Uiso   1.00
C297   C     0.83553   0.49978   0.16719   0.00000  Uiso   1.00
C298   C     0.91252   0.54160   0.20029   0.00000  Uiso   1.00
Cl299  Cl    0.88886   0.60043   0.21179   0.00000  Uiso   1.00
Cl300  Cl    0.61163   0.40221   0.09650   0.00000  Uiso   1.00
Cl301  Cl    0.52961   0.33968   0.10634   0.00000  Uiso   1.00
Cl302  Cl    0.97145   0.63242   0.29743   0.00000  Uiso   1.00
Cu303  Cu    0.75500   0.50579   0.22813   0.00000  Uiso   1.00
Cu304  Cu    0.74499   0.49421   0.10521   0.00000  Uiso   1.00
H305   H     0.94707   0.36702   0.12660   0.00000  Uiso   1.00
H306   H     0.66123   0.59526   0.13012   0.00000  Uiso   1.00
H307   H     0.62428   0.63523   0.09842   0.00000  Uiso   1.00
H308   H     0.66114   0.66200   0.16630   0.00000  Uiso   1.00
H309   H     0.71936   0.34737   0.01346   0.00000  Uiso   1.00
H310   H     0.68070   0.34861   0.06885   0.00000  Uiso   1.00
H311   H     0.64567   0.61827   0.32554   0.00000  Uiso   1.00
H312   H     0.69724   0.59619   0.29990   0.00000  Uiso   1.00
H313   H     0.67842   0.57962   0.03255   0.00000  Uiso   1.00
H314   H     0.83192   0.34068   0.19866   0.00000  Uiso   1.00
H315   H     0.83184   0.65780   0.27016   0.00000  Uiso   1.00
H316   H     0.55606   0.60802   0.27509   0.00000  Uiso   1.00
H317   H     0.87535   0.40322   0.29119   0.00000  Uiso   1.00
H318   H     0.84191   0.42647   0.23607   0.00000  Uiso   1.00
H319   H     0.81978   0.42438   0.30509   0.00000  Uiso   1.00
H320   H     0.65583   0.47551   0.33275   0.00000  Uiso   1.00
H321   H     0.67613   0.42363   0.03273   0.00000  Uiso   1.00
H322   H     0.65870   0.36283   0.27148   0.00000  Uiso   1.00
H323   H     0.60974   0.39586   0.29025   0.00000  Uiso   1.00
H324   H     0.64202   0.41264   0.23357   0.00000  Uiso   1.00
H325   H     0.83340   0.57331   0.30529   0.00000  Uiso   1.00
H326   H     0.84111   0.50945   0.31922   0.00000  Uiso   1.00
H327   H     0.89634   0.38585   0.05437   0.00000  Uiso   1.00
H328   H     0.85704   0.59532   0.09357   0.00000  Uiso   1.00
H329   H     0.88395   0.53690   0.07345   0.00000  Uiso   1.00
H330   H     0.89747   0.58928   0.03953   0.00000  Uiso   1.00
H331   H     0.85336   0.42967   0.06127   0.00000  Uiso   1.00
H332   H     0.80038   0.36323   0.03501   0.00000  Uiso   1.00
H333   H     0.82224   0.33694   0.09748   0.00000  Uiso   1.00
H334   H     0.84452   0.65399   0.02808   0.00000  Uiso   1.00
H335   H     0.59338   0.65016   0.20446   0.00000  Uiso   1.00
H336   H     0.57510   0.59620   0.14536   0.00000  Uiso   1.00
N337   N     0.73744   0.48547   0.01284   0.00000  Uiso   1.00
N338   N     0.76255   0.51453   0.32049   0.00000  Uiso   1.00
O339   O     0.75325   0.42871   0.20659   0.00000  Uiso   1.00
O340   O     0.62155   0.58427   0.21740   0.00000  Uiso   1.00
O341   O     0.73975   0.64644   0.08324   0.00000  Uiso   1.00
O342   O     0.77277   0.35059   0.24328   0.00000  Uiso   1.00
O343   O     0.71480   0.44624   0.30638   0.00000  Uiso   1.00
O344   O     0.79082   0.54886   0.02702   0.00000  Uiso   1.00
O345   O     0.74674   0.57129   0.12674   0.00000  Uiso   1.00
O346   O     0.74480   0.41892   0.10279   0.00000  Uiso   1.00
O347   O     0.75520   0.58108   0.23055   0.00000  Uiso   1.00
O348   O     0.68935   0.50488   0.21857   0.00000  Uiso   1.00
O349   O     0.81064   0.49512   0.11476   0.00000  Uiso   1.00
O350   O     0.68090   0.49510   0.11477   0.00000  Uiso   1.00
O351   O     0.81910   0.50490   0.21857   0.00000  Uiso   1.00
O352   O     0.87542   0.40664   0.13949   0.00000  Uiso   1.00
C353   C     0.24763   0.73351   0.15118   0.00000  Uiso   1.00
C354   C     0.08824   0.78358   0.14514   0.00000  Uiso   1.00
C355   C     0.38458   0.83130   0.17140   0.00000  Uiso   1.00
C356   C     0.11549   0.82889   0.16994   0.00000  Uiso   1.00
C357   C     0.40302   0.78416   0.15653   0.00000  Uiso   1.00
C358   C     0.09718   0.87080   0.20370   0.00000  Uiso   1.00
C359   C     0.44942   0.78167   0.16167   0.00000  Uiso   1.00
C360   C     0.05211   0.86778   0.21389   0.00000  Uiso   1.00
C361   C     0.47756   0.82573   0.18724   0.00000  Uiso   1.00
C362   C     0.02422   0.82399   0.18640   0.00000  Uiso   1.00
C363   C     0.45907   0.87176   0.21252   0.00000  Uiso   1.00
C364   C     0.25153   0.93281   0.18145   0.00000  Uiso   1.00
C365   C     0.04246   0.77973   0.15523   0.00000  Uiso   1.00
C366   C     0.46807   0.73567   0.14117   0.00000  Uiso   1.00
C367   C     0.03423   0.90957   0.24861   0.00000  Uiso   1.00
C368   C     0.36596   0.72947   0.07671   0.00000  Uiso   1.00
C369   C     0.33086   0.68515   0.05821   0.00000  Uiso   1.00
C370   C     0.10446   0.94793   0.17780   0.00000  Uiso   1.00
C371   C     0.14030   0.96104   0.14101   0.00000  Uiso   1.00
C372   C     0.20499   0.99227   0.04441   0.00000  Uiso   1.00
C373   C     0.18016   0.94355   0.00671   0.00000  Uiso   1.00
C374   C     0.31969   0.68499   0.24376   0.00000  Uiso   1.00
C375   C     0.01348   0.73430   0.13575   0.00000  Uiso   1.00
C376   C     0.34055   0.73806   0.27147   0.00000  Uiso   1.00
C377   C     0.17267   0.77250   0.32516   0.00000  Uiso   1.00
C378   C     0.14394   0.73354   0.27699   0.00000  Uiso   1.00
C379   C     0.33288   0.88204   0.00534   0.00000  Uiso   1.00
C380   C     0.36988   0.90231   0.05626   0.00000  Uiso   1.00
C381   C     0.48838   0.91232   0.24803   0.00000  Uiso   1.00
C382   C     0.24452   0.67715   0.14141   0.00000  Uiso   1.00
C383   C     0.25423   0.98828   0.18853   0.00000  Uiso   1.00
C384   C     0.16438   0.83182   0.16695   0.00000  Uiso   1.00
C385   C     0.33553   0.83312   0.16719   0.00000  Uiso   1.00
C386   C     0.41252   0.87494   0.20029   0.00000  Uiso   1.00
Cl387  Cl    0.38886   0.93376   0.21179   0.00000  Uiso   1.00
Cl388  Cl    0.11163   0.73555   0.09650   0.00000  Uiso   1.00
Cl389  Cl    0.02961   0.67301   0.10634   0.00000  Uiso   1.00
Cl390  Cl    0.47145   0.96575   0.29743   0.00000  Uiso   1.00
Cu391  Cu    0.25500   0.83913   0.22813   0.00000  Uiso   1.00
Cu392  Cu    0.24499   0.82754   0.10521   0.00000  Uiso   1.00
H393   H     0.44707   0.70035   0.12660   0.00000  Uiso   1.00
H394   H     0.16123   0.92859   0.13012   0.00000  Uiso   1.00
H395   H     0.12428   0.96857   0.09842   0.00000  Uiso   1.00
H396   H     0.16114   0.99533   0.16630   0.00000  Uiso   1.00
H397   H     0.21936   0.68070   0.01346   0.00000  Uiso   1.00
H398   H     0.18070   0.68194   0.06885   0.00000  Uiso   1.00
H399   H     0.14567   0.95160   0.32554   0.00000  Uiso   1.00
H400   H     0.19724   0.92953   0.29990   0.00000  Uiso   1.00
H401   H     0.17842   0.91295   0.03255   0.00000  Uiso   1.00
H402   H     0.33192   0.67401   0.19866   0.00000  Uiso   1.00
H403   H     0.33184   0.99113   0.27016   0.00000  Uiso   1.00
H404   H     0.05606   0.94135   0.27509   0.00000  Uiso   1.00
H405   H     0.37535   0.73656   0.29119   0.00000  Uiso   1.00
H406   H     0.34191   0.75981   0.23607   0.00000  Uiso   1.00
H407   H     0.31978   0.75771   0.30509   0.00000  Uiso   1.00
H408   H     0.15583   0.80884   0.33275   0.00000  Uiso   1.00
H409   H     0.17613   0.75697   0.03273   0.00000  Uiso   1.00
H410   H     0.15870   0.69616   0.27148   0.00000  Uiso   1.00
H411   H     0.10974   0.72920   0.29025   0.00000  Uiso   1.00
H412   H     0.14202   0.74597   0.23357   0.00000  Uiso   1.00
H413   H     0.33340   0.90664   0.30529   0.00000  Uiso   1.00
H414   H     0.34111   0.84278   0.31922   0.00000  Uiso   1.00
H415   H     0.39634   0.71918   0.05437   0.00000  Uiso   1.00
H416   H     0.35704   0.92866   0.09357   0.00000  Uiso   1.00
H417   H     0.38395   0.87024   0.07345   0.00000  Uiso   1.00
H418   H     0.39747   0.92261   0.03953   0.00000  Uiso   1.00
H419   H     0.35336   0.76300   0.06127   0.00000  Uiso   1.00
H420   H     0.30038   0.69656   0.03501   0.00000  Uiso   1.00
H421   H     0.32224   0.67027   0.09748   0.00000  Uiso   1.00
H422   H     0.34452   0.98732   0.02808   0.00000  Uiso   1.00
H423   H     0.09338   0.98350   0.20446   0.00000  Uiso   1.00
H424   H     0.07510   0.92953   0.14536   0.00000  Uiso   1.00
N425   N     0.23744   0.81881   0.01284   0.00000  Uiso   1.00
N426   N     0.26255   0.84786   0.32049   0.00000  Uiso   1.00
O427   O     0.25325   0.76204   0.20659   0.00000  Uiso   1.00
O428   O     0.12155   0.91760   0.21740   0.00000  Uiso   1.00
O429   O     0.23975   0.97978   0.08324   0.00000  Uiso   1.00
O430   O     0.27277   0.68393   0.24328   0.00000  Uiso   1.00
O431   O     0.21480   0.77957   0.30638   0.00000  Uiso   1.00
O432   O     0.29082   0.88219   0.02702   0.00000  Uiso   1.00
O433   O     0.24674   0.90462   0.12674   0.00000  Uiso   1.00
O434   O     0.24480   0.75226   0.10279   0.00000  Uiso   1.00
O435   O     0.25520   0.91441   0.23055   0.00000  Uiso   1.00
O436   O     0.18935   0.83821   0.21857   0.00000  Uiso   1.00
O437   O     0.31064   0.82845   0.11476   0.00000  Uiso   1.00
O438   O     0.18090   0.82843   0.11477   0.00000  Uiso   1.00
O439   O     0.31910   0.83824   0.21857   0.00000  Uiso   1.00
O440   O     0.37542   0.73998   0.13949   0.00000  Uiso   1.00
C441   C     0.74763   0.73351   0.15118   0.00000  Uiso   1.00
C442   C     0.58824   0.78358   0.14514   0.00000  Uiso   1.00
C443   C     0.88458   0.83130   0.17140   0.00000  Uiso   1.00
C444   C     0.61549   0.82889   0.16994   0.00000  Uiso   1.00
C445   C     0.90302   0.78416   0.15653   0.00000  Uiso   1.00
C446   C     0.59718   0.87080   0.20370   0.00000  Uiso   1.00
C447   C     0.94942   0.78167   0.16167   0.00000  Uiso   1.00
C448   C     0.55211   0.86778   0.21389   0.00000  Uiso   1.00
C449   C     0.97756   0.82573   0.18724   0.00000  Uiso   1.00
C450   C     0.52422   0.82399   0.18640   0.00000  Uiso   1.00
C451   C     0.95907   0.87176   0.21252   0.00000  Uiso   1.00
C452   C     0.75153   0.93281   0.18145   0.00000  Uiso   1.00
C453   C     0.54246   0.77973   0.15523   0.00000  Uiso   1.00
C454   C     0.96807   0.73567   0.14117   0.00000  Uiso   1.00
C455   C     0.53423   0.90957   0.24861   0.00000  Uiso   1.00
C456   C     0.86596   0.72947   0.07671   0.00000  Uiso   1.00
C457   C     0.83086   0.68515   0.05821   0.00000  Uiso   1.00
C458   C     0.60446   0.94793   0.17780   0.00000  Uiso   1.00
C459   C     0.64030   0.96104   0.14101   0.00000  Uiso   1.00
C460   C     0.70499   0.99227   0.04441   0.00000  Uiso   1.00
C461   C     0.68016   0.94355   0.00671   0.00000  Uiso   1.00
C462   C     0.81969   0.68499   0.24376   0.00000  Uiso   1.00
C463   C     0.51348   0.73430   0.13575   0.00000  Uiso   1.00
C464   C     0.84055   0.73806   0.27147   0.00000  Uiso   1.00
C465   C     0.67267   0.77250   0.32516   0.00000  Uiso   1.00
C466   C     0.64394   0.73354   0.27699   0.00000  Uiso   1.00
C467   C     0.83288   0.88204   0.00534   0.00000  Uiso   1.00
C468   C     0.86988   0.90231   0.05626   0.00000  Uiso   1.00
C469   C     0.98838   0.91232   0.24803   0.00000  Uiso   1.00
C470   C     0.74452   0.67715   0.14141   0.00000  Uiso   1.00
C471   C     0.75423   0.98828   0.18853   0.00000  Uiso   1.00
C472   C     0.66438   0.83182   0.16695   0.00000  Uiso   1.00
C473   C     0.83553   0.83312   0.16719   0.00000  Uiso   1.00
C474   C     0.91252   0.87494   0.20029   0.00000  Uiso   1.00
Cl475  Cl    0.88886   0.93376   0.21179   0.00000  Uiso   1.00
Cl476  Cl    0.61163   0.73555   0.09650   0.00000  Uiso   1.00
Cl477  Cl    0.52961   0.67301   0.10634   0.00000  Uiso   1.00
Cl478  Cl    0.97145   0.96575   0.29743   0.00000  Uiso   1.00
Cu479  Cu    0.75500   0.83913   0.22813   0.00000  Uiso   1.00
Cu480  Cu    0.74499   0.82754   0.10521   0.00000  Uiso   1.00
H481   H     0.94707   0.70035   0.12660   0.00000  Uiso   1.00
H482   H     0.66123   0.92859   0.13012   0.00000  Uiso   1.00
H483   H     0.62428   0.96857   0.09842   0.00000  Uiso   1.00
H484   H     0.66114   0.99533   0.16630   0.00000  Uiso   1.00
H485   H     0.71936   0.68070   0.01346   0.00000  Uiso   1.00
H486   H     0.68070   0.68194   0.06885   0.00000  Uiso   1.00
H487   H     0.64567   0.95160   0.32554   0.00000  Uiso   1.00
H488   H     0.69724   0.92953   0.29990   0.00000  Uiso   1.00
H489   H     0.67842   0.91295   0.03255   0.00000  Uiso   1.00
H490   H     0.83192   0.67401   0.19866   0.00000  Uiso   1.00
H491   H     0.83184   0.99113   0.27016   0.00000  Uiso   1.00
H492   H     0.55606   0.94135   0.27509   0.00000  Uiso   1.00
H493   H     0.87535   0.73656   0.29119   0.00000  Uiso   1.00
H494   H     0.84191   0.75981   0.23607   0.00000  Uiso   1.00
H495   H     0.81978   0.75771   0.30509   0.00000  Uiso   1.00
H496   H     0.65583   0.80884   0.33275   0.00000  Uiso   1.00
H497   H     0.67613   0.75697   0.03273   0.00000  Uiso   1.00
H498   H     0.65870   0.69616   0.27148   0.00000  Uiso   1.00
H499   H     0.60974   0.72920   0.29025   0.00000  Uiso   1.00
H500   H     0.64202   0.74597   0.23357   0.00000  Uiso   1.00
H501   H     0.83340   0.90664   0.30529   0.00000  Uiso   1.00
H502   H     0.84111   0.84278   0.31922   0.00000  Uiso   1.00
H503   H     0.89634   0.71918   0.05437   0.00000  Uiso   1.00
H504   H     0.85704   0.92866   0.09357   0.00000  Uiso   1.00
H505   H     0.88395   0.87024   0.07345   0.00000  Uiso   1.00
H506   H     0.89747   0.92261   0.03953   0.00000  Uiso   1.00
H507   H     0.85336   0.76300   0.06127   0.00000  Uiso   1.00
H508   H     0.80038   0.69656   0.03501   0.00000  Uiso   1.00
H509   H     0.82224   0.67027   0.09748   0.00000  Uiso   1.00
H510   H     0.84452   0.98732   0.02808   0.00000  Uiso   1.00
H511   H     0.59338   0.98350   0.20446   0.00000  Uiso   1.00
H512   H     0.57510   0.92953   0.14536   0.00000  Uiso   1.00
N513   N     0.73744   0.81881   0.01284   0.00000  Uiso   1.00
N514   N     0.76255   0.84786   0.32049   0.00000  Uiso   1.00
O515   O     0.75325   0.76204   0.20659   0.00000  Uiso   1.00
O516   O     0.62155   0.91760   0.21740   0.00000  Uiso   1.00
O517   O     0.73975   0.97978   0.08324   0.00000  Uiso   1.00
O518   O     0.77277   0.68393   0.24328   0.00000  Uiso   1.00
O519   O     0.71480   0.77957   0.30638   0.00000  Uiso   1.00
O520   O     0.79082   0.88219   0.02702   0.00000  Uiso   1.00
O521   O     0.74674   0.90462   0.12674   0.00000  Uiso   1.00
O522   O     0.74480   0.75226   0.10279   0.00000  Uiso   1.00
O523   O     0.75520   0.91441   0.23055   0.00000  Uiso   1.00
O524   O     0.68935   0.83821   0.21857   0.00000  Uiso   1.00
O525   O     0.81064   0.82845   0.11476   0.00000  Uiso   1.00
O526   O     0.68090   0.82843   0.11477   0.00000  Uiso   1.00
O527   O     0.81910   0.83824   0.21857   0.00000  Uiso   1.00
O528   O     0.87542   0.73998   0.13949   0.00000  Uiso   1.00
C529   C     0.24763   0.06684   0.48451   0.00000  Uiso   1.00
C530   C     0.08824   0.11691   0.47848   0.00000  Uiso   1.00
C531   C     0.38458   0.16463   0.50473   0.00000  Uiso   1.00
C532   C     0.11549   0.16222   0.50327   0.00000  Uiso   1.00
C533   C     0.40302   0.11750   0.48986   0.00000  Uiso   1.00
C534   C     0.09718   0.20414   0.53703   0.00000  Uiso   1.00
C535   C     0.44942   0.11500   0.49501   0.00000  Uiso   1.00
C536   C     0.05211   0.20111   0.54722   0.00000  Uiso   1.00
C537   C     0.47756   0.15906   0.52057   0.00000  Uiso   1.00
C538   C     0.02422   0.15732   0.51973   0.00000  Uiso   1.00
C539   C     0.45907   0.20509   0.54585   0.00000  Uiso   1.00
C540   C     0.25153   0.26614   0.51478   0.00000  Uiso   1.00
C541   C     0.04246   0.11306   0.48856   0.00000  Uiso   1.00
C542   C     0.46807   0.06901   0.47450   0.00000  Uiso   1.00
C543   C     0.03423   0.24290   0.58195   0.00000  Uiso   1.00
C544   C     0.36596   0.06280   0.41005   0.00000  Uiso   1.00
C545   C     0.33086   0.01848   0.39154   0.00000  Uiso   1.00
C546   C     0.10446   0.28126   0.51114   0.00000  Uiso   1.00
C547   C     0.14030   0.29438   0.47435   0.00000  Uiso   1.00
C548   C     0.20499   0.32561   0.37775   0.00000  Uiso   1.00
C549   C     0.18016   0.27688   0.34004   0.00000  Uiso   1.00
C550   C     0.31969   0.01832   0.57709   0.00000  Uiso   1.00
C551   C     0.01348   0.06764   0.46909   0.00000  Uiso   1.00
C552   C     0.34055   0.07139   0.60481   0.00000  Uiso   1.00
C553   C     0.17267   0.10584   0.65850   0.00000  Uiso   1.00
C554   C     0.14394   0.06688   0.61033   0.00000  Uiso   1.00
C555   C     0.33288   0.21538   0.33868   0.00000  Uiso   1.00
C556   C     0.36988   0.23564   0.38960   0.00000  Uiso   1.00
C557   C     0.48838   0.24565   0.58137   0.00000  Uiso   1.00
C558   C     0.24452   0.01049   0.47474   0.00000  Uiso   1.00
C559   C     0.25423   0.32161   0.52186   0.00000  Uiso   1.00
C560   C     0.16438   0.16515   0.50028   0.00000  Uiso   1.00
C561   C     0.33553   0.16645   0.50052   0.00000  Uiso   1.00
C562   C     0.41252   0.20827   0.53362   0.00000  Uiso   1.00
Cl563  Cl    0.38886   0.26709   0.54512   0.00000  Uiso   1.00
Cl564  Cl    0.11163   0.06888   0.42983   0.00000  Uiso   1.00
Cl565  Cl    0.02961   0.00634   0.43967   0.00000  Uiso   1.00
Cl566  Cl    0.47145   0.29908   0.63076   0.00000  Uiso   1.00
Cu567  Cu    0.25500   0.17246   0.56146   0.00000  Uiso   1.00
Cu568  Cu    0.24499   0.16087   0.43854   0.00000  Uiso   1.00
H569   H     0.44707   0.03368   0.45994   0.00000  Uiso   1.00
H570   H     0.16123   0.26192   0.46346   0.00000  Uiso   1.00
H571   H     0.12428   0.30190   0.43175   0.00000  Uiso   1.00
H572   H     0.16114   0.32866   0.49964   0.00000  Uiso   1.00
H573   H     0.21936   0.01403   0.34679   0.00000  Uiso   1.00
H574   H     0.18070   0.01527   0.40218   0.00000  Uiso   1.00
H575   H     0.14567   0.28494   0.65887   0.00000  Uiso   1.00
H576   H     0.19724   0.26286   0.63324   0.00000  Uiso   1.00
H577   H     0.17842   0.24628   0.36589   0.00000  Uiso   1.00
H578   H     0.33192   0.00734   0.53200   0.00000  Uiso   1.00
H579   H     0.33184   0.32447   0.60349   0.00000  Uiso   1.00
H580   H     0.05606   0.27469   0.60842   0.00000  Uiso   1.00
H581   H     0.37535   0.06989   0.62453   0.00000  Uiso   1.00
H582   H     0.34191   0.09314   0.56941   0.00000  Uiso   1.00
H583   H     0.31978   0.09105   0.63843   0.00000  Uiso   1.00
H584   H     0.15583   0.14218   0.66608   0.00000  Uiso   1.00
H585   H     0.17613   0.09030   0.36606   0.00000  Uiso   1.00
H586   H     0.15870   0.02950   0.60481   0.00000  Uiso   1.00
H587   H     0.10974   0.06253   0.62358   0.00000  Uiso   1.00
H588   H     0.14202   0.07931   0.56691   0.00000  Uiso   1.00
H589   H     0.33340   0.23997   0.63862   0.00000  Uiso   1.00
H590   H     0.34111   0.17611   0.65255   0.00000  Uiso   1.00
H591   H     0.39634   0.05251   0.38770   0.00000  Uiso   1.00
H592   H     0.35704   0.26199   0.42690   0.00000  Uiso   1.00
H593   H     0.38395   0.20357   0.40678   0.00000  Uiso   1.00
H594   H     0.39747   0.25595   0.37286   0.00000  Uiso   1.00
H595   H     0.35336   0.09634   0.39460   0.00000  Uiso   1.00
H596   H     0.30038   0.02990   0.36834   0.00000  Uiso   1.00
H597   H     0.32224   0.00360   0.43082   0.00000  Uiso   1.00
H598   H     0.34452   0.32066   0.36142   0.00000  Uiso   1.00
H599   H     0.09338   0.31683   0.53780   0.00000  Uiso   1.00
H600   H     0.07510   0.26286   0.47869   0.00000  Uiso   1.00
N601   N     0.23744   0.15214   0.34617   0.00000  Uiso   1.00
N602   N     0.26255   0.18119   0.65383   0.00000  Uiso   1.00
O603   O     0.25325   0.09538   0.53992   0.00000  Uiso   1.00
O604   O     0.12155   0.25094   0.55074   0.00000  Uiso   1.00
O605   O     0.23975   0.31311   0.41657   0.00000  Uiso   1.00
O606   O     0.27277   0.01726   0.57662   0.00000  Uiso   1.00
O607   O     0.21480   0.11291   0.63971   0.00000  Uiso   1.00
O608   O     0.29082   0.21552   0.36035   0.00000  Uiso   1.00
O609   O     0.24674   0.23796   0.46008   0.00000  Uiso   1.00
O610   O     0.24480   0.08559   0.43612   0.00000  Uiso   1.00
O611   O     0.25520   0.24774   0.56388   0.00000  Uiso   1.00
O612   O     0.18935   0.17155   0.55191   0.00000  Uiso   1.00
O613   O     0.31064   0.16179   0.44809   0.00000  Uiso   1.00
O614   O     0.18090   0.16176   0.44810   0.00000  Uiso   1.00
O615   O     0.31910   0.17157   0.55190   0.00000  Uiso   1.00
O616   O     0.37542   0.07331   0.47282   0.00000  Uiso   1.00
C617   C     0.74763   0.06684   0.48451   0.00000  Uiso   1.00
C618   C     0.58824   0.11691   0.47848   0.00000  Uiso   1.00
C619   C     0.88458   0.16463   0.50473   0.00000  Uiso   1.00
C620   C     0.61549   0.16222   0.50327   0.00000  Uiso   1.00
C621   C     0.90302   0.11750   0.48986   0.00000  Uiso   1.00
C622   C     0.59718   0.20414   0.53703   0.00000  Uiso   1.00
C623   C     0.94942   0.11500   0.49501   0.00000  Uiso   1.00
C624   C     0.55211   0.20111   0.54722   0.00000  Uiso   1.00
C625   C     0.97756   0.15906   0.52057   0.00000  Uiso   1.00
C626   C     0.52422   0.15732   0.51973   0.00000  Uiso   1.00
C627   C     0.95907   0.20509   0.54585   0.00000  Uiso   1.00
C628   C     0.75153   0.26614   0.51478   0.00000  Uiso   1.00
C629   C     0.54246   0.11306   0.48856   0.00000  Uiso   1.00
C630   C     0.96807   0.06901   0.47450   0.00000  Uiso   1.00
C631   C     0.53423   0.24290   0.58195   0.00000  Uiso   1.00
C632   C     0.86596   0.06280   0.41005   0.00000  Uiso   1.00
C633   C     0.83086   0.01848   0.39154   0.00000  Uiso   1.00
C634   C     0.60446   0.28126   0.51114   0.00000  Uiso   1.00
C635   C     0.64030   0.29438   0.47435   0.00000  Uiso   1.00
C636   C     0.70499   0.32561   0.37775   0.00000  Uiso   1.00
C637   C     0.68016   0.27688   0.34004   0.00000  Uiso   1.00
C638   C     0.81969   0.01832   0.57709   0.00000  Uiso   1.00
C639   C     0.51348   0.06764   0.46909   0.00000  Uiso   1.00
C640   C     0.84055   0.07139   0.60481   0.00000  Uiso   1.00
C641   C     0.67267   0.10584   0.65850   0.00000  Uiso   1.00
C642   C     0.64394   0.06688   0.61033   0.00000  Uiso   1.00
C643   C     0.83288   0.21538   0.33868   0.00000  Uiso   1.00
C644   C     0.86988   0.23564   0.38960   0.00000  Uiso   1.00
C645   C     0.98838   0.24565   0.58137   0.00000  Uiso   1.00
C646   C     0.74452   0.01049   0.47474   0.00000  Uiso   1.00
C647   C     0.75423   0.32161   0.52186   0.00000  Uiso   1.00
C648   C     0.66438   0.16515   0.50028   0.00000  Uiso   1.00
C649   C     0.83553   0.16645   0.50052   0.00000  Uiso   1.00
C650   C     0.91252   0.20827   0.53362   0.00000  Uiso   1.00
Cl651  Cl    0.88886   0.26709   0.54512   0.00000  Uiso   1.00
Cl652  Cl    0.61163   0.06888   0.42983   0.00000  Uiso   1.00
Cl653  Cl    0.52961   0.00634   0.43967   0.00000  Uiso   1.00
Cl654  Cl    0.97145   0.29908   0.63076   0.00000  Uiso   1.00
Cu655  Cu    0.75500   0.17246   0.56146   0.00000  Uiso   1.00
Cu656  Cu    0.74499   0.16087   0.43854   0.00000  Uiso   1.00
H657   H     0.94707   0.03368   0.45994   0.00000  Uiso   1.00
H658   H     0.66123   0.26192   0.46346   0.00000  Uiso   1.00
H659   H     0.62428   0.30190   0.43175   0.00000  Uiso   1.00
H660   H     0.66114   0.32866   0.49964   0.00000  Uiso   1.00
H661   H     0.71936   0.01403   0.34679   0.00000  Uiso   1.00
H662   H     0.68070   0.01527   0.40218   0.00000  Uiso   1.00
H663   H     0.64567   0.28494   0.65887   0.00000  Uiso   1.00
H664   H     0.69724   0.26286   0.63324   0.00000  Uiso   1.00
H665   H     0.67842   0.24628   0.36589   0.00000  Uiso   1.00
H666   H     0.83192   0.00734   0.53200   0.00000  Uiso   1.00
H667   H     0.83184   0.32447   0.60349   0.00000  Uiso   1.00
H668   H     0.55606   0.27469   0.60842   0.00000  Uiso   1.00
H669   H     0.87535   0.06989   0.62453   0.00000  Uiso   1.00
H670   H     0.84191   0.09314   0.56941   0.00000  Uiso   1.00
H671   H     0.81978   0.09105   0.63843   0.00000  Uiso   1.00
H672   H     0.65583   0.14218   0.66608   0.00000  Uiso   1.00
H673   H     0.67613   0.09030   0.36606   0.00000  Uiso   1.00
H674   H     0.65870   0.02950   0.60481   0.00000  Uiso   1.00
H675   H     0.60974   0.06253   0.62358   0.00000  Uiso   1.00
H676   H     0.64202   0.07931   0.56691   0.00000  Uiso   1.00
H677   H     0.83340   0.23997   0.63862   0.00000  Uiso   1.00
H678   H     0.84111   0.17611   0.65255   0.00000  Uiso   1.00
H679   H     0.89634   0.05251   0.38770   0.00000  Uiso   1.00
H680   H     0.85704   0.26199   0.42690   0.00000  Uiso   1.00
H681   H     0.88395   0.20357   0.40678   0.00000  Uiso   1.00
H682   H     0.89747   0.25595   0.37286   0.00000  Uiso   1.00
H683   H     0.85336   0.09634   0.39460   0.00000  Uiso   1.00
H684   H     0.80038   0.02990   0.36834   0.00000  Uiso   1.00
H685   H     0.82224   0.00360   0.43082   0.00000  Uiso   1.00
H686   H     0.84452   0.32066   0.36142   0.00000  Uiso   1.00
H687   H     0.59338   0.31683   0.53780   0.00000  Uiso   1.00
H688   H     0.57510   0.26286   0.47869   0.00000  Uiso   1.00
N689   N     0.73744   0.15214   0.34617   0.00000  Uiso   1.00
N690   N     0.76255   0.18119   0.65383   0.00000  Uiso   1.00
O691   O     0.75325   0.09538   0.53992   0.00000  Uiso   1.00
O692   O     0.62155   0.25094   0.55074   0.00000  Uiso   1.00
O693   O     0.73975   0.31311   0.41657   0.00000  Uiso   1.00
O694   O     0.77277   0.01726   0.57662   0.00000  Uiso   1.00
O695   O     0.71480   0.11291   0.63971   0.00000  Uiso   1.00
O696   O     0.79082   0.21552   0.36035   0.00000  Uiso   1.00
O697   O     0.74674   0.23796   0.46008   0.00000  Uiso   1.00
O698   O     0.74480   0.08559   0.43612   0.00000  Uiso   1.00
O699   O     0.75520   0.24774   0.56388   0.00000  Uiso   1.00
O700   O     0.68935   0.17155   0.55191   0.00000  Uiso   1.00
O701   O     0.81064   0.16179   0.44809   0.00000  Uiso   1.00
O702   O     0.68090   0.16176   0.44810   0.00000  Uiso   1.00
O703   O     0.81910   0.17157   0.55190   0.00000  Uiso   1.00
O704   O     0.87542   0.07331   0.47282   0.00000  Uiso   1.00
C705   C     0.24763   0.40018   0.48451   0.00000  Uiso   1.00
C706   C     0.08824   0.45024   0.47848   0.00000  Uiso   1.00
C707   C     0.38458   0.49796   0.50473   0.00000  Uiso   1.00
C708   C     0.11549   0.49556   0.50327   0.00000  Uiso   1.00
C709   C     0.40302   0.45083   0.48986   0.00000  Uiso   1.00
C710   C     0.09718   0.53747   0.53703   0.00000  Uiso   1.00
C711   C     0.44942   0.44834   0.49501   0.00000  Uiso   1.00
C712   C     0.05211   0.53444   0.54722   0.00000  Uiso   1.00
C713   C     0.47756   0.49240   0.52057   0.00000  Uiso   1.00
C714   C     0.02422   0.49066   0.51973   0.00000  Uiso   1.00
C715   C     0.45907   0.53843   0.54585   0.00000  Uiso   1.00
C716   C     0.25153   0.59947   0.51478   0.00000  Uiso   1.00
C717   C     0.04246   0.44639   0.48856   0.00000  Uiso   1.00
C718   C     0.46807   0.40234   0.47450   0.00000  Uiso   1.00
C719   C     0.03423   0.57624   0.58195   0.00000  Uiso   1.00
C720   C     0.36596   0.39613   0.41005   0.00000  Uiso   1.00
C721   C     0.33086   0.35182   0.39154   0.00000  Uiso   1.00
C722   C     0.10446   0.61460   0.51114   0.00000  Uiso   1.00
C723   C     0.14030   0.62771   0.47435   0.00000  Uiso   1.00
C724   C     0.20499   0.65894   0.37775   0.00000  Uiso   1.00
C725   C     0.18016   0.61021   0.34004   0.00000  Uiso   1.00
C726   C     0.31969   0.35166   0.57709   0.00000  Uiso   1.00
C727   C     0.01348   0.40097   0.46909   0.00000  Uiso   1.00
C728   C     0.34055   0.40472   0.60481   0.00000  Uiso   1.00
C729   C     0.17267   0.43917   0.65850   0.00000  Uiso   1.00
C730   C     0.14394   0.40021   0.61033   0.00000  Uiso   1.00
C731   C     0.33288   0.54871   0.33868   0.00000  Uiso   1.00
C732   C     0.36988   0.56898   0.38960   0.00000  Uiso   1.00
C733   C     0.48838   0.57899   0.58137   0.00000  Uiso   1.00
C734   C     0.24452   0.34382   0.47474   0.00000  Uiso   1.00
C735   C     0.25423   0.65494   0.52186   0.00000  Uiso   1.00
C736   C     0.16438   0.49848   0.50028   0.00000  Uiso   1.00
C737   C     0.33553   0.49978   0.50052   0.00000  Uiso   1.00
C738   C     0.41252   0.54160   0.53362   0.00000  Uiso   1.00
Cl739  Cl    0.38886   0.60043   0.54512   0.00000  Uiso   1.00
Cl740  Cl    0.11163   0.40221   0.42983   0.00000  Uiso   1.00
Cl741  Cl    0.02961   0.33968   0.43967   0.00000  Uiso   1.00
Cl742  Cl    0.47145   0.63242   0.63076   0.00000  Uiso   1.00
Cu743  Cu    0.25500   0.50579   0.56146   0.00000  Uiso   1.00
Cu744  Cu    0.24499   0.49421   0.43854   0.00000  Uiso   1.00
H745   H     0.44707   0.36702   0.45994   0.00000  Uiso   1.00
H746   H     0.16123   0.59526   0.46346   0.00000  Uiso   1.00
H747   H     0.12428   0.63523   0.43175   0.00000  Uiso   1.00
H748   H     0.16114   0.66200   0.49964   0.00000  Uiso   1.00
H749   H     0.21936   0.34737   0.34679   0.00000  Uiso   1.00
H750   H     0.18070   0.34861   0.40218   0.00000  Uiso   1.00
H751   H     0.14567   0.61827   0.65887   0.00000  Uiso   1.00
H752   H     0.19724   0.59619   0.63324   0.00000  Uiso   1.00
H753   H     0.17842   0.57962   0.36589   0.00000  Uiso   1.00
H754   H     0.33192   0.34068   0.53200   0.00000  Uiso   1.00
H755   H     0.33184   0.65780   0.60349   0.00000  Uiso   1.00
H756   H     0.05606   0.60802   0.60842   0.00000  Uiso   1.00
H757   H     0.37535   0.40322   0.62453   0.00000  Uiso   1.00
H758   H     0.34191   0.42647   0.56941   0.00000  Uiso   1.00
H759   H     0.31978   0.42438   0.63843   0.00000  Uiso   1.00
H760   H     0.15583   0.47551   0.66608   0.00000  Uiso   1.00
H761   H     0.17613   0.42363   0.36606   0.00000  Uiso   1.00
H762   H     0.15870   0.36283   0.60481   0.00000  Uiso   1.00
H763   H     0.10974   0.39586   0.62358   0.00000  Uiso   1.00
H764   H     0.14202   0.41264   0.56691   0.00000  Uiso   1.00
H765   H     0.33340   0.57331   0.63862   0.00000  Uiso   1.00
H766   H     0.34111   0.50945   0.65255   0.00000  Uiso   1.00
H767   H     0.39634   0.38585   0.38770   0.00000  Uiso   1.00
H768   H     0.35704   0.59532   0.42690   0.00000  Uiso   1.00
H769   H     0.38395   0.53690   0.40678   0.00000  Uiso   1.00
H770   H     0.39747   0.58928   0.37286   0.00000  Uiso   1.00
H771   H     0.35336   0.42967   0.39460   0.00000  Uiso   1.00
H772   H     0.30038   0.36323   0.36834   0.00000  Uiso   1.00
H773   H     0.32224   0.33694   0.43082   0.00000  Uiso   1.00
H774   H     0.34452   0.65399   0.36142   0.00000  Uiso   1.00
H775   H     0.09338   0.65016   0.53780   0.00000  Uiso   1.00
H776   H     0.07510   0.59620   0.47869   0.00000  Uiso   1.00
N777   N     0.23744   0.48547   0.34617   0.00000  Uiso   1.00
N778   N     0.26255   0.51453   0.65383   0.00000  Uiso   1.00
O779   O     0.25325   0.42871   0.53992   0.00000  Uiso   1.00
O780   O     0.12155   0.58427   0.55074   0.00000  Uiso   1.00
O781   O     0.23975   0.64644   0.41657   0.00000  Uiso   1.00
O782   O     0.27277   0.35059   0.57662   0.00000  Uiso   1.00
O783   O     0.21480   0.44624   0.63971   0.00000  Uiso   1.00
O784   O     0.29082   0.54886   0.36035   0.00000  Uiso   1.00
O785   O     0.24674   0.57129   0.46008   0.00000  Uiso   1.00
O786   O     0.24480   0.41892   0.43612   0.00000  Uiso   1.00
O787   O     0.25520   0.58108   0.56388   0.00000  Uiso   1.00
O788   O     0.18935   0.50488   0.55191   0.00000  Uiso   1.00
O789   O     0.31064   0.49512   0.44809   0.00000  Uiso   1.00
O790   O     0.18090   0.49510   0.44810   0.00000  Uiso   1.00
O791   O     0.31910   0.50490   0.55190   0.00000  Uiso   1.00
O792   O     0.37542   0.40664   0.47282   0.00000  Uiso   1.00
C793   C     0.74763   0.40018   0.48451   0.00000  Uiso   1.00
C794   C     0.58824   0.45024   0.47848   0.00000  Uiso   1.00
C795   C     0.88458   0.49796   0.50473   0.00000  Uiso   1.00
C796   C     0.61549   0.49556   0.50327   0.00000  Uiso   1.00
C797   C     0.90302   0.45083   0.48986   0.00000  Uiso   1.00
C798   C     0.59718   0.53747   0.53703   0.00000  Uiso   1.00
C799   C     0.94942   0.44834   0.49501   0.00000  Uiso   1.00
C800   C     0.55211   0.53444   0.54722   0.00000  Uiso   1.00
C801   C     0.97756   0.49240   0.52057   0.00000  Uiso   1.00
C802   C     0.52422   0.49066   0.51973   0.00000  Uiso   1.00
C803   C     0.95907   0.53843   0.54585   0.00000  Uiso   1.00
C804   C     0.75153   0.59947   0.51478   0.00000  Uiso   1.00
C805   C     0.54246   0.44639   0.48856   0.00000  Uiso   1.00
C806   C     0.96807   0.40234   0.47450   0.00000  Uiso   1.00
C807   C     0.53423   0.57624   0.58195   0.00000  Uiso   1.00
C808   C     0.86596   0.39613   0.41005   0.00000  Uiso   1.00
C809   C     0.83086   0.35182   0.39154   0.00000  Uiso   1.00
C810   C     0.60446   0.61460   0.51114   0.00000  Uiso   1.00
C811   C     0.64030   0.62771   0.47435   0.00000  Uiso   1.00
C812   C     0.70499   0.65894   0.37775   0.00000  Uiso   1.00
C813   C     0.68016   0.61021   0.34004   0.00000  Uiso   1.00
C814   C     0.81969   0.35166   0.57709   0.00000  Uiso   1.00
C815   C     0.51348   0.40097   0.46909   0.00000  Uiso   1.00
C816   C     0.84055   0.40472   0.60481   0.00000  Uiso   1.00
C817   C     0.67267   0.43917   0.65850   0.00000  Uiso   1.00
C818   C     0.64394   0.40021   0.61033   0.00000  Uiso   1.00
C819   C     0.83288   0.54871   0.33868   0.00000  Uiso   1.00
C820   C     0.86988   0.56898   0.38960   0.00000  Uiso   1.00
C821   C     0.98838   0.57899   0.58137   0.00000  Uiso   1.00
C822   C     0.74452   0.34382   0.47474   0.00000  Uiso   1.00
C823   C     0.75423   0.65494   0.52186   0.00000  Uiso   1.00
C824   C     0.66438   0.49848   0.50028   0.00000  Uiso   1.00
C825   C     0.83553   0.49978   0.50052   0.00000  Uiso   1.00
C826   C     0.91252   0.54160   0.53362   0.00000  Uiso   1.00
Cl827  Cl    0.88886   0.60043   0.54512   0.00000  Uiso   1.00
Cl828  Cl    0.61163   0.40221   0.42983   0.00000  Uiso   1.00
Cl829  Cl    0.52961   0.33968   0.43967   0.00000  Uiso   1.00
Cl830  Cl    0.97145   0.63242   0.63076   0.00000  Uiso   1.00
Cu831  Cu    0.75500   0.50579   0.56146   0.00000  Uiso   1.00
Cu832  Cu    0.74499   0.49421   0.43854   0.00000  Uiso   1.00
H833   H     0.94707   0.36702   0.45994   0.00000  Uiso   1.00
H834   H     0.66123   0.59526   0.46346   0.00000  Uiso   1.00
H835   H     0.62428   0.63523   0.43175   0.00000  Uiso   1.00
H836   H     0.66114   0.66200   0.49964   0.00000  Uiso   1.00
H837   H     0.71936   0.34737   0.34679   0.00000  Uiso   1.00
H838   H     0.68070   0.34861   0.40218   0.00000  Uiso   1.00
H839   H     0.64567   0.61827   0.65887   0.00000  Uiso   1.00
H840   H     0.69724   0.59619   0.63324   0.00000  Uiso   1.00
H841   H     0.67842   0.57962   0.36589   0.00000  Uiso   1.00
H842   H     0.83192   0.34068   0.53200   0.00000  Uiso   1.00
H843   H     0.83184   0.65780   0.60349   0.00000  Uiso   1.00
H844   H     0.55606   0.60802   0.60842   0.00000  Uiso   1.00
H845   H     0.87535   0.40322   0.62453   0.00000  Uiso   1.00
H846   H     0.84191   0.42647   0.56941   0.00000  Uiso   1.00
H847   H     0.81978   0.42438   0.63843   0.00000  Uiso   1.00
H848   H     0.65583   0.47551   0.66608   0.00000  Uiso   1.00
H849   H     0.67613   0.42363   0.36606   0.00000  Uiso   1.00
H850   H     0.65870   0.36283   0.60481   0.00000  Uiso   1.00
H851   H     0.60974   0.39586   0.62358   0.00000  Uiso   1.00
H852   H     0.64202   0.41264   0.56691   0.00000  Uiso   1.00
H853   H     0.83340   0.57331   0.63862   0.00000  Uiso   1.00
H854   H     0.84111   0.50945   0.65255   0.00000  Uiso   1.00
H855   H     0.89634   0.38585   0.38770   0.00000  Uiso   1.00
H856   H     0.85704   0.59532   0.42690   0.00000  Uiso   1.00
H857   H     0.88395   0.53690   0.40678   0.00000  Uiso   1.00
H858   H     0.89747   0.58928   0.37286   0.00000  Uiso   1.00
H859   H     0.85336   0.42967   0.39460   0.00000  Uiso   1.00
H860   H     0.80038   0.36323   0.36834   0.00000  Uiso   1.00
H861   H     0.82224   0.33694   0.43082   0.00000  Uiso   1.00
H862   H     0.84452   0.65399   0.36142   0.00000  Uiso   1.00
H863   H     0.59338   0.65016   0.53780   0.00000  Uiso   1.00
H864   H     0.57510   0.59620   0.47869   0.00000  Uiso   1.00
N865   N     0.73744   0.48547   0.34617   0.00000  Uiso   1.00
N866   N     0.76255   0.51453   0.65383   0.00000  Uiso   1.00
O867   O     0.75325   0.42871   0.53992   0.00000  Uiso   1.00
O868   O     0.62155   0.58427   0.55074   0.00000  Uiso   1.00
O869   O     0.73975   0.64644   0.41657   0.00000  Uiso   1.00
O870   O     0.77277   0.35059   0.57662   0.00000  Uiso   1.00
O871   O     0.71480   0.44624   0.63971   0.00000  Uiso   1.00
O872   O     0.79082   0.54886   0.36035   0.00000  Uiso   1.00
O873   O     0.74674   0.57129   0.46008   0.00000  Uiso   1.00
O874   O     0.74480   0.41892   0.43612   0.00000  Uiso   1.00
O875   O     0.75520   0.58108   0.56388   0.00000  Uiso   1.00
O876   O     0.68935   0.50488   0.55191   0.00000  Uiso   1.00
O877   O     0.81064   0.49512   0.44809   0.00000  Uiso   1.00
O878   O     0.68090   0.49510   0.44810   0.00000  Uiso   1.00
O879   O     0.81910   0.50490   0.55190   0.00000  Uiso   1.00
O880   O     0.87542   0.40664   0.47282   0.00000  Uiso   1.00
C881   C     0.24763   0.73351   0.48451   0.00000  Uiso   1.00
C882   C     0.08824   0.78358   0.47848   0.00000  Uiso   1.00
C883   C     0.38458   0.83130   0.50473   0.00000  Uiso   1.00
C884   C     0.11549   0.82889   0.50327   0.00000  Uiso   1.00
C885   C     0.40302   0.78416   0.48986   0.00000  Uiso   1.00
C886   C     0.09718   0.87080   0.53703   0.00000  Uiso   1.00
C887   C     0.44942   0.78167   0.49501   0.00000  Uiso   1.00
C888   C     0.05211   0.86778   0.54722   0.00000  Uiso   1.00
C889   C     0.47756   0.82573   0.52057   0.00000  Uiso   1.00
C890   C     0.02422   0.82399   0.51973   0.00000  Uiso   1.00
C891   C     0.45907   0.87176   0.54585   0.00000  Uiso   1.00
C892   C     0.25153   0.93281   0.51478   0.00000  Uiso   1.00
C893   C     0.04246   0.77973   0.48856   0.00000  Uiso   1.00
C894   C     0.46807   0.73567   0.47450   0.00000  Uiso   1.00
C895   C     0.03423   0.90957   0.58195   0.00000  Uiso   1.00
C896   C     0.36596   0.72947   0.41005   0.00000  Uiso   1.00
C897   C     0.33086   0.68515   0.39154   0.00000  Uiso   1.00
C898   C     0.10446   0.94793   0.51114   0.00000  Uiso   1.00
C899   C     0.14030   0.96104   0.47435   0.00000  Uiso   1.00
C900   C     0.20499   0.99227   0.37775   0.00000  Uiso   1.00
C901   C     0.18016   0.94355   0.34004   0.00000  Uiso   1.00
C902   C     0.31969   0.68499   0.57709   0.00000  Uiso   1.00
C903   C     0.01348   0.73430   0.46909   0.00000  Uiso   1.00
C904   C     0.34055   0.73806   0.60481   0.00000  Uiso   1.00
C905   C     0.17267   0.77250   0.65850   0.00000  Uiso   1.00
C906   C     0.14394   0.73354   0.61033   0.00000  Uiso   1.00
C907   C     0.33288   0.88204   0.33868   0.00000  Uiso   1.00
C908   C     0.36988   0.90231   0.38960   0.00000  Uiso   1.00
C909   C     0.48838   0.91232   0.58137   0.00000  Uiso   1.00
C910   C     0.24452   0.67715   0.47474   0.00000  Uiso   1.00
C911   C     0.25423   0.98828   0.52186   0.00000  Uiso   1.00
C912   C     0.16438   0.83182   0.50028   0.00000  Uiso   1.00
C913   C     0.33553   0.83312   0.50052   0.00000  Uiso   1.00
C914   C     0.41252   0.87494   0.53362   0.00000  Uiso   1.00
Cl915  Cl    0.38886   0.93376   0.54512   0.00000  Uiso   1.00
Cl916  Cl    0.11163   0.73555   0.42983   0.00000  Uiso   1.00
Cl917  Cl    0.02961   0.67301   0.43967   0.00000  Uiso   1.00
Cl918  Cl    0.47145   0.96575   0.63076   0.00000  Uiso   1.00
Cu919  Cu    0.25500   0.83913   0.56146   0.00000  Uiso   1.00
Cu920  Cu    0.24499   0.82754   0.43854   0.00000  Uiso   1.00
H921   H     0.44707   0.70035   0.45994   0.00000  Uiso   1.00
H922   H     0.16123   0.92859   0.46346   0.00000  Uiso   1.00
H923   H     0.12428   0.96857   0.43175   0.00000  Uiso   1.00
H924   H     0.16114   0.99533   0.49964   0.00000  Uiso   1.00
H925   H     0.21936   0.68070   0.34679   0.00000  Uiso   1.00
H926   H     0.18070   0.68194   0.40218   0.00000  Uiso   1.00
H927   H     0.14567   0.95160   0.65887   0.00000  Uiso   1.00
H928   H     0.19724   0.92953   0.63324   0.00000  Uiso   1.00
H929   H     0.17842   0.91295   0.36589   0.00000  Uiso   1.00
H930   H     0.33192   0.67401   0.53200   0.00000  Uiso   1.00
H931   H     0.33184   0.99113   0.60349   0.00000  Uiso   1.00
H932   H     0.05606   0.94135   0.60842   0.00000  Uiso   1.00
H933   H     0.37535   0.73656   0.62453   0.00000  Uiso   1.00
H934   H     0.34191   0.75981   0.56941   0.00000  Uiso   1.00
H935   H     0.31978   0.75771   0.63843   0.00000  Uiso   1.00
H936   H     0.15583   0.80884   0.66608   0.00000  Uiso   1.00
H937   H     0.17613   0.75697   0.36606   0.00000  Uiso   1.00
H938   H     0.15870   0.69616   0.60481   0.00000  Uiso   1.00
H939   H     0.10974   0.72920   0.62358   0.00000  Uiso   1.00
H940   H     0.14202   0.74597   0.56691   0.00000  Uiso   1.00
H941   H     0.33340   0.90664   0.63862   0.00000  Uiso   1.00
H942   H     0.34111   0.84278   0.65255   0.00000  Uiso   1.00
H943   H     0.39634   0.71918   0.38770   0.00000  Uiso   1.00
H944   H     0.35704   0.92866   0.42690   0.00000  Uiso   1.00
H945   H     0.38395   0.87024   0.40678   0.00000  Uiso   1.00
H946   H     0.39747   0.92261   0.37286   0.00000  Uiso   1.00
H947   H     0.35336   0.76300   0.39460   0.00000  Uiso   1.00
H948   H     0.30038   0.69656   0.36834   0.00000  Uiso   1.00
H949   H     0.32224   0.67027   0.43082   0.00000  Uiso   1.00
H950   H     0.34452   0.98732   0.36142   0.00000  Uiso   1.00
H951   H     0.09338   0.98350   0.53780   0.00000  Uiso   1.00
H952   H     0.07510   0.92953   0.47869   0.00000  Uiso   1.00
N953   N     0.23744   0.81881   0.34617   0.00000  Uiso   1.00
N954   N     0.26255   0.84786   0.65383   0.00000  Uiso   1.00
O955   O     0.25325   0.76204   0.53992   0.00000  Uiso   1.00
O956   O     0.12155   0.91760   0.55074   0.00000  Uiso   1.00
O957   O     0.23975   0.97978   0.41657   0.00000  Uiso   1.00
O958   O     0.27277   0.68393   0.57662   0.00000  Uiso   1.00
O959   O     0.21480   0.77957   0.63971   0.00000  Uiso   1.00
O960   O     0.29082   0.88219   0.36035   0.00000  Uiso   1.00
O961   O     0.24674   0.90462   0.46008   0.00000  Uiso   1.00
O962   O     0.24480   0.75226   0.43612   0.00000  Uiso   1.00
O963   O     0.25520   0.91441   0.56388   0.00000  Uiso   1.00
O964   O     0.18935   0.83821   0.55191   0.00000  Uiso   1.00
O965   O     0.31064   0.82845   0.44809   0.00000  Uiso   1.00
O966   O     0.18090   0.82843   0.44810   0.00000  Uiso   1.00
O967   O     0.31910   0.83824   0.55190   0.00000  Uiso   1.00
O968   O     0.37542   0.73998   0.47282   0.00000  Uiso   1.00
C969   C     0.74763   0.73351   0.48451   0.00000  Uiso   1.00
C970   C     0.58824   0.78358   0.47848   0.00000  Uiso   1.00
C971   C     0.88458   0.83130   0.50473   0.00000  Uiso   1.00
C972   C     0.61549   0.82889   0.50327   0.00000  Uiso   1.00
C973   C     0.90302   0.78416   0.48986   0.00000  Uiso   1.00
C974   C     0.59718   0.87080   0.53703   0.00000  Uiso   1.00
C975   C     0.94942   0.78167   0.49501   0.00000  Uiso   1.00
C976   C     0.55211   0.86778   0.54722   0.00000  Uiso   1.00
C977   C     0.97756   0.82573   0.52057   0.00000  Uiso   1.00
C978   C     0.52422   0.82399   0.51973   0.00000  Uiso   1.00
C979   C     0.95907   0.87176   0.54585   0.00000  Uiso   1.00
C980   C     0.75153   0.93281   0.51478   0.00000  Uiso   1.00
C981   C     0.54246   0.77973   0.48856   0.00000  Uiso   1.00
C982   C     0.96807   0.73567   0.47450   0.00000  Uiso   1.00
C983   C     0.53423   0.90957   0.58195   0.00000  Uiso   1.00
C984   C     0.86596   0.72947   0.41005   0.00000  Uiso   1.00
C985   C     0.83086   0.68515   0.39154   0.00000  Uiso   1.00
C986   C     0.60446   0.94793   0.51114   0.00000  Uiso   1.00
C987   C     0.64030   0.96104   0.47435   0.00000  Uiso   1.00
C988   C     0.70499   0.99227   0.37775   0.00000  Uiso   1.00
C989   C     0.68016   0.94355   0.34004   0.00000  Uiso   1.00
C990   C     0.81969   0.68499   0.57709   0.00000  Uiso   1.00
C991   C     0.51348   0.73430   0.46909   0.00000  Uiso   1.00
C992   C     0.84055   0.73806   0.60481   0.00000  Uiso   1.00
C993   C     0.67267   0.77250   0.65850   0.00000  Uiso   1.00
C994   C     0.64394   0.73354   0.61033   0.00000  Uiso   1.00
C995   C     0.83288   0.88204   0.33868   0.00000  Uiso   1.00
C996   C     0.86988   0.90231   0.38960   0.00000  Uiso   1.00
C997   C     0.98838   0.91232   0.58137   0.00000  Uiso   1.00
C998   C     0.74452   0.67715   0.47474   0.00000  Uiso   1.00
C999   C     0.75423   0.98828   0.52186   0.00000  Uiso   1.00
C1000  C     0.66438   0.83182   0.50028   0.00000  Uiso   1.00
C1001  C     0.83553   0.83312   0.50052   0.00000  Uiso   1.00
C1002  C     0.91252   0.87494   0.53362   0.00000  Uiso   1.00
Cl1003 Cl    0.88886   0.93376   0.54512   0.00000  Uiso   1.00
Cl1004 Cl    0.61163   0.73555   0.42983   0.00000  Uiso   1.00
Cl1005 Cl    0.52961   0.67301   0.43967   0.00000  Uiso   1.00
Cl1006 Cl    0.97145   0.96575   0.63076   0.00000  Uiso   1.00
Cu1007 Cu    0.75500   0.83913   0.56146   0.00000  Uiso   1.00
Cu1008 Cu    0.74499   0.82754   0.43854   0.00000  Uiso   1.00
H1009  H     0.94707   0.70035   0.45994   0.00000  Uiso   1.00
H1010  H     0.66123   0.92859   0.46346   0.00000  Uiso   1.00
H1011  H     0.62428   0.96857   0.43175   0.00000  Uiso   1.00
H1012  H     0.66114   0.99533   0.49964   0.00000  Uiso   1.00
H1013  H     0.71936   0.68070   0.34679   0.00000  Uiso   1.00
H1014  H     0.68070   0.68194   0.40218   0.00000  Uiso   1.00
H1015  H     0.64567   0.95160   0.65887   0.00000  Uiso   1.00
H1016  H     0.69724   0.92953   0.63324   0.00000  Uiso   1.00
H1017  H     0.67842   0.91295   0.36589   0.00000  Uiso   1.00
H1018  H     0.83192   0.67401   0.53200   0.00000  Uiso   1.00
H1019  H     0.83184   0.99113   0.60349   0.00000  Uiso   1.00
H1020  H     0.55606   0.94135   0.60842   0.00000  Uiso   1.00
H1021  H     0.87535   0.73656   0.62453   0.00000  Uiso   1.00
H1022  H     0.84191   0.75981   0.56941   0.00000  Uiso   1.00
H1023  H     0.81978   0.75771   0.63843   0.00000  Uiso   1.00
H1024  H     0.65583   0.80884   0.66608   0.00000  Uiso   1.00
H1025  H     0.67613   0.75697   0.36606   0.00000  Uiso   1.00
H1026  H     0.65870   0.69616   0.60481   0.00000  Uiso   1.00
H1027  H     0.60974   0.72920   0.62358   0.00000  Uiso   1.00
H1028  H     0.64202   0.74597   0.56691   0.00000  Uiso   1.00
H1029  H     0.83340   0.90664   0.63862   0.00000  Uiso   1.00
H1030  H     0.84111   0.84278   0.65255   0.00000  Uiso   1.00
H1031  H     0.89634   0.71918   0.38770   0.00000  Uiso   1.00
H1032  H     0.85704   0.92866   0.42690   0.00000  Uiso   1.00
H1033  H     0.88395   0.87024   0.40678   0.00000  Uiso   1.00
H1034  H     0.89747   0.92261   0.37286   0.00000  Uiso   1.00
H1035  H     0.85336   0.76300   0.39460   0.00000  Uiso   1.00
H1036  H     0.80038   0.69656   0.36834   0.00000  Uiso   1.00
H1037  H     0.82224   0.67027   0.43082   0.00000  Uiso   1.00
H1038  H     0.84452   0.98732   0.36142   0.00000  Uiso   1.00
H1039  H     0.59338   0.98350   0.53780   0.00000  Uiso   1.00
H1040  H     0.57510   0.92953   0.47869   0.00000  Uiso   1.00
N1041  N     0.73744   0.81881   0.34617   0.00000  Uiso   1.00
N1042  N     0.76255   0.84786   0.65383   0.00000  Uiso   1.00
O1043  O     0.75325   0.76204   0.53992   0.00000  Uiso   1.00
O1044  O     0.62155   0.91760   0.55074   0.00000  Uiso   1.00
O1045  O     0.73975   0.97978   0.41657   0.00000  Uiso   1.00
O1046  O     0.77277   0.68393   0.57662   0.00000  Uiso   1.00
O1047  O     0.71480   0.77957   0.63971   0.00000  Uiso   1.00
O1048  O     0.79082   0.88219   0.36035   0.00000  Uiso   1.00
O1049  O     0.74674   0.90462   0.46008   0.00000  Uiso   1.00
O1050  O     0.74480   0.75226   0.43612   0.00000  Uiso   1.00
O1051  O     0.75520   0.91441   0.56388   0.00000  Uiso   1.00
O1052  O     0.68935   0.83821   0.55191   0.00000  Uiso   1.00
O1053  O     0.81064   0.82845   0.44809   0.00000  Uiso   1.00
O1054  O     0.68090   0.82843   0.44810   0.00000  Uiso   1.00
O1055  O     0.81910   0.83824   0.55190   0.00000  Uiso   1.00
O1056  O     0.87542   0.73998   0.47282   0.00000  Uiso   1.00
C1057  C     0.24763   0.06684   0.81784   0.00000  Uiso   1.00
C1058  C     0.08824   0.11691   0.81181   0.00000  Uiso   1.00
C1059  C     0.38458   0.16463   0.83807   0.00000  Uiso   1.00
C1060  C     0.11549   0.16222   0.83661   0.00000  Uiso   1.00
C1061  C     0.40302   0.11750   0.82319   0.00000  Uiso   1.00
C1062  C     0.09718   0.20414   0.87037   0.00000  Uiso   1.00
C1063  C     0.44942   0.11500   0.82834   0.00000  Uiso   1.00
C1064  C     0.05211   0.20111   0.88055   0.00000  Uiso   1.00
C1065  C     0.47756   0.15906   0.85391   0.00000  Uiso   1.00
C1066  C     0.02422   0.15732   0.85306   0.00000  Uiso   1.00
C1067  C     0.45907   0.20509   0.87919   0.00000  Uiso   1.00
C1068  C     0.25153   0.26614   0.84812   0.00000  Uiso   1.00
C1069  C     0.04246   0.11306   0.82189   0.00000  Uiso   1.00
C1070  C     0.46807   0.06901   0.80784   0.00000  Uiso   1.00
C1071  C     0.03423   0.24290   0.91528   0.00000  Uiso   1.00
C1072  C     0.36596   0.06280   0.74338   0.00000  Uiso   1.00
C1073  C     0.33086   0.01848   0.72488   0.00000  Uiso   1.00
C1074  C     0.10446   0.28126   0.84447   0.00000  Uiso   1.00
C1075  C     0.14030   0.29438   0.80768   0.00000  Uiso   1.00
C1076  C     0.20499   0.32561   0.71108   0.00000  Uiso   1.00
C1077  C     0.18016   0.27688   0.67337   0.00000  Uiso   1.00
C1078  C     0.31969   0.01832   0.91042   0.00000  Uiso   1.00
C1079  C     0.01348   0.06764   0.80242   0.00000  Uiso   1.00
C1080  C     0.34055   0.07139   0.93814   0.00000  Uiso   1.00
C1081  C     0.17267   0.10584   0.99183   0.00000  Uiso   1.00
C1082  C     0.14394   0.06688   0.94366   0.00000  Uiso   1.00
C1083  C     0.33288   0.21538   0.67201   0.00000  Uiso   1.00
C1084  C     0.36988   0.23564   0.72293   0.00000  Uiso   1.00
C1085  C     0.48838   0.24565   0.91470   0.00000  Uiso   1.00
C1086  C     0.24452   0.01049   0.80808   0.00000  Uiso   1.00
C1087  C     0.25423   0.32161   0.85519   0.00000  Uiso   1.00
C1088  C     0.16438   0.16515   0.83362   0.00000  Uiso   1.00
C1089  C     0.33553   0.16645   0.83386   0.00000  Uiso   1.00
C1090  C     0.41252   0.20827   0.86696   0.00000  Uiso   1.00
Cl1091 Cl    0.38886   0.26709   0.87846   0.00000  Uiso   1.00
Cl1092 Cl    0.11163   0.06888   0.76317   0.00000  Uiso   1.00
Cl1093 Cl    0.02961   0.00634   0.77301   0.00000  Uiso   1.00
Cl1094 Cl    0.47145   0.29908   0.96409   0.00000  Uiso   1.00
Cu1095 Cu    0.25500   0.17246   0.89479   0.00000  Uiso   1.00
Cu1096 Cu    0.24499   0.16087   0.77187   0.00000  Uiso   1.00
H1097  H     0.44707   0.03368   0.79327   0.00000  Uiso   1.00
H1098  H     0.16123   0.26192   0.79679   0.00000  Uiso   1.00
H1099  H     0.12428   0.30190   0.76508   0.00000  Uiso   1.00
H1100  H     0.16114   0.32866   0.83297   0.00000  Uiso   1.00
H1101  H     0.21936   0.01403   0.68013   0.00000  Uiso   1.00
H1102  H     0.18070   0.01527   0.73551   0.00000  Uiso   1.00
H1103  H     0.14567   0.28494   0.99220   0.00000  Uiso   1.00
H1104  H     0.19724   0.26286   0.96657   0.00000  Uiso   1.00
H1105  H     0.17842   0.24628   0.69922   0.00000  Uiso   1.00
H1106  H     0.33192   0.00734   0.86533   0.00000  Uiso   1.00
H1107  H     0.33184   0.32447   0.93683   0.00000  Uiso   1.00
H1108  H     0.05606   0.27469   0.94175   0.00000  Uiso   1.00
H1109  H     0.37535   0.06989   0.95786   0.00000  Uiso   1.00
H1110  H     0.34191   0.09314   0.90274   0.00000  Uiso   1.00
H1111  H     0.31978   0.09105   0.97176   0.00000  Uiso   1.00
H1112  H     0.15583   0.14218   0.99941   0.00000  Uiso   1.00
H1113  H     0.17613   0.09030   0.69939   0.00000  Uiso   1.00
H1114  H     0.15870   0.02950   0.93814   0.00000  Uiso   1.00
H1115  H     0.10974   0.06253   0.95692   0.00000  Uiso   1.00
H1116  H     0.14202   0.07931   0.90024   0.00000  Uiso   1.00
H1117  H     0.33340   0.23997   0.97196   0.00000  Uiso   1.00
H1118  H     0.34111   0.17611   0.98588   0.00000  Uiso   1.00
H1119  H     0.39634   0.05251   0.72104   0.00000  Uiso   1.00
H1120  H     0.35704   0.26199   0.76024   0.00000  Uiso   1.00
H1121  H     0.38395   0.20357   0.74012   0.00000  Uiso   1.00
H1122  H     0.39747   0.25595   0.70619   0.00000  Uiso   1.00
H1123  H     0.35336   0.09634   0.72794   0.00000  Uiso   1.00
H1124  H     0.30038   0.02990   0.70167   0.00000  Uiso   1.00
H1125  H     0.32224   0.00360   0.76415   0.00000  Uiso   1.00
H1126  H     0.34452   0.32066   0.69475   0.00000  Uiso   1.00
H1127  H     0.09338   0.31683   0.87113   0.00000  Uiso   1.00
H1128  H     0.07510   0.26286   0.81203   0.00000  Uiso   1.00
N1129  N     0.23744   0.15214   0.67951   0.00000  Uiso   1.00
N1130  N     0.26255   0.18119   0.98716   0.00000  Uiso   1.00
O1131  O     0.25325   0.09538   0.87326   0.00000  Uiso   1.00
O1132  O     0.12155   0.25094   0.88407   0.00000  Uiso   1.00
O1133  O     0.23975   0.31311   0.74991   0.00000  Uiso   1.00
O1134  O     0.27277   0.01726   0.90995   0.00000  Uiso   1.00
O1135  O     0.21480   0.11291   0.97305   0.00000  Uiso   1.00
O1136  O     0.29082   0.21552   0.69368   0.00000  Uiso   1.00
O1137  O     0.24674   0.23796   0.79341   0.00000  Uiso   1.00
O1138  O     0.24480   0.08559   0.76945   0.00000  Uiso   1.00
O1139  O     0.25520   0.24774   0.89721   0.00000  Uiso   1.00
O1140  O     0.18935   0.17155   0.88524   0.00000  Uiso   1.00
O1141  O     0.31064   0.16179   0.78143   0.00000  Uiso   1.00
O1142  O     0.18090   0.16176   0.78143   0.00000  Uiso   1.00
O1143  O     0.31910   0.17157   0.88523   0.00000  Uiso   1.00
O1144  O     0.37542   0.07331   0.80615   0.00000  Uiso   1.00
C1145  C     0.74763   0.06684   0.81784   0.00000  Uiso   1.00
C1146  C     0.58824   0.11691   0.81181   0.00000  Uiso   1.00
C1147  C     0.88458   0.16463   0.83807   0.00000  Uiso   1.00
C1148  C     0.61549   0.16222   0.83661   0.00000  Uiso   1.00
C1149  C     0.90302   0.11750   0.82319   0.00000  Uiso   1.00
C1150  C     0.59718   0.20414   0.87037   0.00000  Uiso   1.00
C1151  C     0.94942   0.11500   0.82834   0.00000  Uiso   1.00
C1152  C     0.55211   0.20111   0.88055   0.00000  Uiso   1.00
C1153  C     0.97756   0.15906   0.85391   0.00000  Uiso   1.00
C1154  C     0.52422   0.15732   0.85306   0.00000  Uiso   1.00
C1155  C     0.95907   0.20509   0.87919   0.00000  Uiso   1.00
C1156  C     0.75153   0.26614   0.84812   0.00000  Uiso   1.00
C1157  C     0.54246   0.11306   0.82189   0.00000  Uiso   1.00
C1158  C     0.96807   0.06901   0.80784   0.00000  Uiso   1.00
C1159  C     0.53423   0.24290   0.91528   0.00000  Uiso   1.00
C1160  C     0.86596   0.06280   0.74338   0.00000  Uiso   1.00
C1161  C     0.83086   0.01848   0.72488   0.00000  Uiso   1.00
C1162  C     0.60446   0.28126   0.84447   0.00000  Uiso   1.00
C1163  C     0.64030   0.29438   0.80768   0.00000  Uiso   1.00
C1164  C     0.70499   0.32561   0.71108   0.00000  Uiso   1.00
C1165  C     0.68016   0.27688   0.67337   0.00000  Uiso   1.00
C1166  C     0.81969   0.01832   0.91042   0.00000  Uiso   1.00
C1167  C     0.51348   0.06764   0.80242   0.00000  Uiso   1.00
C1168  C     0.84055   0.07139   0.93814   0.00000  Uiso   1.00
C1169  C     0.67267   0.10584   0.99183   0.00000  Uiso   1.00
C1170  C     0.64394   0.06688   0.94366   0.00000  Uiso   1.00
C1171  C     0.83288   0.21538   0.67201   0.00000  Uiso   1.00
C1172  C     0.86988   0.23564   0.72293   0.00000  Uiso   1.00
C1173  C     0.98838   0.24565   0.91470   0.00000  Uiso   1.00
C1174  C     0.74452   0.01049   0.80808   0.00000  Uiso   1.00
C1175  C     0.75423   0.32161   0.85519   0.00000  Uiso   1.00
C1176  C     0.66438   0.16515   0.83362   0.00000  Uiso   1.00
C1177  C     0.83553   0.16645   0.83386   0.00000  Uiso   1.00
C1178  C     0.91252   0.20827   0.86696   0.00000  Uiso   1.00
Cl1179 Cl    0.88886   0.26709   0.87846   0.00000  Uiso   1.00
Cl1180 Cl    0.61163   0.06888   0.76317   0.00000  Uiso   1.00
Cl1181 Cl    0.52961   0.00634   0.77301   0.00000  Uiso   1.00
Cl1182 Cl    0.97145   0.29908   0.96409   0.00000  Uiso   1.00
Cu1183 Cu    0.75500   0.17246   0.89479   0.00000  Uiso   1.00
Cu1184 Cu    0.74499   0.16087   0.77187   0.00000  Uiso   1.00
H1185  H     0.94707   0.03368   0.79327   0.00000  Uiso   1.00
H1186  H     0.66123   0.26192   0.79679   0.00000  Uiso   1.00
H1187  H     0.62428   0.30190   0.76508   0.00000  Uiso   1.00
H1188  H     0.66114   0.32866   0.83297   0.00000  Uiso   1.00
H1189  H     0.71936   0.01403   0.68013   0.00000  Uiso   1.00
H1190  H     0.68070   0.01527   0.73551   0.00000  Uiso   1.00
H1191  H     0.64567   0.28494   0.99220   0.00000  Uiso   1.00
H1192  H     0.69724   0.26286   0.96657   0.00000  Uiso   1.00
H1193  H     0.67842   0.24628   0.69922   0.00000  Uiso   1.00
H1194  H     0.83192   0.00734   0.86533   0.00000  Uiso   1.00
H1195  H     0.83184   0.32447   0.93683   0.00000  Uiso   1.00
H1196  H     0.55606   0.27469   0.94175   0.00000  Uiso   1.00
H1197  H     0.87535   0.06989   0.95786   0.00000  Uiso   1.00
H1198  H     0.84191   0.09314   0.90274   0.00000  Uiso   1.00
H1199  H     0.81978   0.09105   0.97176   0.00000  Uiso   1.00
H1200  H     0.65583   0.14218   0.99941   0.00000  Uiso   1.00
H1201  H     0.67613   0.09030   0.69939   0.00000  Uiso   1.00
H1202  H     0.65870   0.02950   0.93814   0.00000  Uiso   1.00
H1203  H     0.60974   0.06253   0.95692   0.00000  Uiso   1.00
H1204  H     0.64202   0.07931   0.90024   0.00000  Uiso   1.00
H1205  H     0.83340   0.23997   0.97196   0.00000  Uiso   1.00
H1206  H     0.84111   0.17611   0.98588   0.00000  Uiso   1.00
H1207  H     0.89634   0.05251   0.72104   0.00000  Uiso   1.00
H1208  H     0.85704   0.26199   0.76024   0.00000  Uiso   1.00
H1209  H     0.88395   0.20357   0.74012   0.00000  Uiso   1.00
H1210  H     0.89747   0.25595   0.70619   0.00000  Uiso   1.00
H1211  H     0.85336   0.09634   0.72794   0.00000  Uiso   1.00
H1212  H     0.80038   0.02990   0.70167   0.00000  Uiso   1.00
H1213  H     0.82224   0.00360   0.76415   0.00000  Uiso   1.00
H1214  H     0.84452   0.32066   0.69475   0.00000  Uiso   1.00
H1215  H     0.59338   0.31683   0.87113   0.00000  Uiso   1.00
H1216  H     0.57510   0.26286   0.81203   0.00000  Uiso   1.00
N1217  N     0.73744   0.15214   0.67951   0.00000  Uiso   1.00
N1218  N     0.76255   0.18119   0.98716   0.00000  Uiso   1.00
O1219  O     0.75325   0.09538   0.87326   0.00000  Uiso   1.00
O1220  O     0.62155   0.25094   0.88407   0.00000  Uiso   1.00
O1221  O     0.73975   0.31311   0.74991   0.00000  Uiso   1.00
O1222  O     0.77277   0.01726   0.90995   0.00000  Uiso   1.00
O1223  O     0.71480   0.11291   0.97305   0.00000  Uiso   1.00
O1224  O     0.79082   0.21552   0.69368   0.00000  Uiso   1.00
O1225  O     0.74674   0.23796   0.79341   0.00000  Uiso   1.00
O1226  O     0.74480   0.08559   0.76945   0.00000  Uiso   1.00
O1227  O     0.75520   0.24774   0.89721   0.00000  Uiso   1.00
O1228  O     0.68935   0.17155   0.88524   0.00000  Uiso   1.00
O1229  O     0.81064   0.16179   0.78143   0.00000  Uiso   1.00
O1230  O     0.68090   0.16176   0.78143   0.00000  Uiso   1.00
O1231  O     0.81910   0.17157   0.88523   0.00000  Uiso   1.00
O1232  O     0.87542   0.07331   0.80615   0.00000  Uiso   1.00
C1233  C     0.24763   0.40018   0.81784   0.00000  Uiso   1.00
C1234  C     0.08824   0.45024   0.81181   0.00000  Uiso   1.00
C1235  C     0.38458   0.49796   0.83807   0.00000  Uiso   1.00
C1236  C     0.11549   0.49556   0.83661   0.00000  Uiso   1.00
C1237  C     0.40302   0.45083   0.82319   0.00000  Uiso   1.00
C1238  C     0.09718   0.53747   0.87037   0.00000  Uiso   1.00
C1239  C     0.44942   0.44834   0.82834   0.00000  Uiso   1.00
C1240  C     0.05211   0.53444   0.88055   0.00000  Uiso   1.00
C1241  C     0.47756   0.49240   0.85391   0.00000  Uiso   1.00
C1242  C     0.02422   0.49066   0.85306   0.00000  Uiso   1.00
C1243  C     0.45907   0.53843   0.87919   0.00000  Uiso   1.00
C1244  C     0.25153   0.59947   0.84812   0.00000  Uiso   1.00
C1245  C     0.04246   0.44639   0.82189   0.00000  Uiso   1.00
C1246  C     0.46807   0.40234   0.80784   0.00000  Uiso   1.00
C1247  C     0.03423   0.57624   0.91528   0.00000  Uiso   1.00
C1248  C     0.36596   0.39613   0.74338   0.00000  Uiso   1.00
C1249  C     0.33086   0.35182   0.72488   0.00000  Uiso   1.00
C1250  C     0.10446   0.61460   0.84447   0.00000  Uiso   1.00
C1251  C     0.14030   0.62771   0.80768   0.00000  Uiso   1.00
C1252  C     0.20499   0.65894   0.71108   0.00000  Uiso   1.00
C1253  C     0.18016   0.61021   0.67337   0.00000  Uiso   1.00
C1254  C     0.31969   0.35166   0.91042   0.00000  Uiso   1.00
C1255  C     0.01348   0.40097   0.80242   0.00000  Uiso   1.00
C1256  C     0.34055   0.40472   0.93814   0.00000  Uiso   1.00
C1257  C     0.17267   0.43917   0.99183   0.00000  Uiso   1.00
C1258  C     0.14394   0.40021   0.94366   0.00000  Uiso   1.00
C1259  C     0.33288   0.54871   0.67201   0.00000  Uiso   1.00
C1260  C     0.36988   0.56898   0.72293   0.00000  Uiso   1.00
C1261  C     0.48838   0.57899   0.91470   0.00000  Uiso   1.00
C1262  C     0.24452   0.34382   0.80808   0.00000  Uiso   1.00
C1263  C     0.25423   0.65494   0.85519   0.00000  Uiso   1.00
C1264  C     0.16438   0.49848   0.83362   0.00000  Uiso   1.00
C1265  C     0.33553   0.49978   0.83386   0.00000  Uiso   1.00
C1266  C     0.41252   0.54160   0.86696   0.00000  Uiso   1.00
Cl1267 Cl    0.38886   0.60043   0.87846   0.00000  Uiso   1.00
Cl1268 Cl    0.11163   0.40221   0.76317   0.00000  Uiso   1.00
Cl1269 Cl    0.02961   0.33968   0.77301   0.00000  Uiso   1.00
Cl1270 Cl    0.47145   0.63242   0.96409   0.00000  Uiso   1.00
Cu1271 Cu    0.25500   0.50579   0.89479   0.00000  Uiso   1.00
Cu1272 Cu    0.24499   0.49421   0.77187   0.00000  Uiso   1.00
H1273  H     0.44707   0.36702   0.79327   0.00000  Uiso   1.00
H1274  H     0.16123   0.59526   0.79679   0.00000  Uiso   1.00
H1275  H     0.12428   0.63523   0.76508   0.00000  Uiso   1.00
H1276  H     0.16114   0.66200   0.83297   0.00000  Uiso   1.00
H1277  H     0.21936   0.34737   0.68013   0.00000  Uiso   1.00
H1278  H     0.18070   0.34861   0.73551   0.00000  Uiso   1.00
H1279  H     0.14567   0.61827   0.99220   0.00000  Uiso   1.00
H1280  H     0.19724   0.59619   0.96657   0.00000  Uiso   1.00
H1281  H     0.17842   0.57962   0.69922   0.00000  Uiso   1.00
H1282  H     0.33192   0.34068   0.86533   0.00000  Uiso   1.00
H1283  H     0.33184   0.65780   0.93683   0.00000  Uiso   1.00
H1284  H     0.05606   0.60802   0.94175   0.00000  Uiso   1.00
H1285  H     0.37535   0.40322   0.95786   0.00000  Uiso   1.00
H1286  H     0.34191   0.42647   0.90274   0.00000  Uiso   1.00
H1287  H     0.31978   0.42438   0.97176   0.00000  Uiso   1.00
H1288  H     0.15583   0.47551   0.99941   0.00000  Uiso   1.00
H1289  H     0.17613   0.42363   0.69939   0.00000  Uiso   1.00
H1290  H     0.15870   0.36283   0.93814   0.00000  Uiso   1.00
H1291  H     0.10974   0.39586   0.95692   0.00000  Uiso   1.00
H1292  H     0.14202   0.41264   0.90024   0.00000  Uiso   1.00
H1293  H     0.33340   0.57331   0.97196   0.00000  Uiso   1.00
H1294  H     0.34111   0.50945   0.98588   0.00000  Uiso   1.00
H1295  H     0.39634   0.38585   0.72104   0.00000  Uiso   1.00
H1296  H     0.35704   0.59532   0.76024   0.00000  Uiso   1.00
H1297  H     0.38395   0.53690   0.74012   0.00000  Uiso   1.00
H1298  H     0.39747   0.58928   0.70619   0.00000  Uiso   1.00
H1299  H     0.35336   0.42967   0.72794   0.00000  Uiso   1.00
H1300  H     0.30038   0.36323   0.70167   0.00000  Uiso   1.00
H1301  H     0.32224   0.33694   0.76415   0.00000  Uiso   1.00
H1302  H     0.34452   0.65399   0.69475   0.00000  Uiso   1.00
H1303  H     0.09338   0.65016   0.87113   0.00000  Uiso   1.00
H1304  H     0.07510   0.59620   0.81203   0.00000  Uiso   1.00
N1305  N     0.23744   0.48547   0.67951   0.00000  Uiso   1.00
N1306  N     0.26255   0.51453   0.98716   0.00000  Uiso   1.00
O1307  O     0.25325   0.42871   0.87326   0.00000  Uiso   1.00
O1308  O     0.12155   0.58427   0.88407   0.00000  Uiso   1.00
O1309  O     0.23975   0.64644   0.74991   0.00000  Uiso   1.00
O1310  O     0.27277   0.35059   0.90995   0.00000  Uiso   1.00
O1311  O     0.21480   0.44624   0.97305   0.00000  Uiso   1.00
O1312  O     0.29082   0.54886   0.69368   0.00000  Uiso   1.00
O1313  O     0.24674   0.57129   0.79341   0.00000  Uiso   1.00
O1314  O     0.24480   0.41892   0.76945   0.00000  Uiso   1.00
O1315  O     0.25520   0.58108   0.89721   0.00000  Uiso   1.00
O1316  O     0.18935   0.50488   0.88524   0.00000  Uiso   1.00
O1317  O     0.31064   0.49512   0.78143   0.00000  Uiso   1.00
O1318  O     0.18090   0.49510   0.78143   0.00000  Uiso   1.00
O1319  O     0.31910   0.50490   0.88523   0.00000  Uiso   1.00
O1320  O     0.37542   0.40664   0.80615   0.00000  Uiso   1.00
C1321  C     0.74763   0.40018   0.81784   0.00000  Uiso   1.00
C1322  C     0.58824   0.45024   0.81181   0.00000  Uiso   1.00
C1323  C     0.88458   0.49796   0.83807   0.00000  Uiso   1.00
C1324  C     0.61549   0.49556   0.83661   0.00000  Uiso   1.00
C1325  C     0.90302   0.45083   0.82319   0.00000  Uiso   1.00
C1326  C     0.59718   0.53747   0.87037   0.00000  Uiso   1.00
C1327  C     0.94942   0.44834   0.82834   0.00000  Uiso   1.00
C1328  C     0.55211   0.53444   0.88055   0.00000  Uiso   1.00
C1329  C     0.97756   0.49240   0.85391   0.00000  Uiso   1.00
C1330  C     0.52422   0.49066   0.85306   0.00000  Uiso   1.00
C1331  C     0.95907   0.53843   0.87919   0.00000  Uiso   1.00
C1332  C     0.75153   0.59947   0.84812   0.00000  Uiso   1.00
C1333  C     0.54246   0.44639   0.82189   0.00000  Uiso   1.00
C1334  C     0.96807   0.40234   0.80784   0.00000  Uiso   1.00
C1335  C     0.53423   0.57624   0.91528   0.00000  Uiso   1.00
C1336  C     0.86596   0.39613   0.74338   0.00000  Uiso   1.00
C1337  C     0.83086   0.35182   0.72488   0.00000  Uiso   1.00
C1338  C     0.60446   0.61460   0.84447   0.00000  Uiso   1.00
C1339  C     0.64030   0.62771   0.80768   0.00000  Uiso   1.00
C1340  C     0.70499   0.65894   0.71108   0.00000  Uiso   1.00
C1341  C     0.68016   0.61021   0.67337   0.00000  Uiso   1.00
C1342  C     0.81969   0.35166   0.91042   0.00000  Uiso   1.00
C1343  C     0.51348   0.40097   0.80242   0.00000  Uiso   1.00
C1344  C     0.84055   0.40472   0.93814   0.00000  Uiso   1.00
C1345  C     0.67267   0.43917   0.99183   0.00000  Uiso   1.00
C1346  C     0.64394   0.40021   0.94366   0.00000  Uiso   1.00
C1347  C     0.83288   0.54871   0.67201   0.00000  Uiso   1.00
C1348  C     0.86988   0.56898   0.72293   0.00000  Uiso   1.00
C1349  C     0.98838   0.57899   0.91470   0.00000  Uiso   1.00
C1350  C     0.74452   0.34382   0.80808   0.00000  Uiso   1.00
C1351  C     0.75423   0.65494   0.85519   0.00000  Uiso   1.00
C1352  C     0.66438   0.49848   0.83362   0.00000  Uiso   1.00
C1353  C     0.83553   0.49978   0.83386   0.00000  Uiso   1.00
C1354  C     0.91252   0.54160   0.86696   0.00000  Uiso   1.00
Cl1355 Cl    0.88886   0.60043   0.87846   0.00000  Uiso   1.00
Cl1356 Cl    0.61163   0.40221   0.76317   0.00000  Uiso   1.00
Cl1357 Cl    0.52961   0.33968   0.77301   0.00000  Uiso   1.00
Cl1358 Cl    0.97145   0.63242   0.96409   0.00000  Uiso   1.00
Cu1359 Cu    0.75500   0.50579   0.89479   0.00000  Uiso   1.00
Cu1360 Cu    0.74499   0.49421   0.77187   0.00000  Uiso   1.00
H1361  H     0.94707   0.36702   0.79327   0.00000  Uiso   1.00
H1362  H     0.66123   0.59526   0.79679   0.00000  Uiso   1.00
H1363  H     0.62428   0.63523   0.76508   0.00000  Uiso   1.00
H1364  H     0.66114   0.66200   0.83297   0.00000  Uiso   1.00
H1365  H     0.71936   0.34737   0.68013   0.00000  Uiso   1.00
H1366  H     0.68070   0.34861   0.73551   0.00000  Uiso   1.00
H1367  H     0.64567   0.61827   0.99220   0.00000  Uiso   1.00
H1368  H     0.69724   0.59619   0.96657   0.00000  Uiso   1.00
H1369  H     0.67842   0.57962   0.69922   0.00000  Uiso   1.00
H1370  H     0.83192   0.34068   0.86533   0.00000  Uiso   1.00
H1371  H     0.83184   0.65780   0.93683   0.00000  Uiso   1.00
H1372  H     0.55606   0.60802   0.94175   0.00000  Uiso   1.00
H1373  H     0.87535   0.40322   0.95786   0.00000  Uiso   1.00
H1374  H     0.84191   0.42647   0.90274   0.00000  Uiso   1.00
H1375  H     0.81978   0.42438   0.97176   0.00000  Uiso   1.00
H1376  H     0.65583   0.47551   0.99941   0.00000  Uiso   1.00
H1377  H     0.67613   0.42363   0.69939   0.00000  Uiso   1.00
H1378  H     0.65870   0.36283   0.93814   0.00000  Uiso   1.00
H1379  H     0.60974   0.39586   0.95692   0.00000  Uiso   1.00
H1380  H     0.64202   0.41264   0.90024   0.00000  Uiso   1.00
H1381  H     0.83340   0.57331   0.97196   0.00000  Uiso   1.00
H1382  H     0.84111   0.50945   0.98588   0.00000  Uiso   1.00
H1383  H     0.89634   0.38585   0.72104   0.00000  Uiso   1.00
H1384  H     0.85704   0.59532   0.76024   0.00000  Uiso   1.00
H1385  H     0.88395   0.53690   0.74012   0.00000  Uiso   1.00
H1386  H     0.89747   0.58928   0.70619   0.00000  Uiso   1.00
H1387  H     0.85336   0.42967   0.72794   0.00000  Uiso   1.00
H1388  H     0.80038   0.36323   0.70167   0.00000  Uiso   1.00
H1389  H     0.82224   0.33694   0.76415   0.00000  Uiso   1.00
H1390  H     0.84452   0.65399   0.69475   0.00000  Uiso   1.00
H1391  H     0.59338   0.65016   0.87113   0.00000  Uiso   1.00
H1392  H     0.57510   0.59620   0.81203   0.00000  Uiso   1.00
N1393  N     0.73744   0.48547   0.67951   0.00000  Uiso   1.00
N1394  N     0.76255   0.51453   0.98716   0.00000  Uiso   1.00
O1395  O     0.75325   0.42871   0.87326   0.00000  Uiso   1.00
O1396  O     0.62155   0.58427   0.88407   0.00000  Uiso   1.00
O1397  O     0.73975   0.64644   0.74991   0.00000  Uiso   1.00
O1398  O     0.77277   0.35059   0.90995   0.00000  Uiso   1.00
O1399  O     0.71480   0.44624   0.97305   0.00000  Uiso   1.00
O1400  O     0.79082   0.54886   0.69368   0.00000  Uiso   1.00
O1401  O     0.74674   0.57129   0.79341   0.00000  Uiso   1.00
O1402  O     0.74480   0.41892   0.76945   0.00000  Uiso   1.00
O1403  O     0.75520   0.58108   0.89721   0.00000  Uiso   1.00
O1404  O     0.68935   0.50488   0.88524   0.00000  Uiso   1.00
O1405  O     0.81064   0.49512   0.78143   0.00000  Uiso   1.00
O1406  O     0.68090   0.49510   0.78143   0.00000  Uiso   1.00
O1407  O     0.81910   0.50490   0.88523   0.00000  Uiso   1.00
O1408  O     0.87542   0.40664   0.80615   0.00000  Uiso   1.00
C1409  C     0.24763   0.73351   0.81784   0.00000  Uiso   1.00
C1410  C     0.08824   0.78358   0.81181   0.00000  Uiso   1.00
C1411  C     0.38458   0.83130   0.83807   0.00000  Uiso   1.00
C1412  C     0.11549   0.82889   0.83661   0.00000  Uiso   1.00
C1413  C     0.40302   0.78416   0.82319   0.00000  Uiso   1.00
C1414  C     0.09718   0.87080   0.87037   0.00000  Uiso   1.00
C1415  C     0.44942   0.78167   0.82834   0.00000  Uiso   1.00
C1416  C     0.05211   0.86778   0.88055   0.00000  Uiso   1.00
C1417  C     0.47756   0.82573   0.85391   0.00000  Uiso   1.00
C1418  C     0.02422   0.82399   0.85306   0.00000  Uiso   1.00
C1419  C     0.45907   0.87176   0.87919   0.00000  Uiso   1.00
C1420  C     0.25153   0.93281   0.84812   0.00000  Uiso   1.00
C1421  C     0.04246   0.77973   0.82189   0.00000  Uiso   1.00
C1422  C     0.46807   0.73567   0.80784   0.00000  Uiso   1.00
C1423  C     0.03423   0.90957   0.91528   0.00000  Uiso   1.00
C1424  C     0.36596   0.72947   0.74338   0.00000  Uiso   1.00
C1425  C     0.33086   0.68515   0.72488   0.00000  Uiso   1.00
C1426  C     0.10446   0.94793   0.84447   0.00000  Uiso   1.00
C1427  C     0.14030   0.96104   0.80768   0.00000  Uiso   1.00
C1428  C     0.20499   0.99227   0.71108   0.00000  Uiso   1.00
C1429  C     0.18016   0.94355   0.67337   0.00000  Uiso   1.00
C1430  C     0.31969   0.68499   0.91042   0.00000  Uiso   1.00
C1431  C     0.01348   0.73430   0.80242   0.00000  Uiso   1.00
C1432  C     0.34055   0.73806   0.93814   0.00000  Uiso   1.00
C1433  C     0.17267   0.77250   0.99183   0.00000  Uiso   1.00
C1434  C     0.14394   0.73354   0.94366   0.00000  Uiso   1.00
C1435  C     0.33288   0.88204   0.67201   0.00000  Uiso   1.00
C1436  C     0.36988   0.90231   0.72293   0.00000  Uiso   1.00
C1437  C     0.48838   0.91232   0.91470   0.00000  Uiso   1.00
C1438  C     0.24452   0.67715   0.80808   0.00000  Uiso   1.00
C1439  C     0.25423   0.98828   0.85519   0.00000  Uiso   1.00
C1440  C     0.16438   0.83182   0.83362   0.00000  Uiso   1.00
C1441  C     0.33553   0.83312   0.83386   0.00000  Uiso   1.00
C1442  C     0.41252   0.87494   0.86696   0.00000  Uiso   1.00
Cl1443 Cl    0.38886   0.93376   0.87846   0.00000  Uiso   1.00
Cl1444 Cl    0.11163   0.73555   0.76317   0.00000  Uiso   1.00
Cl1445 Cl    0.02961   0.67301   0.77301   0.00000  Uiso   1.00
Cl1446 Cl    0.47145   0.96575   0.96409   0.00000  Uiso   1.00
Cu1447 Cu    0.25500   0.83913   0.89479   0.00000  Uiso   1.00
Cu1448 Cu    0.24499   0.82754   0.77187   0.00000  Uiso   1.00
H1449  H     0.44707   0.70035   0.79327   0.00000  Uiso   1.00
H1450  H     0.16123   0.92859   0.79679   0.00000  Uiso   1.00
H1451  H     0.12428   0.96857   0.76508   0.00000  Uiso   1.00
H1452  H     0.16114   0.99533   0.83297   0.00000  Uiso   1.00
H1453  H     0.21936   0.68070   0.68013   0.00000  Uiso   1.00
H1454  H     0.18070   0.68194   0.73551   0.00000  Uiso   1.00
H1455  H     0.14567   0.95160   0.99220   0.00000  Uiso   1.00
H1456  H     0.19724   0.92953   0.96657   0.00000  Uiso   1.00
H1457  H     0.17842   0.91295   0.69922   0.00000  Uiso   1.00
H1458  H     0.33192   0.67401   0.86533   0.00000  Uiso   1.00
H1459  H     0.33184   0.99113   0.93683   0.00000  Uiso   1.00
H1460  H     0.05606   0.94135   0.94175   0.00000  Uiso   1.00
H1461  H     0.37535   0.73656   0.95786   0.00000  Uiso   1.00
H1462  H     0.34191   0.75981   0.90274   0.00000  Uiso   1.00
H1463  H     0.31978   0.75771   0.97176   0.00000  Uiso   1.00
H1464  H     0.15583   0.80884   0.99941   0.00000  Uiso   1.00
H1465  H     0.17613   0.75697   0.69939   0.00000  Uiso   1.00
H1466  H     0.15870   0.69616   0.93814   0.00000  Uiso   1.00
H1467  H     0.10974   0.72920   0.95692   0.00000  Uiso   1.00
H1468  H     0.14202   0.74597   0.90024   0.00000  Uiso   1.00
H1469  H     0.33340   0.90664   0.97196   0.00000  Uiso   1.00
H1470  H     0.34111   0.84278   0.98588   0.00000  Uiso   1.00
H1471  H     0.39634   0.71918   0.72104   0.00000  Uiso   1.00
H1472  H     0.35704   0.92866   0.76024   0.00000  Uiso   1.00
H1473  H     0.38395   0.87024   0.74012   0.00000  Uiso   1.00
H1474  H     0.39747   0.92261   0.70619   0.00000  Uiso   1.00
H1475  H     0.35336   0.76300   0.72794   0.00000  Uiso   1.00
H1476  H     0.30038   0.69656   0.70167   0.00000  Uiso   1.00
H1477  H     0.32224   0.67027   0.76415   0.00000  Uiso   1.00
H1478  H     0.34452   0.98732   0.69475   0.00000  Uiso   1.00
H1479  H     0.09338   0.98350   0.87113   0.00000  Uiso   1.00
H1480  H     0.07510   0.92953   0.81203   0.00000  Uiso   1.00
N1481  N     0.23744   0.81881   0.67951   0.00000  Uiso   1.00
N1482  N     0.26255   0.84786   0.98716   0.00000  Uiso   1.00
O1483  O     0.25325   0.76204   0.87326   0.00000  Uiso   1.00
O1484  O     0.12155   0.91760   0.88407   0.00000  Uiso   1.00
O1485  O     0.23975   0.97978   0.74991   0.00000  Uiso   1.00
O1486  O     0.27277   0.68393   0.90995   0.00000  Uiso   1.00
O1487  O     0.21480   0.77957   0.97305   0.00000  Uiso   1.00
O1488  O     0.29082   0.88219   0.69368   0.00000  Uiso   1.00
O1489  O     0.24674   0.90462   0.79341   0.00000  Uiso   1.00
O1490  O     0.24480   0.75226   0.76945   0.00000  Uiso   1.00
O1491  O     0.25520   0.91441   0.89721   0.00000  Uiso   1.00
O1492  O     0.18935   0.83821   0.88524   0.00000  Uiso   1.00
O1493  O     0.31064   0.82845   0.78143   0.00000  Uiso   1.00
O1494  O     0.18090   0.82843   0.78143   0.00000  Uiso   1.00
O1495  O     0.31910   0.83824   0.88523   0.00000  Uiso   1.00
O1496  O     0.37542   0.73998   0.80615   0.00000  Uiso   1.00
C1497  C     0.74763   0.73351   0.81784   0.00000  Uiso   1.00
C1498  C     0.58824   0.78358   0.81181   0.00000  Uiso   1.00
C1499  C     0.88458   0.83130   0.83807   0.00000  Uiso   1.00
C1500  C     0.61549   0.82889   0.83661   0.00000  Uiso   1.00
C1501  C     0.90302   0.78416   0.82319   0.00000  Uiso   1.00
C1502  C     0.59718   0.87080   0.87037   0.00000  Uiso   1.00
C1503  C     0.94942   0.78167   0.82834   0.00000  Uiso   1.00
C1504  C     0.55211   0.86778   0.88055   0.00000  Uiso   1.00
C1505  C     0.97756   0.82573   0.85391   0.00000  Uiso   1.00
C1506  C     0.52422   0.82399   0.85306   0.00000  Uiso   1.00
C1507  C     0.95907   0.87176   0.87919   0.00000  Uiso   1.00
C1508  C     0.75153   0.93281   0.84812   0.00000  Uiso   1.00
C1509  C     0.54246   0.77973   0.82189   0.00000  Uiso   1.00
C1510  C     0.96807   0.73567   0.80784   0.00000  Uiso   1.00
C1511  C     0.53423   0.90957   0.91528   0.00000  Uiso   1.00
C1512  C     0.86596   0.72947   0.74338   0.00000  Uiso   1.00
C1513  C     0.83086   0.68515   0.72488   0.00000  Uiso   1.00
C1514  C     0.60446   0.94793   0.84447   0.00000  Uiso   1.00
C1515  C     0.64030   0.96104   0.80768   0.00000  Uiso   1.00
C1516  C     0.70499   0.99227   0.71108   0.00000  Uiso   1.00
C1517  C     0.68016   0.94355   0.67337   0.00000  Uiso   1.00
C1518  C     0.81969   0.68499   0.91042   0.00000  Uiso   1.00
C1519  C     0.51348   0.73430   0.80242   0.00000  Uiso   1.00
C1520  C     0.84055   0.73806   0.93814   0.00000  Uiso   1.00
C1521  C     0.67267   0.77250   0.99183   0.00000  Uiso   1.00
C1522  C     0.64394   0.73354   0.94366   0.00000  Uiso   1.00
C1523  C     0.83288   0.88204   0.67201   0.00000  Uiso   1.00
C1524  C     0.86988   0.90231   0.72293   0.00000  Uiso   1.00
C1525  C     0.98838   0.91232   0.91470   0.00000  Uiso   1.00
C1526  C     0.74452   0.67715   0.80808   0.00000  Uiso   1.00
C1527  C     0.75423   0.98828   0.85519   0.00000  Uiso   1.00
C1528  C     0.66438   0.83182   0.83362   0.00000  Uiso   1.00
C1529  C     0.83553   0.83312   0.83386   0.00000  Uiso   1.00
C1530  C     0.91252   0.87494   0.86696   0.00000  Uiso   1.00
Cl1531 Cl    0.88886   0.93376   0.87846   0.00000  Uiso   1.00
Cl1532 Cl    0.61163   0.73555   0.76317   0.00000  Uiso   1.00
Cl1533 Cl    0.52961   0.67301   0.77301   0.00000  Uiso   1.00
Cl1534 Cl    0.97145   0.96575   0.96409   0.00000  Uiso   1.00
Cu1535 Cu    0.75500   0.83913   0.89479   0.00000  Uiso   1.00
Cu1536 Cu    0.74499   0.82754   0.77187   0.00000  Uiso   1.00
H1537  H     0.94707   0.70035   0.79327   0.00000  Uiso   1.00
H1538  H     0.66123   0.92859   0.79679   0.00000  Uiso   1.00
H1539  H     0.62428   0.96857   0.76508   0.00000  Uiso   1.00
H1540  H     0.66114   0.99533   0.83297   0.00000  Uiso   1.00
H1541  H     0.71936   0.68070   0.68013   0.00000  Uiso   1.00
H1542  H     0.68070   0.68194   0.73551   0.00000  Uiso   1.00
H1543  H     0.64567   0.95160   0.99220   0.00000  Uiso   1.00
H1544  H     0.69724   0.92953   0.96657   0.00000  Uiso   1.00
H1545  H     0.67842   0.91295   0.69922   0.00000  Uiso   1.00
H1546  H     0.83192   0.67401   0.86533   0.00000  Uiso   1.00
H1547  H     0.83184   0.99113   0.93683   0.00000  Uiso   1.00
H1548  H     0.55606   0.94135   0.94175   0.00000  Uiso   1.00
H1549  H     0.87535   0.73656   0.95786   0.00000  Uiso   1.00
H1550  H     0.84191   0.75981   0.90274   0.00000  Uiso   1.00
H1551  H     0.81978   0.75771   0.97176   0.00000  Uiso   1.00
H1552  H     0.65583   0.80884   0.99941   0.00000  Uiso   1.00
H1553  H     0.67613   0.75697   0.69939   0.00000  Uiso   1.00
H1554  H     0.65870   0.69616   0.93814   0.00000  Uiso   1.00
H1555  H     0.60974   0.72920   0.95692   0.00000  Uiso   1.00
H1556  H     0.64202   0.74597   0.90024   0.00000  Uiso   1.00
H1557  H     0.83340   0.90664   0.97196   0.00000  Uiso   1.00
H1558  H     0.84111   0.84278   0.98588   0.00000  Uiso   1.00
H1559  H     0.89634   0.71918   0.72104   0.00000  Uiso   1.00
H1560  H     0.85704   0.92866   0.76024   0.00000  Uiso   1.00
H1561  H     0.88395   0.87024   0.74012   0.00000  Uiso   1.00
H1562  H     0.89747   0.92261   0.70619   0.00000  Uiso   1.00
H1563  H     0.85336   0.76300   0.72794   0.00000  Uiso   1.00
H1564  H     0.80038   0.69656   0.70167   0.00000  Uiso   1.00
H1565  H     0.82224   0.67027   0.76415   0.00000  Uiso   1.00
H1566  H     0.84452   0.98732   0.69475   0.00000  Uiso   1.00
H1567  H     0.59338   0.98350   0.87113   0.00000  Uiso   1.00
H1568  H     0.57510   0.92953   0.81203   0.00000  Uiso   1.00
N1569  N     0.73744   0.81881   0.67951   0.00000  Uiso   1.00
N1570  N     0.76255   0.84786   0.98716   0.00000  Uiso   1.00
O1571  O     0.75325   0.76204   0.87326   0.00000  Uiso   1.00
O1572  O     0.62155   0.91760   0.88407   0.00000  Uiso   1.00
O1573  O     0.73975   0.97978   0.74991   0.00000  Uiso   1.00
O1574  O     0.77277   0.68393   0.90995   0.00000  Uiso   1.00
O1575  O     0.71480   0.77957   0.97305   0.00000  Uiso   1.00
O1576  O     0.79082   0.88219   0.69368   0.00000  Uiso   1.00
O1577  O     0.74674   0.90462   0.79341   0.00000  Uiso   1.00
O1578  O     0.74480   0.75226   0.76945   0.00000  Uiso   1.00
O1579  O     0.75520   0.91441   0.89721   0.00000  Uiso   1.00
O1580  O     0.68935   0.83821   0.88524   0.00000  Uiso   1.00
O1581  O     0.81064   0.82845   0.78143   0.00000  Uiso   1.00
O1582  O     0.68090   0.82843   0.78143   0.00000  Uiso   1.00
O1583  O     0.81910   0.83824   0.88523   0.00000  Uiso   1.00
O1584  O     0.87542   0.73998   0.80615   0.00000  Uiso   1.00
loop_
_geom_bond_atom_site_label_1
_geom_bond_atom_site_label_2
_geom_bond_distance
_geom_bond_site_symmetry_2
_ccdc_geom_bond_type
C1     O75     1.327   .     A
C1     O82     1.304   .     A
C1     C30     1.479   .     S
C2     C13     1.424   .     A
C2     C4      1.411   .     A
C2     Cl36    1.748   .     S
C3     C33     1.479   .     S
C3     C34     1.408   .     A
C3     C5      1.401   .     A
C4     C6      1.400   .     A
C4     C32     1.482   .     S
C5     O88     1.374   .     S
C5     C7      1.401   .     A
C6     C8      1.403   .     A
C6     O76     1.381   .     S
C7     C14     1.397   .     A
C7     C9      1.403   .     A
C8     C15     1.401   .     A
C8     C10     1.403   .     A
C9     C11     1.420   .     A
C9     C98     1.414   .     S
C10    C13     1.422   .     A
C10    C97     1.414   1_455 S
C11    C34     1.417   .     A
C11    C29     1.420   .     A
C12    O83     1.314   .     A
C12    C31     1.461   .     S
C12    O81     1.311   .     A
C13    C23     1.425   .     A
C14    H41     1.083   .     S
C14    C111    1.390   .     S
C15    H52     1.084   .     S
C15    C117    1.389   1_455 S
C16    C17     1.511   .     S
C16    H63     1.113   .     S
C16    H67     1.106   .     S
C16    O88     1.401   .     S
C17    H69     1.102   .     S
C17    H68     1.107   .     S
C17    H422    1.095   1_545 S
C18    C19     1.502   .     S
C18    H72     1.119   .     S
C18    H71     1.108   .     S
C18    O76     1.418   .     S
C19    H42     1.106   .     S
C19    H43     1.106   .     S
C19    H44     1.106   .     S
C20    O77     1.409   .     S
C20    C21     1.522   .     S
C20    H221    1.110   .     S
C20    H222    1.103   .     S
C21    H49     1.108   .     S
C21    H1103   1.109   1_554 S
C21    H1104   1.104   1_554 S
C22    H50     1.116   .     S
C22    O78     1.414   .     S
C22    C24     1.509   .     S
C22    H403    1.096   1_545 S
C23    Cl37    1.758   .     S
C23    C102    1.390   1_455 S
C24    H55     1.106   .     S
C24    H54     1.094   .     S
C24    H53     1.109   .     S
C25    H56     1.115   .     S
C25    O79     1.396   .     S
C25    C26     1.515   .     S
C25    H585    1.098   .     S
C26    H58     1.109   .     S
C26    H59     1.110   .     S
C26    H60     1.108   .     S
C27    O80     1.407   .     S
C27    C28     1.522   .     S
C27    H1117   1.108   1_554 S
C27    H1118   1.108   1_554 S
C28    H66     1.111   .     S
C28    H64     1.105   .     S
C28    H65     1.107   .     S
C29    Cl38    1.765   .     S
C29    C103    1.389   .     S
C30    C383    1.351   1_545 S
C30    O429    1.401   1_545 S
C31    C206    1.351   .     S
C31    O254    1.378   .     S
C32    O84     1.312   .     A
C32    O86     1.324   .     A
C33    O85     1.330   .     A
C33    O87     1.302   .     A
C34    Cl35    1.750   .     S
Cu39   O87     1.969   .     S
Cu39   O84     1.971   .     S
Cu39   N74     2.064   .     S
Cu39   O75     2.022   .     S
Cu39   Cu40    2.747   .     S
Cu39   O83     2.010   .     S
Cu40   O85     1.971   .     S
Cu40   N73     2.064   .     S
Cu40   O86     1.969   .     S
Cu40   O82     2.010   .     S
Cu40   O81     2.022   .     S
H45    C372    1.110   1_545 S
H46    C372    1.103   1_545 S
H47    C549    1.109   .     S
H48    C549    1.104   .     S
H51    C198    1.096   .     S
H57    C1081   1.098   1_554 S
H61    C555    1.108   .     S
H62    C555    1.108   .     S
H70    C193    1.095   .     S
N73    N1130   1.318   1_554 S
N73    O1135   1.344   1_554 S
N74    N601    1.318   .     S
N74    O608    1.350   .     S
O77    C206    1.401   .     S
O78    C383    1.378   1_545 S
O79    N601    1.344   .     S
O80    N1130   1.350   1_554 S
C89    O163    1.327   .     A
C89    O170    1.304   .     A
C89    C118    1.479   .     S
C90    C101    1.424   .     A
C90    C92     1.411   .     A
C90    Cl124   1.748   .     S
C91    C121    1.479   .     S
C91    C122    1.408   .     A
C91    C93     1.401   .     A
C92    C94     1.400   .     A
C92    C120    1.482   .     S
C93    O176    1.374   .     S
C93    C95     1.401   .     A
C94    C96     1.403   .     A
C94    O164    1.381   .     S
C95    C102    1.397   .     A
C95    C97     1.403   .     A
C96    C103    1.401   .     A
C96    C98     1.403   .     A
C97    C99     1.420   .     A
C97    C10     1.414   1_655 S
C98    C101    1.422   .     A
C99    C122    1.417   .     A
C99    C117    1.420   .     A
C100   O171    1.314   .     A
C100   C119    1.461   .     S
C100   O169    1.311   .     A
C101   C111    1.425   .     A
C102   H129    1.083   .     S
C102   C23     1.390   1_655 S
C103   H140    1.084   .     S
C104   C105    1.511   .     S
C104   H151    1.113   .     S
C104   H155    1.106   .     S
C104   O176    1.401   .     S
C105   H157    1.102   .     S
C105   H156    1.107   .     S
C105   H510    1.095   1_545 S
C106   C107    1.502   .     S
C106   H160    1.119   .     S
C106   H159    1.108   .     S
C106   O164    1.418   .     S
C107   H130    1.106   .     S
C107   H131    1.106   .     S
C107   H132    1.106   .     S
C108   O165    1.409   .     S
C108   C109    1.522   .     S
C108   H309    1.110   .     S
C108   H310    1.103   .     S
C109   H137    1.108   .     S
C109   H1191   1.109   1_554 S
C109   H1192   1.104   1_554 S
C110   H138    1.116   .     S
C110   O166    1.414   .     S
C110   C112    1.509   .     S
C110   H491    1.096   1_545 S
C111   Cl125   1.758   .     S
C112   H143    1.106   .     S
C112   H142    1.094   .     S
C112   H141    1.109   .     S
C113   H144    1.115   .     S
C113   O167    1.396   .     S
C113   C114    1.515   .     S
C113   H673    1.098   .     S
C114   H146    1.109   .     S
C114   H147    1.110   .     S
C114   H148    1.108   .     S
C115   O168    1.407   .     S
C115   C116    1.522   .     S
C115   H1205   1.108   1_554 S
C115   H1206   1.108   1_554 S
C116   H154    1.111   .     S
C116   H152    1.105   .     S
C116   H153    1.107   .     S
C117   Cl126   1.765   .     S
C117   C15     1.389   1_655 S
C118   C471    1.351   1_545 S
C118   O517    1.401   1_545 S
C119   C294    1.351   .     S
C119   O342    1.378   .     S
C120   O172    1.312   .     A
C120   O174    1.324   .     A
C121   O173    1.330   .     A
C121   O175    1.302   .     A
C122   Cl123   1.750   .     S
Cu127  O175    1.969   .     S
Cu127  O172    1.971   .     S
Cu127  N162    2.064   .     S
Cu127  O163    2.022   .     S
Cu127  Cu128   2.747   .     S
Cu127  O171    2.010   .     S
Cu128  O173    1.971   .     S
Cu128  N161    2.064   .     S
Cu128  O174    1.969   .     S
Cu128  O170    2.010   .     S
Cu128  O169    2.022   .     S
H133   C460    1.110   1_545 S
H134   C460    1.103   1_545 S
H135   C637    1.109   .     S
H136   C637    1.104   .     S
H139   C286    1.096   .     S
H145   C1169   1.098   1_554 S
H149   C643    1.108   .     S
H150   C643    1.108   .     S
H158   C281    1.095   .     S
N161   N1218   1.318   1_554 S
N161   O1223   1.344   1_554 S
N162   N689    1.318   .     S
N162   O696    1.350   .     S
O165   C294    1.401   .     S
O166   C471    1.378   1_545 S
O167   N689    1.344   .     S
O168   N1218   1.350   1_554 S
C177   O251    1.327   .     A
C177   O258    1.304   .     A
C177   C206    1.479   .     S
C178   C189    1.424   .     A
C178   C180    1.411   .     A
C178   Cl212   1.748   .     S
C179   C209    1.479   .     S
C179   C210    1.408   .     A
C179   C181    1.401   .     A
C180   C182    1.400   .     A
C180   C208    1.482   .     S
C181   O264    1.374   .     S
C181   C183    1.401   .     A
C182   C184    1.403   .     A
C182   O252    1.381   .     S
C183   C190    1.397   .     A
C183   C185    1.403   .     A
C184   C191    1.401   .     A
C184   C186    1.403   .     A
C185   C187    1.420   .     A
C185   C274    1.414   .     S
C186   C189    1.422   .     A
C186   C273    1.414   1_455 S
C187   C210    1.417   .     A
C187   C205    1.420   .     A
C188   O259    1.314   .     A
C188   C207    1.461   .     S
C188   O257    1.311   .     A
C189   C199    1.425   .     A
C190   H217    1.083   .     S
C190   C287    1.390   .     S
C191   H228    1.084   .     S
C191   C293    1.389   1_455 S
C192   C193    1.511   .     S
C192   H239    1.113   .     S
C192   H243    1.106   .     S
C192   O264    1.401   .     S
C193   H245    1.102   .     S
C193   H244    1.107   .     S
C194   C195    1.502   .     S
C194   H248    1.119   .     S
C194   H247    1.108   .     S
C194   O252    1.418   .     S
C195   H218    1.106   .     S
C195   H219    1.106   .     S
C195   H220    1.106   .     S
C196   O253    1.409   .     S
C196   C197    1.522   .     S
C196   H397    1.110   .     S
C196   H398    1.103   .     S
C197   H225    1.108   .     S
C197   H1279   1.109   1_554 S
C197   H1280   1.104   1_554 S
C198   H226    1.116   .     S
C198   O254    1.414   .     S
C198   C200    1.509   .     S
C199   Cl213   1.758   .     S
C199   C278    1.390   1_455 S
C200   H231    1.106   .     S
C200   H230    1.094   .     S
C200   H229    1.109   .     S
C201   H232    1.115   .     S
C201   O255    1.396   .     S
C201   C202    1.515   .     S
C201   H761    1.098   .     S
C202   H234    1.109   .     S
C202   H235    1.110   .     S
C202   H236    1.108   .     S
C203   O256    1.407   .     S
C203   C204    1.522   .     S
C203   H1293   1.108   1_554 S
C203   H1294   1.108   1_554 S
C204   H242    1.111   .     S
C204   H240    1.105   .     S
C204   H241    1.107   .     S
C205   Cl214   1.765   .     S
C205   C279    1.389   .     S
C207   C382    1.351   .     S
C207   O430    1.378   .     S
C208   O260    1.312   .     A
C208   O262    1.324   .     A
C209   O261    1.330   .     A
C209   O263    1.302   .     A
C210   Cl211   1.750   .     S
Cu215  O263    1.969   .     S
Cu215  O260    1.971   .     S
Cu215  N250    2.064   .     S
Cu215  O251    2.022   .     S
Cu215  Cu216   2.747   .     S
Cu215  O259    2.010   .     S
Cu216  O261    1.971   .     S
Cu216  N249    2.064   .     S
Cu216  O262    1.969   .     S
Cu216  O258    2.010   .     S
Cu216  O257    2.022   .     S
H223   C725    1.109   .     S
H224   C725    1.104   .     S
H227   C374    1.096   .     S
H233   C1257   1.098   1_554 S
H237   C731    1.108   .     S
H238   C731    1.108   .     S
H246   C369    1.095   .     S
N249   N1306   1.318   1_554 S
N249   O1311   1.344   1_554 S
N250   N777    1.318   .     S
N250   O784    1.350   .     S
O253   C382    1.401   .     S
O255   N777    1.344   .     S
O256   N1306   1.350   1_554 S
C265   O339    1.327   .     A
C265   O346    1.304   .     A
C265   C294    1.479   .     S
C266   C277    1.424   .     A
C266   C268    1.411   .     A
C266   Cl300   1.748   .     S
C267   C297    1.479   .     S
C267   C298    1.408   .     A
C267   C269    1.401   .     A
C268   C270    1.400   .     A
C268   C296    1.482   .     S
C269   O352    1.374   .     S
C269   C271    1.401   .     A
C270   C272    1.403   .     A
C270   O340    1.381   .     S
C271   C278    1.397   .     A
C271   C273    1.403   .     A
C272   C279    1.401   .     A
C272   C274    1.403   .     A
C273   C275    1.420   .     A
C273   C186    1.414   1_655 S
C274   C277    1.422   .     A
C275   C298    1.417   .     A
C275   C293    1.420   .     A
C276   O347    1.314   .     A
C276   C295    1.461   .     S
C276   O345    1.311   .     A
C277   C287    1.425   .     A
C278   H305    1.083   .     S
C278   C199    1.390   1_655 S
C279   H316    1.084   .     S
C280   C281    1.511   .     S
C280   H327    1.113   .     S
C280   H331    1.106   .     S
C280   O352    1.401   .     S
C281   H333    1.102   .     S
C281   H332    1.107   .     S
C282   C283    1.502   .     S
C282   H336    1.119   .     S
C282   H335    1.108   .     S
C282   O340    1.418   .     S
C283   H306    1.106   .     S
C283   H307    1.106   .     S
C283   H308    1.106   .     S
C284   O341    1.409   .     S
C284   C285    1.522   .     S
C284   H485    1.110   .     S
C284   H486    1.103   .     S
C285   H313    1.108   .     S
C285   H1367   1.109   1_554 S
C285   H1368   1.104   1_554 S
C286   H314    1.116   .     S
C286   O342    1.414   .     S
C286   C288    1.509   .     S
C287   Cl301   1.758   .     S
C288   H319    1.106   .     S
C288   H318    1.094   .     S
C288   H317    1.109   .     S
C289   H320    1.115   .     S
C289   O343    1.396   .     S
C289   C290    1.515   .     S
C289   H849    1.098   .     S
C290   H322    1.109   .     S
C290   H323    1.110   .     S
C290   H324    1.108   .     S
C291   O344    1.407   .     S
C291   C292    1.522   .     S
C291   H1381   1.108   1_554 S
C291   H1382   1.108   1_554 S
C292   H330    1.111   .     S
C292   H328    1.105   .     S
C292   H329    1.107   .     S
C293   Cl302   1.765   .     S
C293   C191    1.389   1_655 S
C295   C470    1.351   .     S
C295   O518    1.378   .     S
C296   O348    1.312   .     A
C296   O350    1.324   .     A
C297   O349    1.330   .     A
C297   O351    1.302   .     A
C298   Cl299   1.750   .     S
Cu303  O351    1.969   .     S
Cu303  O348    1.971   .     S
Cu303  N338    2.064   .     S
Cu303  O339    2.022   .     S
Cu303  Cu304   2.747   .     S
Cu303  O347    2.010   .     S
Cu304  O349    1.971   .     S
Cu304  N337    2.064   .     S
Cu304  O350    1.969   .     S
Cu304  O346    2.010   .     S
Cu304  O345    2.022   .     S
H311   C813    1.109   .     S
H312   C813    1.104   .     S
H315   C462    1.096   .     S
H321   C1345   1.098   1_554 S
H325   C819    1.108   .     S
H326   C819    1.108   .     S
H334   C457    1.095   .     S
N337   N1394   1.318   1_554 S
N337   O1399   1.344   1_554 S
N338   N865    1.318   .     S
N338   O872    1.350   .     S
O341   C470    1.401   .     S
O343   N865    1.344   .     S
O344   N1394   1.350   1_554 S
C353   O427    1.327   .     A
C353   O434    1.304   .     A
C353   C382    1.479   .     S
C354   C365    1.424   .     A
C354   C356    1.411   .     A
C354   Cl388   1.748   .     S
C355   C385    1.479   .     S
C355   C386    1.408   .     A
C355   C357    1.401   .     A
C356   C358    1.400   .     A
C356   C384    1.482   .     S
C357   O440    1.374   .     S
C357   C359    1.401   .     A
C358   C360    1.403   .     A
C358   O428    1.381   .     S
C359   C366    1.397   .     A
C359   C361    1.403   .     A
C360   C367    1.401   .     A
C360   C362    1.403   .     A
C361   C363    1.420   .     A
C361   C450    1.414   .     S
C362   C365    1.422   .     A
C362   C449    1.414   1_455 S
C363   C386    1.417   .     A
C363   C381    1.420   .     A
C364   O435    1.314   .     A
C364   C383    1.461   .     S
C364   O433    1.311   .     A
C365   C375    1.425   .     A
C366   H393    1.083   .     S
C366   C463    1.390   .     S
C367   H404    1.084   .     S
C367   C469    1.389   1_455 S
C368   C369    1.511   .     S
C368   H415    1.113   .     S
C368   H419    1.106   .     S
C368   O440    1.401   .     S
C369   H421    1.102   .     S
C369   H420    1.107   .     S
C370   C371    1.502   .     S
C370   H424    1.119   .     S
C370   H423    1.108   .     S
C370   O428    1.418   .     S
C371   H394    1.106   .     S
C371   H395    1.106   .     S
C371   H396    1.106   .     S
C372   O429    1.409   .     S
C372   C373    1.522   .     S
C372   H45     1.110   1_565 S
C372   H46     1.103   1_565 S
C373   H401    1.108   .     S
C373   H1455   1.109   1_554 S
C373   H1456   1.104   1_554 S
C374   H402    1.116   .     S
C374   O430    1.414   .     S
C374   C376    1.509   .     S
C375   Cl389   1.758   .     S
C375   C454    1.390   1_455 S
C376   H407    1.106   .     S
C376   H406    1.094   .     S
C376   H405    1.109   .     S
C377   H408    1.115   .     S
C377   O431    1.396   .     S
C377   C378    1.515   .     S
C377   H937    1.098   .     S
C378   H410    1.109   .     S
C378   H411    1.110   .     S
C378   H412    1.108   .     S
C379   O432    1.407   .     S
C379   C380    1.522   .     S
C379   H1469   1.108   1_554 S
C379   H1470   1.108   1_554 S
C380   H418    1.111   .     S
C380   H416    1.105   .     S
C380   H417    1.107   .     S
C381   Cl390   1.765   .     S
C381   C455    1.389   .     S
C383   C30     1.351   1_565 S
C383   O78     1.378   1_565 S
C384   O436    1.312   .     A
C384   O438    1.324   .     A
C385   O437    1.330   .     A
C385   O439    1.302   .     A
C386   Cl387   1.750   .     S
Cu391  O439    1.969   .     S
Cu391  O436    1.971   .     S
Cu391  N426    2.064   .     S
Cu391  O427    2.022   .     S
Cu391  Cu392   2.747   .     S
Cu391  O435    2.010   .     S
Cu392  O437    1.971   .     S
Cu392  N425    2.064   .     S
Cu392  O438    1.969   .     S
Cu392  O434    2.010   .     S
Cu392  O433    2.022   .     S
H399   C901    1.109   .     S
H400   C901    1.104   .     S
H403   C22     1.096   1_565 S
H409   C1433   1.098   1_554 S
H413   C907    1.108   .     S
H414   C907    1.108   .     S
H422   C17     1.095   1_565 S
N425   N1482   1.318   1_554 S
N425   O1487   1.344   1_554 S
N426   N953    1.318   .     S
N426   O960    1.350   .     S
O429   C30     1.401   1_565 S
O431   N953    1.344   .     S
O432   N1482   1.350   1_554 S
C441   O515    1.327   .     A
C441   O522    1.304   .     A
C441   C470    1.479   .     S
C442   C453    1.424   .     A
C442   C444    1.411   .     A
C442   Cl476   1.748   .     S
C443   C473    1.479   .     S
C443   C474    1.408   .     A
C443   C445    1.401   .     A
C444   C446    1.400   .     A
C444   C472    1.482   .     S
C445   O528    1.374   .     S
C445   C447    1.401   .     A
C446   C448    1.403   .     A
C446   O516    1.381   .     S
C447   C454    1.397   .     A
C447   C449    1.403   .     A
C448   C455    1.401   .     A
C448   C450    1.403   .     A
C449   C451    1.420   .     A
C449   C362    1.414   1_655 S
C450   C453    1.422   .     A
C451   C474    1.417   .     A
C451   C469    1.420   .     A
C452   O523    1.314   .     A
C452   C471    1.461   .     S
C452   O521    1.311   .     A
C453   C463    1.425   .     A
C454   H481    1.083   .     S
C454   C375    1.390   1_655 S
C455   H492    1.084   .     S
C456   C457    1.511   .     S
C456   H503    1.113   .     S
C456   H507    1.106   .     S
C456   O528    1.401   .     S
C457   H509    1.102   .     S
C457   H508    1.107   .     S
C458   C459    1.502   .     S
C458   H512    1.119   .     S
C458   H511    1.108   .     S
C458   O516    1.418   .     S
C459   H482    1.106   .     S
C459   H483    1.106   .     S
C459   H484    1.106   .     S
C460   O517    1.409   .     S
C460   C461    1.522   .     S
C460   H133    1.110   1_565 S
C460   H134    1.103   1_565 S
C461   H489    1.108   .     S
C461   H1543   1.109   1_554 S
C461   H1544   1.104   1_554 S
C462   H490    1.116   .     S
C462   O518    1.414   .     S
C462   C464    1.509   .     S
C463   Cl477   1.758   .     S
C464   H495    1.106   .     S
C464   H494    1.094   .     S
C464   H493    1.109   .     S
C465   H496    1.115   .     S
C465   O519    1.396   .     S
C465   C466    1.515   .     S
C465   H1025   1.098   .     S
C466   H498    1.109   .     S
C466   H499    1.110   .     S
C466   H500    1.108   .     S
C467   O520    1.407   .     S
C467   C468    1.522   .     S
C467   H1557   1.108   1_554 S
C467   H1558   1.108   1_554 S
C468   H506    1.111   .     S
C468   H504    1.105   .     S
C468   H505    1.107   .     S
C469   Cl478   1.765   .     S
C469   C367    1.389   1_655 S
C471   C118    1.351   1_565 S
C471   O166    1.378   1_565 S
C472   O524    1.312   .     A
C472   O526    1.324   .     A
C473   O525    1.330   .     A
C473   O527    1.302   .     A
C474   Cl475   1.750   .     S
Cu479  O527    1.969   .     S
Cu479  O524    1.971   .     S
Cu479  N514    2.064   .     S
Cu479  O515    2.022   .     S
Cu479  Cu480   2.747   .     S
Cu479  O523    2.010   .     S
Cu480  O525    1.971   .     S
Cu480  N513    2.064   .     S
Cu480  O526    1.969   .     S
Cu480  O522    2.010   .     S
Cu480  O521    2.022   .     S
H487   C989    1.109   .     S
H488   C989    1.104   .     S
H491   C110    1.096   1_565 S
H497   C1521   1.098   1_554 S
H501   C995    1.108   .     S
H502   C995    1.108   .     S
H510   C105    1.095   1_565 S
N513   N1570   1.318   1_554 S
N513   O1575   1.344   1_554 S
N514   N1041   1.318   .     S
N514   O1048   1.350   .     S
O517   C118    1.401   1_565 S
O519   N1041   1.344   .     S
O520   N1570   1.350   1_554 S
C529   O603    1.327   .     A
C529   O610    1.304   .     A
C529   C558    1.479   .     S
C530   C541    1.424   .     A
C530   C532    1.411   .     A
C530   Cl564   1.748   .     S
C531   C561    1.479   .     S
C531   C562    1.408   .     A
C531   C533    1.401   .     A
C532   C534    1.400   .     A
C532   C560    1.482   .     S
C533   O616    1.374   .     S
C533   C535    1.401   .     A
C534   C536    1.403   .     A
C534   O604    1.381   .     S
C535   C542    1.397   .     A
C535   C537    1.403   .     A
C536   C543    1.401   .     A
C536   C538    1.403   .     A
C537   C539    1.420   .     A
C537   C626    1.414   .     S
C538   C541    1.422   .     A
C538   C625    1.414   1_455 S
C539   C562    1.417   .     A
C539   C557    1.420   .     A
C540   O611    1.314   .     A
C540   C559    1.461   .     S
C540   O609    1.311   .     A
C541   C551    1.425   .     A
C542   H569    1.083   .     S
C542   C639    1.390   .     S
C543   H580    1.084   .     S
C543   C645    1.389   1_455 S
C544   C545    1.511   .     S
C544   H591    1.113   .     S
C544   H595    1.106   .     S
C544   O616    1.401   .     S
C545   H597    1.102   .     S
C545   H596    1.107   .     S
C545   H950    1.095   1_545 S
C546   C547    1.502   .     S
C546   H600    1.119   .     S
C546   H599    1.108   .     S
C546   O604    1.418   .     S
C547   H570    1.106   .     S
C547   H571    1.106   .     S
C547   H572    1.106   .     S
C548   O605    1.409   .     S
C548   C549    1.522   .     S
C548   H749    1.110   .     S
C548   H750    1.103   .     S
C549   H577    1.108   .     S
C550   H578    1.116   .     S
C550   O606    1.414   .     S
C550   C552    1.509   .     S
C550   H931    1.096   1_545 S
C551   Cl565   1.758   .     S
C551   C630    1.390   1_455 S
C552   H583    1.106   .     S
C552   H582    1.094   .     S
C552   H581    1.109   .     S
C553   H584    1.115   .     S
C553   O607    1.396   .     S
C553   C554    1.515   .     S
C553   H1113   1.098   .     S
C554   H586    1.109   .     S
C554   H587    1.110   .     S
C554   H588    1.108   .     S
C555   O608    1.407   .     S
C555   C556    1.522   .     S
C556   H594    1.111   .     S
C556   H592    1.105   .     S
C556   H593    1.107   .     S
C557   Cl566   1.765   .     S
C557   C631    1.389   .     S
C558   C911    1.351   1_545 S
C558   O957    1.401   1_545 S
C559   C734    1.351   .     S
C559   O782    1.378   .     S
C560   O612    1.312   .     A
C560   O614    1.324   .     A
C561   O613    1.330   .     A
C561   O615    1.302   .     A
C562   Cl563   1.750   .     S
Cu567  O615    1.969   .     S
Cu567  O612    1.971   .     S
Cu567  N602    2.064   .     S
Cu567  O603    2.022   .     S
Cu567  Cu568   2.747   .     S
Cu567  O611    2.010   .     S
Cu568  O613    1.971   .     S
Cu568  N601    2.064   .     S
Cu568  O614    1.969   .     S
Cu568  O610    2.010   .     S
Cu568  O609    2.022   .     S
H573   C900    1.110   1_545 S
H574   C900    1.103   1_545 S
H575   C1077   1.109   .     S
H576   C1077   1.104   .     S
H579   C726    1.096   .     S
H589   C1083   1.108   .     S
H590   C1083   1.108   .     S
H598   C721    1.095   .     S
N602   N1129   1.318   .     S
N602   O1136   1.350   .     S
O605   C734    1.401   .     S
O606   C911    1.378   1_545 S
O607   N1129   1.344   .     S
C617   O691    1.327   .     A
C617   O698    1.304   .     A
C617   C646    1.479   .     S
C618   C629    1.424   .     A
C618   C620    1.411   .     A
C618   Cl652   1.748   .     S
C619   C649    1.479   .     S
C619   C650    1.408   .     A
C619   C621    1.401   .     A
C620   C622    1.400   .     A
C620   C648    1.482   .     S
C621   O704    1.374   .     S
C621   C623    1.401   .     A
C622   C624    1.403   .     A
C622   O692    1.381   .     S
C623   C630    1.397   .     A
C623   C625    1.403   .     A
C624   C631    1.401   .     A
C624   C626    1.403   .     A
C625   C627    1.420   .     A
C625   C538    1.414   1_655 S
C626   C629    1.422   .     A
C627   C650    1.417   .     A
C627   C645    1.420   .     A
C628   O699    1.314   .     A
C628   C647    1.461   .     S
C628   O697    1.311   .     A
C629   C639    1.425   .     A
C630   H657    1.083   .     S
C630   C551    1.390   1_655 S
C631   H668    1.084   .     S
C632   C633    1.511   .     S
C632   H679    1.113   .     S
C632   H683    1.106   .     S
C632   O704    1.401   .     S
C633   H685    1.102   .     S
C633   H684    1.107   .     S
C633   H1038   1.095   1_545 S
C634   C635    1.502   .     S
C634   H688    1.119   .     S
C634   H687    1.108   .     S
C634   O692    1.418   .     S
C635   H658    1.106   .     S
C635   H659    1.106   .     S
C635   H660    1.106   .     S
C636   O693    1.409   .     S
C636   C637    1.522   .     S
C636   H837    1.110   .     S
C636   H838    1.103   .     S
C637   H665    1.108   .     S
C638   H666    1.116   .     S
C638   O694    1.414   .     S
C638   C640    1.509   .     S
C638   H1019   1.096   1_545 S
C639   Cl653   1.758   .     S
C640   H671    1.106   .     S
C640   H670    1.094   .     S
C640   H669    1.109   .     S
C641   H672    1.115   .     S
C641   O695    1.396   .     S
C641   C642    1.515   .     S
C641   H1201   1.098   .     S
C642   H674    1.109   .     S
C642   H675    1.110   .     S
C642   H676    1.108   .     S
C643   O696    1.407   .     S
C643   C644    1.522   .     S
C644   H682    1.111   .     S
C644   H680    1.105   .     S
C644   H681    1.107   .     S
C645   Cl654   1.765   .     S
C645   C543    1.389   1_655 S
C646   C999    1.351   1_545 S
C646   O1045   1.401   1_545 S
C647   C822    1.351   .     S
C647   O870    1.378   .     S
C648   O700    1.312   .     A
C648   O702    1.324   .     A
C649   O701    1.330   .     A
C649   O703    1.302   .     A
C650   Cl651   1.750   .     S
Cu655  O703    1.969   .     S
Cu655  O700    1.971   .     S
Cu655  N690    2.064   .     S
Cu655  O691    2.022   .     S
Cu655  Cu656   2.747   .     S
Cu655  O699    2.010   .     S
Cu656  O701    1.971   .     S
Cu656  N689    2.064   .     S
Cu656  O702    1.969   .     S
Cu656  O698    2.010   .     S
Cu656  O697    2.022   .     S
H661   C988    1.110   1_545 S
H662   C988    1.103   1_545 S
H663   C1165   1.109   .     S
H664   C1165   1.104   .     S
H667   C814    1.096   .     S
H677   C1171   1.108   .     S
H678   C1171   1.108   .     S
H686   C809    1.095   .     S
N690   N1217   1.318   .     S
N690   O1224   1.350   .     S
O693   C822    1.401   .     S
O694   C999    1.378   1_545 S
O695   N1217   1.344   .     S
C705   O779    1.327   .     A
C705   O786    1.304   .     A
C705   C734    1.479   .     S
C706   C717    1.424   .     A
C706   C708    1.411   .     A
C706   Cl740   1.748   .     S
C707   C737    1.479   .     S
C707   C738    1.408   .     A
C707   C709    1.401   .     A
C708   C710    1.400   .     A
C708   C736    1.482   .     S
C709   O792    1.374   .     S
C709   C711    1.401   .     A
C710   C712    1.403   .     A
C710   O780    1.381   .     S
C711   C718    1.397   .     A
C711   C713    1.403   .     A
C712   C719    1.401   .     A
C712   C714    1.403   .     A
C713   C715    1.420   .     A
C713   C802    1.414   .     S
C714   C717    1.422   .     A
C714   C801    1.414   1_455 S
C715   C738    1.417   .     A
C715   C733    1.420   .     A
C716   O787    1.314   .     A
C716   C735    1.461   .     S
C716   O785    1.311   .     A
C717   C727    1.425   .     A
C718   H745    1.083   .     S
C718   C815    1.390   .     S
C719   H756    1.084   .     S
C719   C821    1.389   1_455 S
C720   C721    1.511   .     S
C720   H767    1.113   .     S
C720   H771    1.106   .     S
C720   O792    1.401   .     S
C721   H773    1.102   .     S
C721   H772    1.107   .     S
C722   C723    1.502   .     S
C722   H776    1.119   .     S
C722   H775    1.108   .     S
C722   O780    1.418   .     S
C723   H746    1.106   .     S
C723   H747    1.106   .     S
C723   H748    1.106   .     S
C724   O781    1.409   .     S
C724   C725    1.522   .     S
C724   H925    1.110   .     S
C724   H926    1.103   .     S
C725   H753    1.108   .     S
C726   H754    1.116   .     S
C726   O782    1.414   .     S
C726   C728    1.509   .     S
C727   Cl741   1.758   .     S
C727   C806    1.390   1_455 S
C728   H759    1.106   .     S
C728   H758    1.094   .     S
C728   H757    1.109   .     S
C729   H760    1.115   .     S
C729   O783    1.396   .     S
C729   C730    1.515   .     S
C729   H1289   1.098   .     S
C730   H762    1.109   .     S
C730   H763    1.110   .     S
C730   H764    1.108   .     S
C731   O784    1.407   .     S
C731   C732    1.522   .     S
C732   H770    1.111   .     S
C732   H768    1.105   .     S
C732   H769    1.107   .     S
C733   Cl742   1.765   .     S
C733   C807    1.389   .     S
C735   C910    1.351   .     S
C735   O958    1.378   .     S
C736   O788    1.312   .     A
C736   O790    1.324   .     A
C737   O789    1.330   .     A
C737   O791    1.302   .     A
C738   Cl739   1.750   .     S
Cu743  O791    1.969   .     S
Cu743  O788    1.971   .     S
Cu743  N778    2.064   .     S
Cu743  O779    2.022   .     S
Cu743  Cu744   2.747   .     S
Cu743  O787    2.010   .     S
Cu744  O789    1.971   .     S
Cu744  N777    2.064   .     S
Cu744  O790    1.969   .     S
Cu744  O786    2.010   .     S
Cu744  O785    2.022   .     S
H751   C1253   1.109   .     S
H752   C1253   1.104   .     S
H755   C902    1.096   .     S
H765   C1259   1.108   .     S
H766   C1259   1.108   .     S
H774   C897    1.095   .     S
N778   N1305   1.318   .     S
N778   O1312   1.350   .     S
O781   C910    1.401   .     S
O783   N1305   1.344   .     S
C793   O867    1.327   .     A
C793   O874    1.304   .     A
C793   C822    1.479   .     S
C794   C805    1.424   .     A
C794   C796    1.411   .     A
C794   Cl828   1.748   .     S
C795   C825    1.479   .     S
C795   C826    1.408   .     A
C795   C797    1.401   .     A
C796   C798    1.400   .     A
C796   C824    1.482   .     S
C797   O880    1.374   .     S
C797   C799    1.401   .     A
C798   C800    1.403   .     A
C798   O868    1.381   .     S
C799   C806    1.397   .     A
C799   C801    1.403   .     A
C800   C807    1.401   .     A
C800   C802    1.403   .     A
C801   C803    1.420   .     A
C801   C714    1.414   1_655 S
C802   C805    1.422   .     A
C803   C826    1.417   .     A
C803   C821    1.420   .     A
C804   O875    1.314   .     A
C804   C823    1.461   .     S
C804   O873    1.311   .     A
C805   C815    1.425   .     A
C806   H833    1.083   .     S
C806   C727    1.390   1_655 S
C807   H844    1.084   .     S
C808   C809    1.511   .     S
C808   H855    1.113   .     S
C808   H859    1.106   .     S
C808   O880    1.401   .     S
C809   H861    1.102   .     S
C809   H860    1.107   .     S
C810   C811    1.502   .     S
C810   H864    1.119   .     S
C810   H863    1.108   .     S
C810   O868    1.418   .     S
C811   H834    1.106   .     S
C811   H835    1.106   .     S
C811   H836    1.106   .     S
C812   O869    1.409   .     S
C812   C813    1.522   .     S
C812   H1013   1.110   .     S
C812   H1014   1.103   .     S
C813   H841    1.108   .     S
C814   H842    1.116   .     S
C814   O870    1.414   .     S
C814   C816    1.509   .     S
C815   Cl829   1.758   .     S
C816   H847    1.106   .     S
C816   H846    1.094   .     S
C816   H845    1.109   .     S
C817   H848    1.115   .     S
C817   O871    1.396   .     S
C817   C818    1.515   .     S
C817   H1377   1.098   .     S
C818   H850    1.109   .     S
C818   H851    1.110   .     S
C818   H852    1.108   .     S
C819   O872    1.407   .     S
C819   C820    1.522   .     S
C820   H858    1.111   .     S
C820   H856    1.105   .     S
C820   H857    1.107   .     S
C821   Cl830   1.765   .     S
C821   C719    1.389   1_655 S
C823   C998    1.351   .     S
C823   O1046   1.378   .     S
C824   O876    1.312   .     A
C824   O878    1.324   .     A
C825   O877    1.330   .     A
C825   O879    1.302   .     A
C826   Cl827   1.750   .     S
Cu831  O879    1.969   .     S
Cu831  O876    1.971   .     S
Cu831  N866    2.064   .     S
Cu831  O867    2.022   .     S
Cu831  Cu832   2.747   .     S
Cu831  O875    2.010   .     S
Cu832  O877    1.971   .     S
Cu832  N865    2.064   .     S
Cu832  O878    1.969   .     S
Cu832  O874    2.010   .     S
Cu832  O873    2.022   .     S
H839   C1341   1.109   .     S
H840   C1341   1.104   .     S
H843   C990    1.096   .     S
H853   C1347   1.108   .     S
H854   C1347   1.108   .     S
H862   C985    1.095   .     S
N866   N1393   1.318   .     S
N866   O1400   1.350   .     S
O869   C998    1.401   .     S
O871   N1393   1.344   .     S
C881   O955    1.327   .     A
C881   O962    1.304   .     A
C881   C910    1.479   .     S
C882   C893    1.424   .     A
C882   C884    1.411   .     A
C882   Cl916   1.748   .     S
C883   C913    1.479   .     S
C883   C914    1.408   .     A
C883   C885    1.401   .     A
C884   C886    1.400   .     A
C884   C912    1.482   .     S
C885   O968    1.374   .     S
C885   C887    1.401   .     A
C886   C888    1.403   .     A
C886   O956    1.381   .     S
C887   C894    1.397   .     A
C887   C889    1.403   .     A
C888   C895    1.401   .     A
C888   C890    1.403   .     A
C889   C891    1.420   .     A
C889   C978    1.414   .     S
C890   C893    1.422   .     A
C890   C977    1.414   1_455 S
C891   C914    1.417   .     A
C891   C909    1.420   .     A
C892   O963    1.314   .     A
C892   C911    1.461   .     S
C892   O961    1.311   .     A
C893   C903    1.425   .     A
C894   H921    1.083   .     S
C894   C991    1.390   .     S
C895   H932    1.084   .     S
C895   C997    1.389   1_455 S
C896   C897    1.511   .     S
C896   H943    1.113   .     S
C896   H947    1.106   .     S
C896   O968    1.401   .     S
C897   H949    1.102   .     S
C897   H948    1.107   .     S
C898   C899    1.502   .     S
C898   H952    1.119   .     S
C898   H951    1.108   .     S
C898   O956    1.418   .     S
C899   H922    1.106   .     S
C899   H923    1.106   .     S
C899   H924    1.106   .     S
C900   O957    1.409   .     S
C900   C901    1.522   .     S
C900   H573    1.110   1_565 S
C900   H574    1.103   1_565 S
C901   H929    1.108   .     S
C902   H930    1.116   .     S
C902   O958    1.414   .     S
C902   C904    1.509   .     S
C903   Cl917   1.758   .     S
C903   C982    1.390   1_455 S
C904   H935    1.106   .     S
C904   H934    1.094   .     S
C904   H933    1.109   .     S
C905   H936    1.115   .     S
C905   O959    1.396   .     S
C905   C906    1.515   .     S
C905   H1465   1.098   .     S
C906   H938    1.109   .     S
C906   H939    1.110   .     S
C906   H940    1.108   .     S
C907   O960    1.407   .     S
C907   C908    1.522   .     S
C908   H946    1.111   .     S
C908   H944    1.105   .     S
C908   H945    1.107   .     S
C909   Cl918   1.765   .     S
C909   C983    1.389   .     S
C911   C558    1.351   1_565 S
C911   O606    1.378   1_565 S
C912   O964    1.312   .     A
C912   O966    1.324   .     A
C913   O965    1.330   .     A
C913   O967    1.302   .     A
C914   Cl915   1.750   .     S
Cu919  O967    1.969   .     S
Cu919  O964    1.971   .     S
Cu919  N954    2.064   .     S
Cu919  O955    2.022   .     S
Cu919  Cu920   2.747   .     S
Cu919  O963    2.010   .     S
Cu920  O965    1.971   .     S
Cu920  N953    2.064   .     S
Cu920  O966    1.969   .     S
Cu920  O962    2.010   .     S
Cu920  O961    2.022   .     S
H927   C1429   1.109   .     S
H928   C1429   1.104   .     S
H931   C550    1.096   1_565 S
H941   C1435   1.108   .     S
H942   C1435   1.108   .     S
H950   C545    1.095   1_565 S
N954   N1481   1.318   .     S
N954   O1488   1.350   .     S
O957   C558    1.401   1_565 S
O959   N1481   1.344   .     S
C969   O1043   1.327   .     A
C969   O1050   1.304   .     A
C969   C998    1.479   .     S
C970   C981    1.424   .     A
C970   C972    1.411   .     A
C970   Cl1004  1.748   .     S
C971   C1001   1.479   .     S
C971   C1002   1.408   .     A
C971   C973    1.401   .     A
C972   C974    1.400   .     A
C972   C1000   1.482   .     S
C973   O1056   1.374   .     S
C973   C975    1.401   .     A
C974   C976    1.403   .     A
C974   O1044   1.381   .     S
C975   C982    1.397   .     A
C975   C977    1.403   .     A
C976   C983    1.401   .     A
C976   C978    1.403   .     A
C977   C979    1.420   .     A
C977   C890    1.414   1_655 S
C978   C981    1.422   .     A
C979   C1002   1.417   .     A
C979   C997    1.420   .     A
C980   O1051   1.314   .     A
C980   C999    1.461   .     S
C980   O1049   1.311   .     A
C981   C991    1.425   .     A
C982   H1009   1.083   .     S
C982   C903    1.390   1_655 S
C983   H1020   1.084   .     S
C984   C985    1.511   .     S
C984   H1031   1.113   .     S
C984   H1035   1.106   .     S
C984   O1056   1.401   .     S
C985   H1037   1.102   .     S
C985   H1036   1.107   .     S
C986   C987    1.502   .     S
C986   H1040   1.119   .     S
C986   H1039   1.108   .     S
C986   O1044   1.418   .     S
C987   H1010   1.106   .     S
C987   H1011   1.106   .     S
C987   H1012   1.106   .     S
C988   O1045   1.409   .     S
C988   C989    1.522   .     S
C988   H661    1.110   1_565 S
C988   H662    1.103   1_565 S
C989   H1017   1.108   .     S
C990   H1018   1.116   .     S
C990   O1046   1.414   .     S
C990   C992    1.509   .     S
C991   Cl1005  1.758   .     S
C992   H1023   1.106   .     S
C992   H1022   1.094   .     S
C992   H1021   1.109   .     S
C993   H1024   1.115   .     S
C993   O1047   1.396   .     S
C993   C994    1.515   .     S
C993   H1553   1.098   .     S
C994   H1026   1.109   .     S
C994   H1027   1.110   .     S
C994   H1028   1.108   .     S
C995   O1048   1.407   .     S
C995   C996    1.522   .     S
C996   H1034   1.111   .     S
C996   H1032   1.105   .     S
C996   H1033   1.107   .     S
C997   Cl1006  1.765   .     S
C997   C895    1.389   1_655 S
C999   C646    1.351   1_565 S
C999   O694    1.378   1_565 S
C1000  O1052   1.312   .     A
C1000  O1054   1.324   .     A
C1001  O1053   1.330   .     A
C1001  O1055   1.302   .     A
C1002  Cl1003  1.750   .     S
Cu1007 O1055   1.969   .     S
Cu1007 O1052   1.971   .     S
Cu1007 N1042   2.064   .     S
Cu1007 O1043   2.022   .     S
Cu1007 Cu1008  2.747   .     S
Cu1007 O1051   2.010   .     S
Cu1008 O1053   1.971   .     S
Cu1008 N1041   2.064   .     S
Cu1008 O1054   1.969   .     S
Cu1008 O1050   2.010   .     S
Cu1008 O1049   2.022   .     S
H1015  C1517   1.109   .     S
H1016  C1517   1.104   .     S
H1019  C638    1.096   1_565 S
H1029  C1523   1.108   .     S
H1030  C1523   1.108   .     S
H1038  C633    1.095   1_565 S
N1042  N1569   1.318   .     S
N1042  O1576   1.350   .     S
O1045  C646    1.401   1_565 S
O1047  N1569   1.344   .     S
C1057  O1131   1.327   .     A
C1057  O1138   1.304   .     A
C1057  C1086   1.479   .     S
C1058  C1069   1.424   .     A
C1058  C1060   1.411   .     A
C1058  Cl1092  1.748   .     S
C1059  C1089   1.479   .     S
C1059  C1090   1.408   .     A
C1059  C1061   1.401   .     A
C1060  C1062   1.400   .     A
C1060  C1088   1.482   .     S
C1061  O1144   1.374   .     S
C1061  C1063   1.401   .     A
C1062  C1064   1.403   .     A
C1062  O1132   1.381   .     S
C1063  C1070   1.397   .     A
C1063  C1065   1.403   .     A
C1064  C1071   1.401   .     A
C1064  C1066   1.403   .     A
C1065  C1067   1.420   .     A
C1065  C1154   1.414   .     S
C1066  C1069   1.422   .     A
C1066  C1153   1.414   1_455 S
C1067  C1090   1.417   .     A
C1067  C1085   1.420   .     A
C1068  O1139   1.314   .     A
C1068  C1087   1.461   .     S
C1068  O1137   1.311   .     A
C1069  C1079   1.425   .     A
C1070  H1097   1.083   .     S
C1070  C1167   1.390   .     S
C1071  H1108   1.084   .     S
C1071  C1173   1.389   1_455 S
C1072  C1073   1.511   .     S
C1072  H1119   1.113   .     S
C1072  H1123   1.106   .     S
C1072  O1144   1.401   .     S
C1073  H1125   1.102   .     S
C1073  H1124   1.107   .     S
C1073  H1478   1.095   1_545 S
C1074  C1075   1.502   .     S
C1074  H1128   1.119   .     S
C1074  H1127   1.108   .     S
C1074  O1132   1.418   .     S
C1075  H1098   1.106   .     S
C1075  H1099   1.106   .     S
C1075  H1100   1.106   .     S
C1076  O1133   1.409   .     S
C1076  C1077   1.522   .     S
C1076  H1277   1.110   .     S
C1076  H1278   1.103   .     S
C1077  H1105   1.108   .     S
C1078  H1106   1.116   .     S
C1078  O1134   1.414   .     S
C1078  C1080   1.509   .     S
C1078  H1459   1.096   1_545 S
C1079  Cl1093  1.758   .     S
C1079  C1158   1.390   1_455 S
C1080  H1111   1.106   .     S
C1080  H1110   1.094   .     S
C1080  H1109   1.109   .     S
C1081  H1112   1.115   .     S
C1081  O1135   1.396   .     S
C1081  C1082   1.515   .     S
C1081  H57     1.098   1_556 S
C1082  H1114   1.109   .     S
C1082  H1115   1.110   .     S
C1082  H1116   1.108   .     S
C1083  O1136   1.407   .     S
C1083  C1084   1.522   .     S
C1084  H1122   1.111   .     S
C1084  H1120   1.105   .     S
C1084  H1121   1.107   .     S
C1085  Cl1094  1.765   .     S
C1085  C1159   1.389   .     S
C1086  C1439   1.351   1_545 S
C1086  O1485   1.401   1_545 S
C1087  C1262   1.351   .     S
C1087  O1310   1.378   .     S
C1088  O1140   1.312   .     A
C1088  O1142   1.324   .     A
C1089  O1141   1.330   .     A
C1089  O1143   1.302   .     A
C1090  Cl1091  1.750   .     S
Cu1095 O1143   1.969   .     S
Cu1095 O1140   1.971   .     S
Cu1095 N1130   2.064   .     S
Cu1095 O1131   2.022   .     S
Cu1095 Cu1096  2.747   .     S
Cu1095 O1139   2.010   .     S
Cu1096 O1141   1.971   .     S
Cu1096 N1129   2.064   .     S
Cu1096 O1142   1.969   .     S
Cu1096 O1138   2.010   .     S
Cu1096 O1137   2.022   .     S
H1101  C1428   1.110   1_545 S
H1102  C1428   1.103   1_545 S
H1103  C21     1.109   1_556 S
H1104  C21     1.104   1_556 S
H1107  C1254   1.096   .     S
H1117  C27     1.108   1_556 S
H1118  C27     1.108   1_556 S
H1126  C1249   1.095   .     S
N1130  N73     1.318   1_556 S
N1130  O80     1.350   1_556 S
O1133  C1262   1.401   .     S
O1134  C1439   1.378   1_545 S
O1135  N73     1.344   1_556 S
C1145  O1219   1.327   .     A
C1145  O1226   1.304   .     A
C1145  C1174   1.479   .     S
C1146  C1157   1.424   .     A
C1146  C1148   1.411   .     A
C1146  Cl1180  1.748   .     S
C1147  C1177   1.479   .     S
C1147  C1178   1.408   .     A
C1147  C1149   1.401   .     A
C1148  C1150   1.400   .     A
C1148  C1176   1.482   .     S
C1149  O1232   1.374   .     S
C1149  C1151   1.401   .     A
C1150  C1152   1.403   .     A
C1150  O1220   1.381   .     S
C1151  C1158   1.397   .     A
C1151  C1153   1.403   .     A
C1152  C1159   1.401   .     A
C1152  C1154   1.403   .     A
C1153  C1155   1.420   .     A
C1153  C1066   1.414   1_655 S
C1154  C1157   1.422   .     A
C1155  C1178   1.417   .     A
C1155  C1173   1.420   .     A
C1156  O1227   1.314   .     A
C1156  C1175   1.461   .     S
C1156  O1225   1.311   .     A
C1157  C1167   1.425   .     A
C1158  H1185   1.083   .     S
C1158  C1079   1.390   1_655 S
C1159  H1196   1.084   .     S
C1160  C1161   1.511   .     S
C1160  H1207   1.113   .     S
C1160  H1211   1.106   .     S
C1160  O1232   1.401   .     S
C1161  H1213   1.102   .     S
C1161  H1212   1.107   .     S
C1161  H1566   1.095   1_545 S
C1162  C1163   1.502   .     S
C1162  H1216   1.119   .     S
C1162  H1215   1.108   .     S
C1162  O1220   1.418   .     S
C1163  H1186   1.106   .     S
C1163  H1187   1.106   .     S
C1163  H1188   1.106   .     S
C1164  O1221   1.409   .     S
C1164  C1165   1.522   .     S
C1164  H1365   1.110   .     S
C1164  H1366   1.103   .     S
C1165  H1193   1.108   .     S
C1166  H1194   1.116   .     S
C1166  O1222   1.414   .     S
C1166  C1168   1.509   .     S
C1166  H1547   1.096   1_545 S
C1167  Cl1181  1.758   .     S
C1168  H1199   1.106   .     S
C1168  H1198   1.094   .     S
C1168  H1197   1.109   .     S
C1169  H1200   1.115   .     S
C1169  O1223   1.396   .     S
C1169  C1170   1.515   .     S
C1169  H145    1.098   1_556 S
C1170  H1202   1.109   .     S
C1170  H1203   1.110   .     S
C1170  H1204   1.108   .     S
C1171  O1224   1.407   .     S
C1171  C1172   1.522   .     S
C1172  H1210   1.111   .     S
C1172  H1208   1.105   .     S
C1172  H1209   1.107   .     S
C1173  Cl1182  1.765   .     S
C1173  C1071   1.389   1_655 S
C1174  C1527   1.351   1_545 S
C1174  O1573   1.401   1_545 S
C1175  C1350   1.351   .     S
C1175  O1398   1.378   .     S
C1176  O1228   1.312   .     A
C1176  O1230   1.324   .     A
C1177  O1229   1.330   .     A
C1177  O1231   1.302   .     A
C1178  Cl1179  1.750   .     S
Cu1183 O1231   1.969   .     S
Cu1183 O1228   1.971   .     S
Cu1183 N1218   2.064   .     S
Cu1183 O1219   2.022   .     S
Cu1183 Cu1184  2.747   .     S
Cu1183 O1227   2.010   .     S
Cu1184 O1229   1.971   .     S
Cu1184 N1217   2.064   .     S
Cu1184 O1230   1.969   .     S
Cu1184 O1226   2.010   .     S
Cu1184 O1225   2.022   .     S
H1189  C1516   1.110   1_545 S
H1190  C1516   1.103   1_545 S
H1191  C109    1.109   1_556 S
H1192  C109    1.104   1_556 S
H1195  C1342   1.096   .     S
H1205  C115    1.108   1_556 S
H1206  C115    1.108   1_556 S
H1214  C1337   1.095   .     S
N1218  N161    1.318   1_556 S
N1218  O168    1.350   1_556 S
O1221  C1350   1.401   .     S
O1222  C1527   1.378   1_545 S
O1223  N161    1.344   1_556 S
C1233  O1307   1.327   .     A
C1233  O1314   1.304   .     A
C1233  C1262   1.479   .     S
C1234  C1245   1.424   .     A
C1234  C1236   1.411   .     A
C1234  Cl1268  1.748   .     S
C1235  C1265   1.479   .     S
C1235  C1266   1.408   .     A
C1235  C1237   1.401   .     A
C1236  C1238   1.400   .     A
C1236  C1264   1.482   .     S
C1237  O1320   1.374   .     S
C1237  C1239   1.401   .     A
C1238  C1240   1.403   .     A
C1238  O1308   1.381   .     S
C1239  C1246   1.397   .     A
C1239  C1241   1.403   .     A
C1240  C1247   1.401   .     A
C1240  C1242   1.403   .     A
C1241  C1243   1.420   .     A
C1241  C1330   1.414   .     S
C1242  C1245   1.422   .     A
C1242  C1329   1.414   1_455 S
C1243  C1266   1.417   .     A
C1243  C1261   1.420   .     A
C1244  O1315   1.314   .     A
C1244  C1263   1.461   .     S
C1244  O1313   1.311   .     A
C1245  C1255   1.425   .     A
C1246  H1273   1.083   .     S
C1246  C1343   1.390   .     S
C1247  H1284   1.084   .     S
C1247  C1349   1.389   1_455 S
C1248  C1249   1.511   .     S
C1248  H1295   1.113   .     S
C1248  H1299   1.106   .     S
C1248  O1320   1.401   .     S
C1249  H1301   1.102   .     S
C1249  H1300   1.107   .     S
C1250  C1251   1.502   .     S
C1250  H1304   1.119   .     S
C1250  H1303   1.108   .     S
C1250  O1308   1.418   .     S
C1251  H1274   1.106   .     S
C1251  H1275   1.106   .     S
C1251  H1276   1.106   .     S
C1252  O1309   1.409   .     S
C1252  C1253   1.522   .     S
C1252  H1453   1.110   .     S
C1252  H1454   1.103   .     S
C1253  H1281   1.108   .     S
C1254  H1282   1.116   .     S
C1254  O1310   1.414   .     S
C1254  C1256   1.509   .     S
C1255  Cl1269  1.758   .     S
C1255  C1334   1.390   1_455 S
C1256  H1287   1.106   .     S
C1256  H1286   1.094   .     S
C1256  H1285   1.109   .     S
C1257  H1288   1.115   .     S
C1257  O1311   1.396   .     S
C1257  C1258   1.515   .     S
C1257  H233    1.098   1_556 S
C1258  H1290   1.109   .     S
C1258  H1291   1.110   .     S
C1258  H1292   1.108   .     S
C1259  O1312   1.407   .     S
C1259  C1260   1.522   .     S
C1260  H1298   1.111   .     S
C1260  H1296   1.105   .     S
C1260  H1297   1.107   .     S
C1261  Cl1270  1.765   .     S
C1261  C1335   1.389   .     S
C1263  C1438   1.351   .     S
C1263  O1486   1.378   .     S
C1264  O1316   1.312   .     A
C1264  O1318   1.324   .     A
C1265  O1317   1.330   .     A
C1265  O1319   1.302   .     A
C1266  Cl1267  1.750   .     S
Cu1271 O1319   1.969   .     S
Cu1271 O1316   1.971   .     S
Cu1271 N1306   2.064   .     S
Cu1271 O1307   2.022   .     S
Cu1271 Cu1272  2.747   .     S
Cu1271 O1315   2.010   .     S
Cu1272 O1317   1.971   .     S
Cu1272 N1305   2.064   .     S
Cu1272 O1318   1.969   .     S
Cu1272 O1314   2.010   .     S
Cu1272 O1313   2.022   .     S
H1279  C197    1.109   1_556 S
H1280  C197    1.104   1_556 S
H1283  C1430   1.096   .     S
H1293  C203    1.108   1_556 S
H1294  C203    1.108   1_556 S
H1302  C1425   1.095   .     S
N1306  N249    1.318   1_556 S
N1306  O256    1.350   1_556 S
O1309  C1438   1.401   .     S
O1311  N249    1.344   1_556 S
C1321  O1395   1.327   .     A
C1321  O1402   1.304   .     A
C1321  C1350   1.479   .     S
C1322  C1333   1.424   .     A
C1322  C1324   1.411   .     A
C1322  Cl1356  1.748   .     S
C1323  C1353   1.479   .     S
C1323  C1354   1.408   .     A
C1323  C1325   1.401   .     A
C1324  C1326   1.400   .     A
C1324  C1352   1.482   .     S
C1325  O1408   1.374   .     S
C1325  C1327   1.401   .     A
C1326  C1328   1.403   .     A
C1326  O1396   1.381   .     S
C1327  C1334   1.397   .     A
C1327  C1329   1.403   .     A
C1328  C1335   1.401   .     A
C1328  C1330   1.403   .     A
C1329  C1331   1.420   .     A
C1329  C1242   1.414   1_655 S
C1330  C1333   1.422   .     A
C1331  C1354   1.417   .     A
C1331  C1349   1.420   .     A
C1332  O1403   1.314   .     A
C1332  C1351   1.461   .     S
C1332  O1401   1.311   .     A
C1333  C1343   1.425   .     A
C1334  H1361   1.083   .     S
C1334  C1255   1.390   1_655 S
C1335  H1372   1.084   .     S
C1336  C1337   1.511   .     S
C1336  H1383   1.113   .     S
C1336  H1387   1.106   .     S
C1336  O1408   1.401   .     S
C1337  H1389   1.102   .     S
C1337  H1388   1.107   .     S
C1338  C1339   1.502   .     S
C1338  H1392   1.119   .     S
C1338  H1391   1.108   .     S
C1338  O1396   1.418   .     S
C1339  H1362   1.106   .     S
C1339  H1363   1.106   .     S
C1339  H1364   1.106   .     S
C1340  O1397   1.409   .     S
C1340  C1341   1.522   .     S
C1340  H1541   1.110   .     S
C1340  H1542   1.103   .     S
C1341  H1369   1.108   .     S
C1342  H1370   1.116   .     S
C1342  O1398   1.414   .     S
C1342  C1344   1.509   .     S
C1343  Cl1357  1.758   .     S
C1344  H1375   1.106   .     S
C1344  H1374   1.094   .     S
C1344  H1373   1.109   .     S
C1345  H1376   1.115   .     S
C1345  O1399   1.396   .     S
C1345  C1346   1.515   .     S
C1345  H321    1.098   1_556 S
C1346  H1378   1.109   .     S
C1346  H1379   1.110   .     S
C1346  H1380   1.108   .     S
C1347  O1400   1.407   .     S
C1347  C1348   1.522   .     S
C1348  H1386   1.111   .     S
C1348  H1384   1.105   .     S
C1348  H1385   1.107   .     S
C1349  Cl1358  1.765   .     S
C1349  C1247   1.389   1_655 S
C1351  C1526   1.351   .     S
C1351  O1574   1.378   .     S
C1352  O1404   1.312   .     A
C1352  O1406   1.324   .     A
C1353  O1405   1.330   .     A
C1353  O1407   1.302   .     A
C1354  Cl1355  1.750   .     S
Cu1359 O1407   1.969   .     S
Cu1359 O1404   1.971   .     S
Cu1359 N1394   2.064   .     S
Cu1359 O1395   2.022   .     S
Cu1359 Cu1360  2.747   .     S
Cu1359 O1403   2.010   .     S
Cu1360 O1405   1.971   .     S
Cu1360 N1393   2.064   .     S
Cu1360 O1406   1.969   .     S
Cu1360 O1402   2.010   .     S
Cu1360 O1401   2.022   .     S
H1367  C285    1.109   1_556 S
H1368  C285    1.104   1_556 S
H1371  C1518   1.096   .     S
H1381  C291    1.108   1_556 S
H1382  C291    1.108   1_556 S
H1390  C1513   1.095   .     S
N1394  N337    1.318   1_556 S
N1394  O344    1.350   1_556 S
O1397  C1526   1.401   .     S
O1399  N337    1.344   1_556 S
C1409  O1483   1.327   .     A
C1409  O1490   1.304   .     A
C1409  C1438   1.479   .     S
C1410  C1421   1.424   .     A
C1410  C1412   1.411   .     A
C1410  Cl1444  1.748   .     S
C1411  C1441   1.479   .     S
C1411  C1442   1.408   .     A
C1411  C1413   1.401   .     A
C1412  C1414   1.400   .     A
C1412  C1440   1.482   .     S
C1413  O1496   1.374   .     S
C1413  C1415   1.401   .     A
C1414  C1416   1.403   .     A
C1414  O1484   1.381   .     S
C1415  C1422   1.397   .     A
C1415  C1417   1.403   .     A
C1416  C1423   1.401   .     A
C1416  C1418   1.403   .     A
C1417  C1419   1.420   .     A
C1417  C1506   1.414   .     S
C1418  C1421   1.422   .     A
C1418  C1505   1.414   1_455 S
C1419  C1442   1.417   .     A
C1419  C1437   1.420   .     A
C1420  O1491   1.314   .     A
C1420  C1439   1.461   .     S
C1420  O1489   1.311   .     A
C1421  C1431   1.425   .     A
C1422  H1449   1.083   .     S
C1422  C1519   1.390   .     S
C1423  H1460   1.084   .     S
C1423  C1525   1.389   1_455 S
C1424  C1425   1.511   .     S
C1424  H1471   1.113   .     S
C1424  H1475   1.106   .     S
C1424  O1496   1.401   .     S
C1425  H1477   1.102   .     S
C1425  H1476   1.107   .     S
C1426  C1427   1.502   .     S
C1426  H1480   1.119   .     S
C1426  H1479   1.108   .     S
C1426  O1484   1.418   .     S
C1427  H1450   1.106   .     S
C1427  H1451   1.106   .     S
C1427  H1452   1.106   .     S
C1428  O1485   1.409   .     S
C1428  C1429   1.522   .     S
C1428  H1101   1.110   1_565 S
C1428  H1102   1.103   1_565 S
C1429  H1457   1.108   .     S
C1430  H1458   1.116   .     S
C1430  O1486   1.414   .     S
C1430  C1432   1.509   .     S
C1431  Cl1445  1.758   .     S
C1431  C1510   1.390   1_455 S
C1432  H1463   1.106   .     S
C1432  H1462   1.094   .     S
C1432  H1461   1.109   .     S
C1433  H1464   1.115   .     S
C1433  O1487   1.396   .     S
C1433  C1434   1.515   .     S
C1433  H409    1.098   1_556 S
C1434  H1466   1.109   .     S
C1434  H1467   1.110   .     S
C1434  H1468   1.108   .     S
C1435  O1488   1.407   .     S
C1435  C1436   1.522   .     S
C1436  H1474   1.111   .     S
C1436  H1472   1.105   .     S
C1436  H1473   1.107   .     S
C1437  Cl1446  1.765   .     S
C1437  C1511   1.389   .     S
C1439  C1086   1.351   1_565 S
C1439  O1134   1.378   1_565 S
C1440  O1492   1.312   .     A
C1440  O1494   1.324   .     A
C1441  O1493   1.330   .     A
C1441  O1495   1.302   .     A
C1442  Cl1443  1.750   .     S
Cu1447 O1495   1.969   .     S
Cu1447 O1492   1.971   .     S
Cu1447 N1482   2.064   .     S
Cu1447 O1483   2.022   .     S
Cu1447 Cu1448  2.747   .     S
Cu1447 O1491   2.010   .     S
Cu1448 O1493   1.971   .     S
Cu1448 N1481   2.064   .     S
Cu1448 O1494   1.969   .     S
Cu1448 O1490   2.010   .     S
Cu1448 O1489   2.022   .     S
H1455  C373    1.109   1_556 S
H1456  C373    1.104   1_556 S
H1459  C1078   1.096   1_565 S
H1469  C379    1.108   1_556 S
H1470  C379    1.108   1_556 S
H1478  C1073   1.095   1_565 S
N1482  N425    1.318   1_556 S
N1482  O432    1.350   1_556 S
O1485  C1086   1.401   1_565 S
O1487  N425    1.344   1_556 S
C1497  O1571   1.327   .     A
C1497  O1578   1.304   .     A
C1497  C1526   1.479   .     S
C1498  C1509   1.424   .     A
C1498  C1500   1.411   .     A
C1498  Cl1532  1.748   .     S
C1499  C1529   1.479   .     S
C1499  C1530   1.408   .     A
C1499  C1501   1.401   .     A
C1500  C1502   1.400   .     A
C1500  C1528   1.482   .     S
C1501  O1584   1.374   .     S
C1501  C1503   1.401   .     A
C1502  C1504   1.403   .     A
C1502  O1572   1.381   .     S
C1503  C1510   1.397   .     A
C1503  C1505   1.403   .     A
C1504  C1511   1.401   .     A
C1504  C1506   1.403   .     A
C1505  C1507   1.420   .     A
C1505  C1418   1.414   1_655 S
C1506  C1509   1.422   .     A
C1507  C1530   1.417   .     A
C1507  C1525   1.420   .     A
C1508  O1579   1.314   .     A
C1508  C1527   1.461   .     S
C1508  O1577   1.311   .     A
C1509  C1519   1.425   .     A
C1510  H1537   1.083   .     S
C1510  C1431   1.390   1_655 S
C1511  H1548   1.084   .     S
C1512  C1513   1.511   .     S
C1512  H1559   1.113   .     S
C1512  H1563   1.106   .     S
C1512  O1584   1.401   .     S
C1513  H1565   1.102   .     S
C1513  H1564   1.107   .     S
C1514  C1515   1.502   .     S
C1514  H1568   1.119   .     S
C1514  H1567   1.108   .     S
C1514  O1572   1.418   .     S
C1515  H1538   1.106   .     S
C1515  H1539   1.106   .     S
C1515  H1540   1.106   .     S
C1516  O1573   1.409   .     S
C1516  C1517   1.522   .     S
C1516  H1189   1.110   1_565 S
C1516  H1190   1.103   1_565 S
C1517  H1545   1.108   .     S
C1518  H1546   1.116   .     S
C1518  O1574   1.414   .     S
C1518  C1520   1.509   .     S
C1519  Cl1533  1.758   .     S
C1520  H1551   1.106   .     S
C1520  H1550   1.094   .     S
C1520  H1549   1.109   .     S
C1521  H1552   1.115   .     S
C1521  O1575   1.396   .     S
C1521  C1522   1.515   .     S
C1521  H497    1.098   1_556 S
C1522  H1554   1.109   .     S
C1522  H1555   1.110   .     S
C1522  H1556   1.108   .     S
C1523  O1576   1.407   .     S
C1523  C1524   1.522   .     S
C1524  H1562   1.111   .     S
C1524  H1560   1.105   .     S
C1524  H1561   1.107   .     S
C1525  Cl1534  1.765   .     S
C1525  C1423   1.389   1_655 S
C1527  C1174   1.351   1_565 S
C1527  O1222   1.378   1_565 S
C1528  O1580   1.312   .     A
C1528  O1582   1.324   .     A
C1529  O1581   1.330   .     A
C1529  O1583   1.302   .     A
C1530  Cl1531  1.750   .     S
Cu1535 O1583   1.969   .     S
Cu1535 O1580   1.971   .     S
Cu1535 N1570   2.064   .     S
Cu1535 O1571   2.022   .     S
Cu1535 Cu1536  2.747   .     S
Cu1535 O1579   2.010   .     S
Cu1536 O1581   1.971   .     S
Cu1536 N1569   2.064   .     S
Cu1536 O1582   1.969   .     S
Cu1536 O1578   2.010   .     S
Cu1536 O1577   2.022   .     S
H1543  C461    1.109   1_556 S
H1544  C461    1.104   1_556 S
H1547  C1166   1.096   1_565 S
H1557  C467    1.108   1_556 S
H1558  C467    1.108   1_556 S
H1566  C1161   1.095   1_565 S
N1570  N513    1.318   1_556 S
N1570  O520    1.350   1_556 S
O1573  C1174   1.401   1_565 S
O1575  N513    1.344   1_556 S
