data_str_m2_o10_o18_pcu_sym.18
_audit_creation_date              2020-01-03
_audit_creation_method            'Materials Studio'
_symmetry_space_group_name_H-M    'P1'
_symmetry_Int_Tables_number       1
_symmetry_cell_setting            triclinic
loop_
_symmetry_equiv_pos_as_xyz
  x,y,z
_cell_length_a                    22.1398
_cell_length_b                    26.4568
_cell_length_c                    31.5683
_cell_angle_alpha                 92.4997
_cell_angle_beta                  73.5035
_cell_angle_gamma                 103.5746
loop_
_atom_site_label
_atom_site_type_symbol
_atom_site_fract_x
_atom_site_fract_y
_atom_site_fract_z
_atom_site_U_iso_or_equiv
_atom_site_adp_type
_atom_site_occupancy
C1     C     0.18199   0.26660   0.25041   0.00000  Uiso   1.00
C2     C     0.20681   0.17024   0.16623   0.00000  Uiso   1.00
C3     C     0.09966   0.15896   0.38286   0.00000  Uiso   1.00
C4     C     0.23367   0.17436   0.11714   0.00000  Uiso   1.00
C5     C     0.02123   0.11744   0.44973   0.00000  Uiso   1.00
C6     C     0.31210   0.21587   0.05027   0.00000  Uiso   1.00
C7     C     0.03660   0.12938   0.40469   0.00000  Uiso   1.00
C8     C     0.29673   0.20394   0.09531   0.00000  Uiso   1.00
C9     C     0.14081   0.18299   0.40875   0.00000  Uiso   1.00
C10    C     0.19252   0.15032   0.09125   0.00000  Uiso   1.00
C11    C     0.12902   0.16399   0.45270   0.00000  Uiso   1.00
C12    C     0.15134   0.06673   0.24959   0.00000  Uiso   1.00
C13    C     0.20431   0.16932   0.04730   0.00000  Uiso   1.00
C14    C     0.06671   0.13308   0.47328   0.00000  Uiso   1.00
C15    C     0.26662   0.20023   0.02672   0.00000  Uiso   1.00
C16    C     0.17601   0.17441   0.47717   0.00000  Uiso   1.00
C17    C     0.15732   0.15890   0.02282   0.00000  Uiso   1.00
C18    C     0.14969   0.09690   0.10700   0.00000  Uiso   1.00
C19    C     0.18364   0.23642   0.39301   0.00000  Uiso   1.00
C20    C     0.01765   0.22093   0.11684   0.00000  Uiso   1.00
C21    C     0.01731   0.27410   0.13747   0.00000  Uiso   1.00
C22    C     0.07813   0.29473   0.15251   0.00000  Uiso   1.00
C23    C     0.09169   0.13582   0.04292   0.00000  Uiso   1.00
C24    C     0.31568   0.11241   0.38316   0.00000  Uiso   1.00
C25    C     0.31605   0.05928   0.36246   0.00000  Uiso   1.00
C26    C     0.25517   0.03860   0.34752   0.00000  Uiso   1.00
C27    C     0.26293   0.01850   0.22735   0.00000  Uiso   1.00
C28    C     0.07040   0.31483   0.27268   0.00000  Uiso   1.00
C29    C     0.24164   0.19749   0.45708   0.00000  Uiso   1.00
C30    C     0.04833   0.12048   0.01820   0.00000  Uiso   1.00
C31    C     0.28500   0.21283   0.48180   0.00000  Uiso   1.00
C32    C     0.19254   0.32214   0.24561   0.00000  Uiso   1.00
C33    C     0.14079   0.01120   0.25440   0.00000  Uiso   1.00
C34    C     0.12652   0.16309   0.33377   0.00000  Uiso   1.00
Cu35   Cu    0.10737   0.16108   0.24517   0.00000  Uiso   1.00
Cu36   Cu    0.22596   0.17225   0.25484   0.00000  Uiso   1.00
H37    H     0.33238   0.10033   0.03485   0.00000  Uiso   1.00
H38    H     0.14039   0.07250   0.07899   0.00000  Uiso   1.00
H39    H     0.17457   0.07547   0.12359   0.00000  Uiso   1.00
H40    H     0.19293   0.26081   0.42102   0.00000  Uiso   1.00
H41    H     0.23012   0.23344   0.36895   0.00000  Uiso   1.00
H42    H     0.15876   0.25785   0.37642   0.00000  Uiso   1.00
H43    H     0.08398   0.26558   0.17437   0.00000  Uiso   1.00
H44    H     0.12160   0.30306   0.12343   0.00000  Uiso   1.00
H45    H     0.07473   0.33131   0.17064   0.00000  Uiso   1.00
H46    H     0.01534   0.30237   0.11310   0.00000  Uiso   1.00
H47    H     0.30690   0.27019   0.16590   0.00000  Uiso   1.00
H48    H     0.00095   0.23297   0.46514   0.00000  Uiso   1.00
H49    H     0.01614   0.19133   0.14115   0.00000  Uiso   1.00
H50    H     0.06506   0.22380   0.09152   0.00000  Uiso   1.00
H51    H     0.21178   0.03020   0.37665   0.00000  Uiso   1.00
H52    H     0.24917   0.06773   0.32572   0.00000  Uiso   1.00
H53    H     0.25858   0.00203   0.32934   0.00000  Uiso   1.00
H54    H     0.02638   0.06326   0.33397   0.00000  Uiso   1.00
H55    H     0.31819   0.03101   0.38675   0.00000  Uiso   1.00
H56    H     0.26826   0.10950   0.40848   0.00000  Uiso   1.00
H57    H     0.31717   0.14204   0.35889   0.00000  Uiso   1.00
H58    H     0.29721   0.32624   0.21902   0.00000  Uiso   1.00
H59    H     0.30642   0.09512   0.46664   0.00000  Uiso   1.00
H60    H     0.26915   0.04068   0.19672   0.00000  Uiso   1.00
H61    H     0.27916   0.04451   0.25232   0.00000  Uiso   1.00
H62    H     0.03613   0.00709   0.28100   0.00000  Uiso   1.00
H63    H     0.05416   0.28882   0.24772   0.00000  Uiso   1.00
H64    H     0.06420   0.29267   0.30331   0.00000  Uiso   1.00
H65    H     0.02691   0.23819   0.03335   0.00000  Uiso   1.00
H66    H     0.07213   0.12982   0.07808   0.00000  Uiso   1.00
H67    H     0.26120   0.20349   0.42192   0.00000  Uiso   1.00
H68    H     0.33309   0.20132   0.28599   0.00000  Uiso   1.00
H69    H     0.00024   0.13201   0.21401   0.00000  Uiso   1.00
H70    H     0.10322   0.09988   0.13106   0.00000  Uiso   1.00
N71    N     0.31506   0.18068   0.26212   0.00000  Uiso   1.00
N72    N     0.01827   0.15265   0.23788   0.00000  Uiso   1.00
O73    O     0.12815   0.23809   0.24686   0.00000  Uiso   1.00
O74    O     0.20518   0.09524   0.25314   0.00000  Uiso   1.00
O75    O     0.22829   0.24753   0.25503   0.00000  Uiso   1.00
O76    O     0.10504   0.08580   0.24498   0.00000  Uiso   1.00
O77    O     0.08851   0.15930   0.30855   0.00000  Uiso   1.00
O78    O     0.24482   0.17403   0.19146   0.00000  Uiso   1.00
O79    O     0.18866   0.16874   0.31671   0.00000  Uiso   1.00
O80    O     0.14468   0.16460   0.18329   0.00000  Uiso   1.00
C81    C     0.51532   0.26660   0.25041   0.00000  Uiso   1.00
C82    C     0.54015   0.17024   0.16623   0.00000  Uiso   1.00
C83    C     0.43299   0.15896   0.38286   0.00000  Uiso   1.00
C84    C     0.56701   0.17436   0.11714   0.00000  Uiso   1.00
C85    C     0.35456   0.11744   0.44973   0.00000  Uiso   1.00
C86    C     0.64544   0.21587   0.05027   0.00000  Uiso   1.00
C87    C     0.36994   0.12938   0.40469   0.00000  Uiso   1.00
C88    C     0.63006   0.20394   0.09531   0.00000  Uiso   1.00
C89    C     0.47415   0.18299   0.40875   0.00000  Uiso   1.00
C90    C     0.52585   0.15032   0.09125   0.00000  Uiso   1.00
C91    C     0.46236   0.16399   0.45270   0.00000  Uiso   1.00
C92    C     0.48467   0.06673   0.24959   0.00000  Uiso   1.00
C93    C     0.53764   0.16932   0.04730   0.00000  Uiso   1.00
C94    C     0.40004   0.13308   0.47328   0.00000  Uiso   1.00
C95    C     0.59996   0.20023   0.02672   0.00000  Uiso   1.00
C96    C     0.50934   0.17441   0.47717   0.00000  Uiso   1.00
C97    C     0.49065   0.15890   0.02282   0.00000  Uiso   1.00
C98    C     0.48302   0.09690   0.10700   0.00000  Uiso   1.00
C99    C     0.51697   0.23642   0.39301   0.00000  Uiso   1.00
C100   C     0.35098   0.22093   0.11684   0.00000  Uiso   1.00
C101   C     0.35065   0.27410   0.13747   0.00000  Uiso   1.00
C102   C     0.41146   0.29473   0.15251   0.00000  Uiso   1.00
C103   C     0.42503   0.13582   0.04292   0.00000  Uiso   1.00
C104   C     0.64901   0.11241   0.38316   0.00000  Uiso   1.00
C105   C     0.64938   0.05928   0.36246   0.00000  Uiso   1.00
C106   C     0.58850   0.03860   0.34752   0.00000  Uiso   1.00
C107   C     0.59626   0.01850   0.22735   0.00000  Uiso   1.00
C108   C     0.40374   0.31483   0.27268   0.00000  Uiso   1.00
C109   C     0.57497   0.19749   0.45708   0.00000  Uiso   1.00
C110   C     0.38166   0.12048   0.01820   0.00000  Uiso   1.00
C111   C     0.61833   0.21283   0.48180   0.00000  Uiso   1.00
C112   C     0.52588   0.32214   0.24561   0.00000  Uiso   1.00
C113   C     0.47412   0.01120   0.25440   0.00000  Uiso   1.00
C114   C     0.45985   0.16309   0.33377   0.00000  Uiso   1.00
Cu115  Cu    0.44071   0.16108   0.24517   0.00000  Uiso   1.00
Cu116  Cu    0.55929   0.17225   0.25484   0.00000  Uiso   1.00
H117   H     0.66571   0.10033   0.03485   0.00000  Uiso   1.00
H118   H     0.47372   0.07250   0.07899   0.00000  Uiso   1.00
H119   H     0.50790   0.07547   0.12359   0.00000  Uiso   1.00
H120   H     0.52626   0.26081   0.42102   0.00000  Uiso   1.00
H121   H     0.56345   0.23344   0.36895   0.00000  Uiso   1.00
H122   H     0.49210   0.25785   0.37642   0.00000  Uiso   1.00
H123   H     0.41731   0.26558   0.17437   0.00000  Uiso   1.00
H124   H     0.45493   0.30306   0.12343   0.00000  Uiso   1.00
H125   H     0.40807   0.33131   0.17064   0.00000  Uiso   1.00
H126   H     0.34867   0.30237   0.11310   0.00000  Uiso   1.00
H127   H     0.64023   0.27019   0.16590   0.00000  Uiso   1.00
H128   H     0.33428   0.23297   0.46514   0.00000  Uiso   1.00
H129   H     0.34947   0.19133   0.14115   0.00000  Uiso   1.00
H130   H     0.39840   0.22380   0.09152   0.00000  Uiso   1.00
H131   H     0.54512   0.03020   0.37665   0.00000  Uiso   1.00
H132   H     0.58251   0.06773   0.32572   0.00000  Uiso   1.00
H133   H     0.59191   0.00203   0.32934   0.00000  Uiso   1.00
H134   H     0.35971   0.06326   0.33397   0.00000  Uiso   1.00
H135   H     0.65152   0.03101   0.38675   0.00000  Uiso   1.00
H136   H     0.60160   0.10950   0.40848   0.00000  Uiso   1.00
H137   H     0.65050   0.14204   0.35889   0.00000  Uiso   1.00
H138   H     0.63054   0.32624   0.21902   0.00000  Uiso   1.00
H139   H     0.63976   0.09512   0.46664   0.00000  Uiso   1.00
H140   H     0.60248   0.04068   0.19672   0.00000  Uiso   1.00
H141   H     0.61250   0.04451   0.25232   0.00000  Uiso   1.00
H142   H     0.36946   0.00709   0.28100   0.00000  Uiso   1.00
H143   H     0.38749   0.28882   0.24772   0.00000  Uiso   1.00
H144   H     0.39753   0.29267   0.30331   0.00000  Uiso   1.00
H145   H     0.36024   0.23819   0.03335   0.00000  Uiso   1.00
H146   H     0.40547   0.12982   0.07808   0.00000  Uiso   1.00
H147   H     0.59453   0.20349   0.42192   0.00000  Uiso   1.00
H148   H     0.66642   0.20132   0.28599   0.00000  Uiso   1.00
H149   H     0.33358   0.13201   0.21401   0.00000  Uiso   1.00
H150   H     0.43655   0.09988   0.13106   0.00000  Uiso   1.00
N151   N     0.64839   0.18068   0.26212   0.00000  Uiso   1.00
N152   N     0.35161   0.15265   0.23788   0.00000  Uiso   1.00
O153   O     0.46148   0.23809   0.24686   0.00000  Uiso   1.00
O154   O     0.53852   0.09524   0.25314   0.00000  Uiso   1.00
O155   O     0.56163   0.24753   0.25503   0.00000  Uiso   1.00
O156   O     0.43837   0.08580   0.24498   0.00000  Uiso   1.00
O157   O     0.42185   0.15930   0.30855   0.00000  Uiso   1.00
O158   O     0.57815   0.17403   0.19146   0.00000  Uiso   1.00
O159   O     0.52199   0.16874   0.31671   0.00000  Uiso   1.00
O160   O     0.47801   0.16460   0.18329   0.00000  Uiso   1.00
C161   C     0.84866   0.26660   0.25041   0.00000  Uiso   1.00
C162   C     0.87348   0.17024   0.16623   0.00000  Uiso   1.00
C163   C     0.76632   0.15896   0.38286   0.00000  Uiso   1.00
C164   C     0.90034   0.17436   0.11714   0.00000  Uiso   1.00
C165   C     0.68790   0.11744   0.44973   0.00000  Uiso   1.00
C166   C     0.97877   0.21587   0.05027   0.00000  Uiso   1.00
C167   C     0.70327   0.12938   0.40469   0.00000  Uiso   1.00
C168   C     0.96339   0.20394   0.09531   0.00000  Uiso   1.00
C169   C     0.80748   0.18299   0.40875   0.00000  Uiso   1.00
C170   C     0.85919   0.15032   0.09125   0.00000  Uiso   1.00
C171   C     0.79569   0.16399   0.45270   0.00000  Uiso   1.00
C172   C     0.81801   0.06673   0.24959   0.00000  Uiso   1.00
C173   C     0.87098   0.16932   0.04730   0.00000  Uiso   1.00
C174   C     0.73337   0.13308   0.47328   0.00000  Uiso   1.00
C175   C     0.93329   0.20023   0.02672   0.00000  Uiso   1.00
C176   C     0.84268   0.17441   0.47717   0.00000  Uiso   1.00
C177   C     0.82399   0.15890   0.02282   0.00000  Uiso   1.00
C178   C     0.81635   0.09690   0.10700   0.00000  Uiso   1.00
C179   C     0.85031   0.23642   0.39301   0.00000  Uiso   1.00
C180   C     0.68432   0.22093   0.11684   0.00000  Uiso   1.00
C181   C     0.68398   0.27410   0.13747   0.00000  Uiso   1.00
C182   C     0.74480   0.29473   0.15251   0.00000  Uiso   1.00
C183   C     0.75836   0.13582   0.04292   0.00000  Uiso   1.00
C184   C     0.98234   0.11241   0.38316   0.00000  Uiso   1.00
C185   C     0.98271   0.05928   0.36246   0.00000  Uiso   1.00
C186   C     0.92184   0.03860   0.34752   0.00000  Uiso   1.00
C187   C     0.92960   0.01850   0.22735   0.00000  Uiso   1.00
C188   C     0.73707   0.31483   0.27268   0.00000  Uiso   1.00
C189   C     0.90830   0.19749   0.45708   0.00000  Uiso   1.00
C190   C     0.71500   0.12048   0.01820   0.00000  Uiso   1.00
C191   C     0.95167   0.21283   0.48180   0.00000  Uiso   1.00
C192   C     0.85921   0.32214   0.24561   0.00000  Uiso   1.00
C193   C     0.80745   0.01120   0.25440   0.00000  Uiso   1.00
C194   C     0.79318   0.16309   0.33377   0.00000  Uiso   1.00
Cu195  Cu    0.77404   0.16108   0.24517   0.00000  Uiso   1.00
Cu196  Cu    0.89263   0.17225   0.25484   0.00000  Uiso   1.00
H197   H     0.99905   0.10033   0.03485   0.00000  Uiso   1.00
H198   H     0.80706   0.07250   0.07899   0.00000  Uiso   1.00
H199   H     0.84124   0.07547   0.12359   0.00000  Uiso   1.00
H200   H     0.85959   0.26081   0.42102   0.00000  Uiso   1.00
H201   H     0.89678   0.23344   0.36895   0.00000  Uiso   1.00
H202   H     0.82543   0.25785   0.37642   0.00000  Uiso   1.00
H203   H     0.75064   0.26558   0.17437   0.00000  Uiso   1.00
H204   H     0.78827   0.30306   0.12343   0.00000  Uiso   1.00
H205   H     0.74140   0.33131   0.17064   0.00000  Uiso   1.00
H206   H     0.68201   0.30237   0.11310   0.00000  Uiso   1.00
H207   H     0.97356   0.27019   0.16590   0.00000  Uiso   1.00
H208   H     0.66762   0.23297   0.46514   0.00000  Uiso   1.00
H209   H     0.68280   0.19133   0.14115   0.00000  Uiso   1.00
H210   H     0.73173   0.22380   0.09152   0.00000  Uiso   1.00
H211   H     0.87845   0.03020   0.37665   0.00000  Uiso   1.00
H212   H     0.91584   0.06773   0.32572   0.00000  Uiso   1.00
H213   H     0.92525   0.00203   0.32934   0.00000  Uiso   1.00
H214   H     0.69305   0.06326   0.33397   0.00000  Uiso   1.00
H215   H     0.98485   0.03101   0.38675   0.00000  Uiso   1.00
H216   H     0.93493   0.10950   0.40848   0.00000  Uiso   1.00
H217   H     0.98384   0.14204   0.35889   0.00000  Uiso   1.00
H218   H     0.96387   0.32624   0.21902   0.00000  Uiso   1.00
H219   H     0.97309   0.09512   0.46664   0.00000  Uiso   1.00
H220   H     0.93581   0.04068   0.19672   0.00000  Uiso   1.00
H221   H     0.94583   0.04451   0.25232   0.00000  Uiso   1.00
H222   H     0.70280   0.00709   0.28100   0.00000  Uiso   1.00
H223   H     0.72082   0.28882   0.24772   0.00000  Uiso   1.00
H224   H     0.73087   0.29267   0.30331   0.00000  Uiso   1.00
H225   H     0.69358   0.23819   0.03335   0.00000  Uiso   1.00
H226   H     0.73880   0.12982   0.07808   0.00000  Uiso   1.00
H227   H     0.92786   0.20349   0.42192   0.00000  Uiso   1.00
H228   H     0.99975   0.20132   0.28599   0.00000  Uiso   1.00
H229   H     0.66691   0.13201   0.21401   0.00000  Uiso   1.00
H230   H     0.76988   0.09988   0.13106   0.00000  Uiso   1.00
N231   N     0.98173   0.18068   0.26212   0.00000  Uiso   1.00
N232   N     0.68494   0.15265   0.23788   0.00000  Uiso   1.00
O233   O     0.79482   0.23809   0.24686   0.00000  Uiso   1.00
O234   O     0.87185   0.09524   0.25314   0.00000  Uiso   1.00
O235   O     0.89496   0.24753   0.25503   0.00000  Uiso   1.00
O236   O     0.77171   0.08580   0.24498   0.00000  Uiso   1.00
O237   O     0.75518   0.15930   0.30855   0.00000  Uiso   1.00
O238   O     0.91149   0.17403   0.19146   0.00000  Uiso   1.00
O239   O     0.85532   0.16874   0.31671   0.00000  Uiso   1.00
O240   O     0.81134   0.16460   0.18329   0.00000  Uiso   1.00
C241   C     0.18199   0.59993   0.25041   0.00000  Uiso   1.00
C242   C     0.20681   0.50357   0.16623   0.00000  Uiso   1.00
C243   C     0.09966   0.49229   0.38286   0.00000  Uiso   1.00
C244   C     0.23367   0.50770   0.11714   0.00000  Uiso   1.00
C245   C     0.02123   0.45078   0.44973   0.00000  Uiso   1.00
C246   C     0.31210   0.54920   0.05027   0.00000  Uiso   1.00
C247   C     0.03660   0.46272   0.40469   0.00000  Uiso   1.00
C248   C     0.29673   0.53727   0.09531   0.00000  Uiso   1.00
C249   C     0.14081   0.51633   0.40875   0.00000  Uiso   1.00
C250   C     0.19252   0.48366   0.09125   0.00000  Uiso   1.00
C251   C     0.12902   0.49733   0.45270   0.00000  Uiso   1.00
C252   C     0.15134   0.40007   0.24959   0.00000  Uiso   1.00
C253   C     0.20431   0.50265   0.04730   0.00000  Uiso   1.00
C254   C     0.06671   0.46641   0.47328   0.00000  Uiso   1.00
C255   C     0.26662   0.53356   0.02672   0.00000  Uiso   1.00
C256   C     0.17601   0.50774   0.47717   0.00000  Uiso   1.00
C257   C     0.15732   0.49223   0.02282   0.00000  Uiso   1.00
C258   C     0.14969   0.43024   0.10700   0.00000  Uiso   1.00
C259   C     0.18364   0.56975   0.39301   0.00000  Uiso   1.00
C260   C     0.01765   0.55426   0.11684   0.00000  Uiso   1.00
C261   C     0.01731   0.60744   0.13747   0.00000  Uiso   1.00
C262   C     0.07813   0.62806   0.15251   0.00000  Uiso   1.00
C263   C     0.09169   0.46916   0.04292   0.00000  Uiso   1.00
C264   C     0.31568   0.44575   0.38316   0.00000  Uiso   1.00
C265   C     0.31605   0.39261   0.36246   0.00000  Uiso   1.00
C266   C     0.25517   0.37193   0.34752   0.00000  Uiso   1.00
C267   C     0.26293   0.35183   0.22735   0.00000  Uiso   1.00
C268   C     0.07040   0.64817   0.27268   0.00000  Uiso   1.00
C269   C     0.24164   0.53082   0.45708   0.00000  Uiso   1.00
C270   C     0.04833   0.45381   0.01820   0.00000  Uiso   1.00
C271   C     0.28500   0.54616   0.48180   0.00000  Uiso   1.00
C272   C     0.19254   0.65547   0.24561   0.00000  Uiso   1.00
C273   C     0.14079   0.34453   0.25440   0.00000  Uiso   1.00
C274   C     0.12652   0.49643   0.33377   0.00000  Uiso   1.00
Cu275  Cu    0.10737   0.49441   0.24517   0.00000  Uiso   1.00
Cu276  Cu    0.22596   0.50559   0.25484   0.00000  Uiso   1.00
H277   H     0.33238   0.43367   0.03485   0.00000  Uiso   1.00
H278   H     0.14039   0.40584   0.07899   0.00000  Uiso   1.00
H279   H     0.17457   0.40881   0.12359   0.00000  Uiso   1.00
H280   H     0.19293   0.59415   0.42102   0.00000  Uiso   1.00
H281   H     0.23012   0.56677   0.36895   0.00000  Uiso   1.00
H282   H     0.15876   0.59118   0.37642   0.00000  Uiso   1.00
H283   H     0.08398   0.59891   0.17437   0.00000  Uiso   1.00
H284   H     0.12160   0.63640   0.12343   0.00000  Uiso   1.00
H285   H     0.07473   0.66465   0.17064   0.00000  Uiso   1.00
H286   H     0.01534   0.63570   0.11310   0.00000  Uiso   1.00
H287   H     0.30690   0.60353   0.16590   0.00000  Uiso   1.00
H288   H     0.00095   0.56631   0.46514   0.00000  Uiso   1.00
H289   H     0.01614   0.52467   0.14115   0.00000  Uiso   1.00
H290   H     0.06506   0.55713   0.09152   0.00000  Uiso   1.00
H291   H     0.21178   0.36353   0.37665   0.00000  Uiso   1.00
H292   H     0.24917   0.40107   0.32572   0.00000  Uiso   1.00
H293   H     0.25858   0.33537   0.32934   0.00000  Uiso   1.00
H294   H     0.02638   0.39660   0.33397   0.00000  Uiso   1.00
H295   H     0.31819   0.36434   0.38675   0.00000  Uiso   1.00
H296   H     0.26826   0.44283   0.40848   0.00000  Uiso   1.00
H297   H     0.31717   0.47537   0.35889   0.00000  Uiso   1.00
H298   H     0.29721   0.65957   0.21902   0.00000  Uiso   1.00
H299   H     0.30642   0.42846   0.46664   0.00000  Uiso   1.00
H300   H     0.26915   0.37401   0.19672   0.00000  Uiso   1.00
H301   H     0.27916   0.37784   0.25232   0.00000  Uiso   1.00
H302   H     0.03613   0.34042   0.28100   0.00000  Uiso   1.00
H303   H     0.05416   0.62215   0.24772   0.00000  Uiso   1.00
H304   H     0.06420   0.62600   0.30331   0.00000  Uiso   1.00
H305   H     0.02691   0.57152   0.03335   0.00000  Uiso   1.00
H306   H     0.07213   0.46315   0.07808   0.00000  Uiso   1.00
H307   H     0.26120   0.53682   0.42192   0.00000  Uiso   1.00
H308   H     0.33309   0.53466   0.28599   0.00000  Uiso   1.00
H309   H     0.00024   0.46534   0.21401   0.00000  Uiso   1.00
H310   H     0.10322   0.43322   0.13106   0.00000  Uiso   1.00
N311   N     0.31506   0.51401   0.26212   0.00000  Uiso   1.00
N312   N     0.01827   0.48599   0.23788   0.00000  Uiso   1.00
O313   O     0.12815   0.57142   0.24686   0.00000  Uiso   1.00
O314   O     0.20518   0.42858   0.25314   0.00000  Uiso   1.00
O315   O     0.22829   0.58086   0.25503   0.00000  Uiso   1.00
O316   O     0.10504   0.41914   0.24498   0.00000  Uiso   1.00
O317   O     0.08851   0.49263   0.30855   0.00000  Uiso   1.00
O318   O     0.24482   0.50737   0.19146   0.00000  Uiso   1.00
O319   O     0.18866   0.50207   0.31671   0.00000  Uiso   1.00
O320   O     0.14468   0.49793   0.18329   0.00000  Uiso   1.00
C321   C     0.51532   0.59993   0.25041   0.00000  Uiso   1.00
C322   C     0.54015   0.50357   0.16623   0.00000  Uiso   1.00
C323   C     0.43299   0.49229   0.38286   0.00000  Uiso   1.00
C324   C     0.56701   0.50770   0.11714   0.00000  Uiso   1.00
C325   C     0.35456   0.45078   0.44973   0.00000  Uiso   1.00
C326   C     0.64544   0.54920   0.05027   0.00000  Uiso   1.00
C327   C     0.36994   0.46272   0.40469   0.00000  Uiso   1.00
C328   C     0.63006   0.53727   0.09531   0.00000  Uiso   1.00
C329   C     0.47415   0.51633   0.40875   0.00000  Uiso   1.00
C330   C     0.52585   0.48366   0.09125   0.00000  Uiso   1.00
C331   C     0.46236   0.49733   0.45270   0.00000  Uiso   1.00
C332   C     0.48467   0.40007   0.24959   0.00000  Uiso   1.00
C333   C     0.53764   0.50265   0.04730   0.00000  Uiso   1.00
C334   C     0.40004   0.46641   0.47328   0.00000  Uiso   1.00
C335   C     0.59996   0.53356   0.02672   0.00000  Uiso   1.00
C336   C     0.50934   0.50774   0.47717   0.00000  Uiso   1.00
C337   C     0.49065   0.49223   0.02282   0.00000  Uiso   1.00
C338   C     0.48302   0.43024   0.10700   0.00000  Uiso   1.00
C339   C     0.51697   0.56975   0.39301   0.00000  Uiso   1.00
C340   C     0.35098   0.55426   0.11684   0.00000  Uiso   1.00
C341   C     0.35065   0.60744   0.13747   0.00000  Uiso   1.00
C342   C     0.41146   0.62806   0.15251   0.00000  Uiso   1.00
C343   C     0.42503   0.46916   0.04292   0.00000  Uiso   1.00
C344   C     0.64901   0.44575   0.38316   0.00000  Uiso   1.00
C345   C     0.64938   0.39261   0.36246   0.00000  Uiso   1.00
C346   C     0.58850   0.37193   0.34752   0.00000  Uiso   1.00
C347   C     0.59626   0.35183   0.22735   0.00000  Uiso   1.00
C348   C     0.40374   0.64817   0.27268   0.00000  Uiso   1.00
C349   C     0.57497   0.53082   0.45708   0.00000  Uiso   1.00
C350   C     0.38166   0.45381   0.01820   0.00000  Uiso   1.00
C351   C     0.61833   0.54616   0.48180   0.00000  Uiso   1.00
C352   C     0.52588   0.65547   0.24561   0.00000  Uiso   1.00
C353   C     0.47412   0.34453   0.25440   0.00000  Uiso   1.00
C354   C     0.45985   0.49643   0.33377   0.00000  Uiso   1.00
Cu355  Cu    0.44071   0.49441   0.24517   0.00000  Uiso   1.00
Cu356  Cu    0.55929   0.50559   0.25484   0.00000  Uiso   1.00
H357   H     0.66571   0.43367   0.03485   0.00000  Uiso   1.00
H358   H     0.47372   0.40584   0.07899   0.00000  Uiso   1.00
H359   H     0.50790   0.40881   0.12359   0.00000  Uiso   1.00
H360   H     0.52626   0.59415   0.42102   0.00000  Uiso   1.00
H361   H     0.56345   0.56677   0.36895   0.00000  Uiso   1.00
H362   H     0.49210   0.59118   0.37642   0.00000  Uiso   1.00
H363   H     0.41731   0.59891   0.17437   0.00000  Uiso   1.00
H364   H     0.45493   0.63640   0.12343   0.00000  Uiso   1.00
H365   H     0.40807   0.66465   0.17064   0.00000  Uiso   1.00
H366   H     0.34867   0.63570   0.11310   0.00000  Uiso   1.00
H367   H     0.64023   0.60353   0.16590   0.00000  Uiso   1.00
H368   H     0.33428   0.56631   0.46514   0.00000  Uiso   1.00
H369   H     0.34947   0.52467   0.14115   0.00000  Uiso   1.00
H370   H     0.39840   0.55713   0.09152   0.00000  Uiso   1.00
H371   H     0.54512   0.36353   0.37665   0.00000  Uiso   1.00
H372   H     0.58251   0.40107   0.32572   0.00000  Uiso   1.00
H373   H     0.59191   0.33537   0.32934   0.00000  Uiso   1.00
H374   H     0.35971   0.39660   0.33397   0.00000  Uiso   1.00
H375   H     0.65152   0.36434   0.38675   0.00000  Uiso   1.00
H376   H     0.60160   0.44283   0.40848   0.00000  Uiso   1.00
H377   H     0.65050   0.47537   0.35889   0.00000  Uiso   1.00
H378   H     0.63054   0.65957   0.21902   0.00000  Uiso   1.00
H379   H     0.63976   0.42846   0.46664   0.00000  Uiso   1.00
H380   H     0.60248   0.37401   0.19672   0.00000  Uiso   1.00
H381   H     0.61250   0.37784   0.25232   0.00000  Uiso   1.00
H382   H     0.36946   0.34042   0.28100   0.00000  Uiso   1.00
H383   H     0.38749   0.62215   0.24772   0.00000  Uiso   1.00
H384   H     0.39753   0.62600   0.30331   0.00000  Uiso   1.00
H385   H     0.36024   0.57152   0.03335   0.00000  Uiso   1.00
H386   H     0.40547   0.46315   0.07808   0.00000  Uiso   1.00
H387   H     0.59453   0.53682   0.42192   0.00000  Uiso   1.00
H388   H     0.66642   0.53466   0.28599   0.00000  Uiso   1.00
H389   H     0.33358   0.46534   0.21401   0.00000  Uiso   1.00
H390   H     0.43655   0.43322   0.13106   0.00000  Uiso   1.00
N391   N     0.64839   0.51401   0.26212   0.00000  Uiso   1.00
N392   N     0.35161   0.48599   0.23788   0.00000  Uiso   1.00
O393   O     0.46148   0.57142   0.24686   0.00000  Uiso   1.00
O394   O     0.53852   0.42858   0.25314   0.00000  Uiso   1.00
O395   O     0.56163   0.58086   0.25503   0.00000  Uiso   1.00
O396   O     0.43837   0.41914   0.24498   0.00000  Uiso   1.00
O397   O     0.42185   0.49263   0.30855   0.00000  Uiso   1.00
O398   O     0.57815   0.50737   0.19146   0.00000  Uiso   1.00
O399   O     0.52199   0.50207   0.31671   0.00000  Uiso   1.00
O400   O     0.47801   0.49793   0.18329   0.00000  Uiso   1.00
C401   C     0.84866   0.59993   0.25041   0.00000  Uiso   1.00
C402   C     0.87348   0.50357   0.16623   0.00000  Uiso   1.00
C403   C     0.76632   0.49229   0.38286   0.00000  Uiso   1.00
C404   C     0.90034   0.50770   0.11714   0.00000  Uiso   1.00
C405   C     0.68790   0.45078   0.44973   0.00000  Uiso   1.00
C406   C     0.97877   0.54920   0.05027   0.00000  Uiso   1.00
C407   C     0.70327   0.46272   0.40469   0.00000  Uiso   1.00
C408   C     0.96339   0.53727   0.09531   0.00000  Uiso   1.00
C409   C     0.80748   0.51633   0.40875   0.00000  Uiso   1.00
C410   C     0.85919   0.48366   0.09125   0.00000  Uiso   1.00
C411   C     0.79569   0.49733   0.45270   0.00000  Uiso   1.00
C412   C     0.81801   0.40007   0.24959   0.00000  Uiso   1.00
C413   C     0.87098   0.50265   0.04730   0.00000  Uiso   1.00
C414   C     0.73337   0.46641   0.47328   0.00000  Uiso   1.00
C415   C     0.93329   0.53356   0.02672   0.00000  Uiso   1.00
C416   C     0.84268   0.50774   0.47717   0.00000  Uiso   1.00
C417   C     0.82399   0.49223   0.02282   0.00000  Uiso   1.00
C418   C     0.81635   0.43024   0.10700   0.00000  Uiso   1.00
C419   C     0.85031   0.56975   0.39301   0.00000  Uiso   1.00
C420   C     0.68432   0.55426   0.11684   0.00000  Uiso   1.00
C421   C     0.68398   0.60744   0.13747   0.00000  Uiso   1.00
C422   C     0.74480   0.62806   0.15251   0.00000  Uiso   1.00
C423   C     0.75836   0.46916   0.04292   0.00000  Uiso   1.00
C424   C     0.98234   0.44575   0.38316   0.00000  Uiso   1.00
C425   C     0.98271   0.39261   0.36246   0.00000  Uiso   1.00
C426   C     0.92184   0.37193   0.34752   0.00000  Uiso   1.00
C427   C     0.92960   0.35183   0.22735   0.00000  Uiso   1.00
C428   C     0.73707   0.64817   0.27268   0.00000  Uiso   1.00
C429   C     0.90830   0.53082   0.45708   0.00000  Uiso   1.00
C430   C     0.71500   0.45381   0.01820   0.00000  Uiso   1.00
C431   C     0.95167   0.54616   0.48180   0.00000  Uiso   1.00
C432   C     0.85921   0.65547   0.24561   0.00000  Uiso   1.00
C433   C     0.80745   0.34453   0.25440   0.00000  Uiso   1.00
C434   C     0.79318   0.49643   0.33377   0.00000  Uiso   1.00
Cu435  Cu    0.77404   0.49441   0.24517   0.00000  Uiso   1.00
Cu436  Cu    0.89263   0.50559   0.25484   0.00000  Uiso   1.00
H437   H     0.99905   0.43367   0.03485   0.00000  Uiso   1.00
H438   H     0.80706   0.40584   0.07899   0.00000  Uiso   1.00
H439   H     0.84124   0.40881   0.12359   0.00000  Uiso   1.00
H440   H     0.85959   0.59415   0.42102   0.00000  Uiso   1.00
H441   H     0.89678   0.56677   0.36895   0.00000  Uiso   1.00
H442   H     0.82543   0.59118   0.37642   0.00000  Uiso   1.00
H443   H     0.75064   0.59891   0.17437   0.00000  Uiso   1.00
H444   H     0.78827   0.63640   0.12343   0.00000  Uiso   1.00
H445   H     0.74140   0.66465   0.17064   0.00000  Uiso   1.00
H446   H     0.68201   0.63570   0.11310   0.00000  Uiso   1.00
H447   H     0.97356   0.60353   0.16590   0.00000  Uiso   1.00
H448   H     0.66762   0.56631   0.46514   0.00000  Uiso   1.00
H449   H     0.68280   0.52467   0.14115   0.00000  Uiso   1.00
H450   H     0.73173   0.55713   0.09152   0.00000  Uiso   1.00
H451   H     0.87845   0.36353   0.37665   0.00000  Uiso   1.00
H452   H     0.91584   0.40107   0.32572   0.00000  Uiso   1.00
H453   H     0.92525   0.33537   0.32934   0.00000  Uiso   1.00
H454   H     0.69305   0.39660   0.33397   0.00000  Uiso   1.00
H455   H     0.98485   0.36434   0.38675   0.00000  Uiso   1.00
H456   H     0.93493   0.44283   0.40848   0.00000  Uiso   1.00
H457   H     0.98384   0.47537   0.35889   0.00000  Uiso   1.00
H458   H     0.96387   0.65957   0.21902   0.00000  Uiso   1.00
H459   H     0.97309   0.42846   0.46664   0.00000  Uiso   1.00
H460   H     0.93581   0.37401   0.19672   0.00000  Uiso   1.00
H461   H     0.94583   0.37784   0.25232   0.00000  Uiso   1.00
H462   H     0.70280   0.34042   0.28100   0.00000  Uiso   1.00
H463   H     0.72082   0.62215   0.24772   0.00000  Uiso   1.00
H464   H     0.73087   0.62600   0.30331   0.00000  Uiso   1.00
H465   H     0.69358   0.57152   0.03335   0.00000  Uiso   1.00
H466   H     0.73880   0.46315   0.07808   0.00000  Uiso   1.00
H467   H     0.92786   0.53682   0.42192   0.00000  Uiso   1.00
H468   H     0.99975   0.53466   0.28599   0.00000  Uiso   1.00
H469   H     0.66691   0.46534   0.21401   0.00000  Uiso   1.00
H470   H     0.76988   0.43322   0.13106   0.00000  Uiso   1.00
N471   N     0.98173   0.51401   0.26212   0.00000  Uiso   1.00
N472   N     0.68494   0.48599   0.23788   0.00000  Uiso   1.00
O473   O     0.79482   0.57142   0.24686   0.00000  Uiso   1.00
O474   O     0.87185   0.42858   0.25314   0.00000  Uiso   1.00
O475   O     0.89496   0.58086   0.25503   0.00000  Uiso   1.00
O476   O     0.77171   0.41914   0.24498   0.00000  Uiso   1.00
O477   O     0.75518   0.49263   0.30855   0.00000  Uiso   1.00
O478   O     0.91149   0.50737   0.19146   0.00000  Uiso   1.00
O479   O     0.85532   0.50207   0.31671   0.00000  Uiso   1.00
O480   O     0.81134   0.49793   0.18329   0.00000  Uiso   1.00
C481   C     0.18199   0.93327   0.25041   0.00000  Uiso   1.00
C482   C     0.20681   0.83691   0.16623   0.00000  Uiso   1.00
C483   C     0.09966   0.82563   0.38286   0.00000  Uiso   1.00
C484   C     0.23367   0.84103   0.11714   0.00000  Uiso   1.00
C485   C     0.02123   0.78411   0.44973   0.00000  Uiso   1.00
C486   C     0.31210   0.88254   0.05027   0.00000  Uiso   1.00
C487   C     0.03660   0.79605   0.40469   0.00000  Uiso   1.00
C488   C     0.29673   0.87061   0.09531   0.00000  Uiso   1.00
C489   C     0.14081   0.84966   0.40875   0.00000  Uiso   1.00
C490   C     0.19252   0.81699   0.09125   0.00000  Uiso   1.00
C491   C     0.12902   0.83066   0.45270   0.00000  Uiso   1.00
C492   C     0.15134   0.73340   0.24959   0.00000  Uiso   1.00
C493   C     0.20431   0.83599   0.04730   0.00000  Uiso   1.00
C494   C     0.06671   0.79975   0.47328   0.00000  Uiso   1.00
C495   C     0.26662   0.86690   0.02672   0.00000  Uiso   1.00
C496   C     0.17601   0.84108   0.47717   0.00000  Uiso   1.00
C497   C     0.15732   0.82556   0.02282   0.00000  Uiso   1.00
C498   C     0.14969   0.76357   0.10700   0.00000  Uiso   1.00
C499   C     0.18364   0.90308   0.39301   0.00000  Uiso   1.00
C500   C     0.01765   0.88759   0.11684   0.00000  Uiso   1.00
C501   C     0.01731   0.94077   0.13747   0.00000  Uiso   1.00
C502   C     0.07813   0.96139   0.15251   0.00000  Uiso   1.00
C503   C     0.09169   0.80249   0.04292   0.00000  Uiso   1.00
C504   C     0.31568   0.77908   0.38316   0.00000  Uiso   1.00
C505   C     0.31605   0.72594   0.36246   0.00000  Uiso   1.00
C506   C     0.25517   0.70526   0.34752   0.00000  Uiso   1.00
C507   C     0.26293   0.68517   0.22735   0.00000  Uiso   1.00
C508   C     0.07040   0.98150   0.27268   0.00000  Uiso   1.00
C509   C     0.24164   0.86415   0.45708   0.00000  Uiso   1.00
C510   C     0.04833   0.78715   0.01820   0.00000  Uiso   1.00
C511   C     0.28500   0.87949   0.48180   0.00000  Uiso   1.00
C512   C     0.19254   0.98880   0.24561   0.00000  Uiso   1.00
C513   C     0.14079   0.67786   0.25440   0.00000  Uiso   1.00
C514   C     0.12652   0.82976   0.33377   0.00000  Uiso   1.00
Cu515  Cu    0.10737   0.82775   0.24517   0.00000  Uiso   1.00
Cu516  Cu    0.22596   0.83892   0.25484   0.00000  Uiso   1.00
H517   H     0.33238   0.76700   0.03485   0.00000  Uiso   1.00
H518   H     0.14039   0.73917   0.07899   0.00000  Uiso   1.00
H519   H     0.17457   0.74214   0.12359   0.00000  Uiso   1.00
H520   H     0.19293   0.92748   0.42102   0.00000  Uiso   1.00
H521   H     0.23012   0.90011   0.36895   0.00000  Uiso   1.00
H522   H     0.15876   0.92451   0.37642   0.00000  Uiso   1.00
H523   H     0.08398   0.93225   0.17437   0.00000  Uiso   1.00
H524   H     0.12160   0.96973   0.12343   0.00000  Uiso   1.00
H525   H     0.07473   0.99798   0.17064   0.00000  Uiso   1.00
H526   H     0.01534   0.96904   0.11310   0.00000  Uiso   1.00
H527   H     0.30690   0.93686   0.16590   0.00000  Uiso   1.00
H528   H     0.00095   0.89964   0.46514   0.00000  Uiso   1.00
H529   H     0.01614   0.85800   0.14115   0.00000  Uiso   1.00
H530   H     0.06506   0.89046   0.09152   0.00000  Uiso   1.00
H531   H     0.21178   0.69686   0.37665   0.00000  Uiso   1.00
H532   H     0.24917   0.73440   0.32572   0.00000  Uiso   1.00
H533   H     0.25858   0.66870   0.32934   0.00000  Uiso   1.00
H534   H     0.02638   0.72993   0.33397   0.00000  Uiso   1.00
H535   H     0.31819   0.69767   0.38675   0.00000  Uiso   1.00
H536   H     0.26826   0.77617   0.40848   0.00000  Uiso   1.00
H537   H     0.31717   0.80871   0.35889   0.00000  Uiso   1.00
H538   H     0.29721   0.99291   0.21902   0.00000  Uiso   1.00
H539   H     0.30642   0.76179   0.46664   0.00000  Uiso   1.00
H540   H     0.26915   0.70735   0.19672   0.00000  Uiso   1.00
H541   H     0.27916   0.71117   0.25232   0.00000  Uiso   1.00
H542   H     0.03613   0.67376   0.28100   0.00000  Uiso   1.00
H543   H     0.05416   0.95548   0.24772   0.00000  Uiso   1.00
H544   H     0.06420   0.95933   0.30331   0.00000  Uiso   1.00
H545   H     0.02691   0.90486   0.03335   0.00000  Uiso   1.00
H546   H     0.07213   0.79649   0.07808   0.00000  Uiso   1.00
H547   H     0.26120   0.87016   0.42192   0.00000  Uiso   1.00
H548   H     0.33309   0.86799   0.28599   0.00000  Uiso   1.00
H549   H     0.00024   0.79867   0.21401   0.00000  Uiso   1.00
H550   H     0.10322   0.76655   0.13106   0.00000  Uiso   1.00
N551   N     0.31506   0.84735   0.26212   0.00000  Uiso   1.00
N552   N     0.01827   0.81932   0.23788   0.00000  Uiso   1.00
O553   O     0.12815   0.90476   0.24686   0.00000  Uiso   1.00
O554   O     0.20518   0.76191   0.25314   0.00000  Uiso   1.00
O555   O     0.22829   0.91420   0.25503   0.00000  Uiso   1.00
O556   O     0.10504   0.75247   0.24498   0.00000  Uiso   1.00
O557   O     0.08851   0.82597   0.30855   0.00000  Uiso   1.00
O558   O     0.24482   0.84070   0.19146   0.00000  Uiso   1.00
O559   O     0.18866   0.83540   0.31671   0.00000  Uiso   1.00
O560   O     0.14468   0.83126   0.18329   0.00000  Uiso   1.00
C561   C     0.51532   0.93327   0.25041   0.00000  Uiso   1.00
C562   C     0.54015   0.83691   0.16623   0.00000  Uiso   1.00
C563   C     0.43299   0.82563   0.38286   0.00000  Uiso   1.00
C564   C     0.56701   0.84103   0.11714   0.00000  Uiso   1.00
C565   C     0.35456   0.78411   0.44973   0.00000  Uiso   1.00
C566   C     0.64544   0.88254   0.05027   0.00000  Uiso   1.00
C567   C     0.36994   0.79605   0.40469   0.00000  Uiso   1.00
C568   C     0.63006   0.87061   0.09531   0.00000  Uiso   1.00
C569   C     0.47415   0.84966   0.40875   0.00000  Uiso   1.00
C570   C     0.52585   0.81699   0.09125   0.00000  Uiso   1.00
C571   C     0.46236   0.83066   0.45270   0.00000  Uiso   1.00
C572   C     0.48467   0.73340   0.24959   0.00000  Uiso   1.00
C573   C     0.53764   0.83599   0.04730   0.00000  Uiso   1.00
C574   C     0.40004   0.79975   0.47328   0.00000  Uiso   1.00
C575   C     0.59996   0.86690   0.02672   0.00000  Uiso   1.00
C576   C     0.50934   0.84108   0.47717   0.00000  Uiso   1.00
C577   C     0.49065   0.82556   0.02282   0.00000  Uiso   1.00
C578   C     0.48302   0.76357   0.10700   0.00000  Uiso   1.00
C579   C     0.51697   0.90308   0.39301   0.00000  Uiso   1.00
C580   C     0.35098   0.88759   0.11684   0.00000  Uiso   1.00
C581   C     0.35065   0.94077   0.13747   0.00000  Uiso   1.00
C582   C     0.41146   0.96139   0.15251   0.00000  Uiso   1.00
C583   C     0.42503   0.80249   0.04292   0.00000  Uiso   1.00
C584   C     0.64901   0.77908   0.38316   0.00000  Uiso   1.00
C585   C     0.64938   0.72594   0.36246   0.00000  Uiso   1.00
C586   C     0.58850   0.70526   0.34752   0.00000  Uiso   1.00
C587   C     0.59626   0.68517   0.22735   0.00000  Uiso   1.00
C588   C     0.40374   0.98150   0.27268   0.00000  Uiso   1.00
C589   C     0.57497   0.86415   0.45708   0.00000  Uiso   1.00
C590   C     0.38166   0.78715   0.01820   0.00000  Uiso   1.00
C591   C     0.61833   0.87949   0.48180   0.00000  Uiso   1.00
C592   C     0.52588   0.98880   0.24561   0.00000  Uiso   1.00
C593   C     0.47412   0.67786   0.25440   0.00000  Uiso   1.00
C594   C     0.45985   0.82976   0.33377   0.00000  Uiso   1.00
Cu595  Cu    0.44071   0.82775   0.24517   0.00000  Uiso   1.00
Cu596  Cu    0.55929   0.83892   0.25484   0.00000  Uiso   1.00
H597   H     0.66571   0.76700   0.03485   0.00000  Uiso   1.00
H598   H     0.47372   0.73917   0.07899   0.00000  Uiso   1.00
H599   H     0.50790   0.74214   0.12359   0.00000  Uiso   1.00
H600   H     0.52626   0.92748   0.42102   0.00000  Uiso   1.00
H601   H     0.56345   0.90011   0.36895   0.00000  Uiso   1.00
H602   H     0.49210   0.92451   0.37642   0.00000  Uiso   1.00
H603   H     0.41731   0.93225   0.17437   0.00000  Uiso   1.00
H604   H     0.45493   0.96973   0.12343   0.00000  Uiso   1.00
H605   H     0.40807   0.99798   0.17064   0.00000  Uiso   1.00
H606   H     0.34867   0.96904   0.11310   0.00000  Uiso   1.00
H607   H     0.64023   0.93686   0.16590   0.00000  Uiso   1.00
H608   H     0.33428   0.89964   0.46514   0.00000  Uiso   1.00
H609   H     0.34947   0.85800   0.14115   0.00000  Uiso   1.00
H610   H     0.39840   0.89046   0.09152   0.00000  Uiso   1.00
H611   H     0.54512   0.69686   0.37665   0.00000  Uiso   1.00
H612   H     0.58251   0.73440   0.32572   0.00000  Uiso   1.00
H613   H     0.59191   0.66870   0.32934   0.00000  Uiso   1.00
H614   H     0.35971   0.72993   0.33397   0.00000  Uiso   1.00
H615   H     0.65152   0.69767   0.38675   0.00000  Uiso   1.00
H616   H     0.60160   0.77617   0.40848   0.00000  Uiso   1.00
H617   H     0.65050   0.80871   0.35889   0.00000  Uiso   1.00
H618   H     0.63054   0.99291   0.21902   0.00000  Uiso   1.00
H619   H     0.63976   0.76179   0.46664   0.00000  Uiso   1.00
H620   H     0.60248   0.70735   0.19672   0.00000  Uiso   1.00
H621   H     0.61250   0.71117   0.25232   0.00000  Uiso   1.00
H622   H     0.36946   0.67376   0.28100   0.00000  Uiso   1.00
H623   H     0.38749   0.95548   0.24772   0.00000  Uiso   1.00
H624   H     0.39753   0.95933   0.30331   0.00000  Uiso   1.00
H625   H     0.36024   0.90486   0.03335   0.00000  Uiso   1.00
H626   H     0.40547   0.79649   0.07808   0.00000  Uiso   1.00
H627   H     0.59453   0.87016   0.42192   0.00000  Uiso   1.00
H628   H     0.66642   0.86799   0.28599   0.00000  Uiso   1.00
H629   H     0.33358   0.79867   0.21401   0.00000  Uiso   1.00
H630   H     0.43655   0.76655   0.13106   0.00000  Uiso   1.00
N631   N     0.64839   0.84735   0.26212   0.00000  Uiso   1.00
N632   N     0.35161   0.81932   0.23788   0.00000  Uiso   1.00
O633   O     0.46148   0.90476   0.24686   0.00000  Uiso   1.00
O634   O     0.53852   0.76191   0.25314   0.00000  Uiso   1.00
O635   O     0.56163   0.91420   0.25503   0.00000  Uiso   1.00
O636   O     0.43837   0.75247   0.24498   0.00000  Uiso   1.00
O637   O     0.42185   0.82597   0.30855   0.00000  Uiso   1.00
O638   O     0.57815   0.84070   0.19146   0.00000  Uiso   1.00
O639   O     0.52199   0.83540   0.31671   0.00000  Uiso   1.00
O640   O     0.47801   0.83126   0.18329   0.00000  Uiso   1.00
C641   C     0.84866   0.93327   0.25041   0.00000  Uiso   1.00
C642   C     0.87348   0.83691   0.16623   0.00000  Uiso   1.00
C643   C     0.76632   0.82563   0.38286   0.00000  Uiso   1.00
C644   C     0.90034   0.84103   0.11714   0.00000  Uiso   1.00
C645   C     0.68790   0.78411   0.44973   0.00000  Uiso   1.00
C646   C     0.97877   0.88254   0.05027   0.00000  Uiso   1.00
C647   C     0.70327   0.79605   0.40469   0.00000  Uiso   1.00
C648   C     0.96339   0.87061   0.09531   0.00000  Uiso   1.00
C649   C     0.80748   0.84966   0.40875   0.00000  Uiso   1.00
C650   C     0.85919   0.81699   0.09125   0.00000  Uiso   1.00
C651   C     0.79569   0.83066   0.45270   0.00000  Uiso   1.00
C652   C     0.81801   0.73340   0.24959   0.00000  Uiso   1.00
C653   C     0.87098   0.83599   0.04730   0.00000  Uiso   1.00
C654   C     0.73337   0.79975   0.47328   0.00000  Uiso   1.00
C655   C     0.93329   0.86690   0.02672   0.00000  Uiso   1.00
C656   C     0.84268   0.84108   0.47717   0.00000  Uiso   1.00
C657   C     0.82399   0.82556   0.02282   0.00000  Uiso   1.00
C658   C     0.81635   0.76357   0.10700   0.00000  Uiso   1.00
C659   C     0.85031   0.90308   0.39301   0.00000  Uiso   1.00
C660   C     0.68432   0.88759   0.11684   0.00000  Uiso   1.00
C661   C     0.68398   0.94077   0.13747   0.00000  Uiso   1.00
C662   C     0.74480   0.96139   0.15251   0.00000  Uiso   1.00
C663   C     0.75836   0.80249   0.04292   0.00000  Uiso   1.00
C664   C     0.98234   0.77908   0.38316   0.00000  Uiso   1.00
C665   C     0.98271   0.72594   0.36246   0.00000  Uiso   1.00
C666   C     0.92184   0.70526   0.34752   0.00000  Uiso   1.00
C667   C     0.92960   0.68517   0.22735   0.00000  Uiso   1.00
C668   C     0.73707   0.98150   0.27268   0.00000  Uiso   1.00
C669   C     0.90830   0.86415   0.45708   0.00000  Uiso   1.00
C670   C     0.71500   0.78715   0.01820   0.00000  Uiso   1.00
C671   C     0.95167   0.87949   0.48180   0.00000  Uiso   1.00
C672   C     0.85921   0.98880   0.24561   0.00000  Uiso   1.00
C673   C     0.80745   0.67786   0.25440   0.00000  Uiso   1.00
C674   C     0.79318   0.82976   0.33377   0.00000  Uiso   1.00
Cu675  Cu    0.77404   0.82775   0.24517   0.00000  Uiso   1.00
Cu676  Cu    0.89263   0.83892   0.25484   0.00000  Uiso   1.00
H677   H     0.99905   0.76700   0.03485   0.00000  Uiso   1.00
H678   H     0.80706   0.73917   0.07899   0.00000  Uiso   1.00
H679   H     0.84124   0.74214   0.12359   0.00000  Uiso   1.00
H680   H     0.85959   0.92748   0.42102   0.00000  Uiso   1.00
H681   H     0.89678   0.90011   0.36895   0.00000  Uiso   1.00
H682   H     0.82543   0.92451   0.37642   0.00000  Uiso   1.00
H683   H     0.75064   0.93225   0.17437   0.00000  Uiso   1.00
H684   H     0.78827   0.96973   0.12343   0.00000  Uiso   1.00
H685   H     0.74140   0.99798   0.17064   0.00000  Uiso   1.00
H686   H     0.68201   0.96904   0.11310   0.00000  Uiso   1.00
H687   H     0.97356   0.93686   0.16590   0.00000  Uiso   1.00
H688   H     0.66762   0.89964   0.46514   0.00000  Uiso   1.00
H689   H     0.68280   0.85800   0.14115   0.00000  Uiso   1.00
H690   H     0.73173   0.89046   0.09152   0.00000  Uiso   1.00
H691   H     0.87845   0.69686   0.37665   0.00000  Uiso   1.00
H692   H     0.91584   0.73440   0.32572   0.00000  Uiso   1.00
H693   H     0.92525   0.66870   0.32934   0.00000  Uiso   1.00
H694   H     0.69305   0.72993   0.33397   0.00000  Uiso   1.00
H695   H     0.98485   0.69767   0.38675   0.00000  Uiso   1.00
H696   H     0.93493   0.77617   0.40848   0.00000  Uiso   1.00
H697   H     0.98384   0.80871   0.35889   0.00000  Uiso   1.00
H698   H     0.96387   0.99291   0.21902   0.00000  Uiso   1.00
H699   H     0.97309   0.76179   0.46664   0.00000  Uiso   1.00
H700   H     0.93581   0.70735   0.19672   0.00000  Uiso   1.00
H701   H     0.94583   0.71117   0.25232   0.00000  Uiso   1.00
H702   H     0.70280   0.67376   0.28100   0.00000  Uiso   1.00
H703   H     0.72082   0.95548   0.24772   0.00000  Uiso   1.00
H704   H     0.73087   0.95933   0.30331   0.00000  Uiso   1.00
H705   H     0.69358   0.90486   0.03335   0.00000  Uiso   1.00
H706   H     0.73880   0.79649   0.07808   0.00000  Uiso   1.00
H707   H     0.92786   0.87016   0.42192   0.00000  Uiso   1.00
H708   H     0.99975   0.86799   0.28599   0.00000  Uiso   1.00
H709   H     0.66691   0.79867   0.21401   0.00000  Uiso   1.00
H710   H     0.76988   0.76655   0.13106   0.00000  Uiso   1.00
N711   N     0.98173   0.84735   0.26212   0.00000  Uiso   1.00
N712   N     0.68494   0.81932   0.23788   0.00000  Uiso   1.00
O713   O     0.79482   0.90476   0.24686   0.00000  Uiso   1.00
O714   O     0.87185   0.76191   0.25314   0.00000  Uiso   1.00
O715   O     0.89496   0.91420   0.25503   0.00000  Uiso   1.00
O716   O     0.77171   0.75247   0.24498   0.00000  Uiso   1.00
O717   O     0.75518   0.82597   0.30855   0.00000  Uiso   1.00
O718   O     0.91149   0.84070   0.19146   0.00000  Uiso   1.00
O719   O     0.85532   0.83540   0.31671   0.00000  Uiso   1.00
O720   O     0.81134   0.83126   0.18329   0.00000  Uiso   1.00
C721   C     0.18199   0.26660   0.75041   0.00000  Uiso   1.00
C722   C     0.20681   0.17024   0.66623   0.00000  Uiso   1.00
C723   C     0.09966   0.15896   0.88286   0.00000  Uiso   1.00
C724   C     0.23367   0.17436   0.61714   0.00000  Uiso   1.00
C725   C     0.02123   0.11744   0.94973   0.00000  Uiso   1.00
C726   C     0.31210   0.21587   0.55027   0.00000  Uiso   1.00
C727   C     0.03660   0.12938   0.90469   0.00000  Uiso   1.00
C728   C     0.29673   0.20394   0.59531   0.00000  Uiso   1.00
C729   C     0.14081   0.18299   0.90875   0.00000  Uiso   1.00
C730   C     0.19252   0.15032   0.59125   0.00000  Uiso   1.00
C731   C     0.12902   0.16399   0.95270   0.00000  Uiso   1.00
C732   C     0.15134   0.06673   0.74959   0.00000  Uiso   1.00
C733   C     0.20431   0.16932   0.54730   0.00000  Uiso   1.00
C734   C     0.06671   0.13308   0.97328   0.00000  Uiso   1.00
C735   C     0.26662   0.20023   0.52672   0.00000  Uiso   1.00
C736   C     0.17601   0.17441   0.97717   0.00000  Uiso   1.00
C737   C     0.15732   0.15890   0.52282   0.00000  Uiso   1.00
C738   C     0.14969   0.09690   0.60700   0.00000  Uiso   1.00
C739   C     0.18364   0.23642   0.89301   0.00000  Uiso   1.00
C740   C     0.01765   0.22093   0.61684   0.00000  Uiso   1.00
C741   C     0.01731   0.27410   0.63747   0.00000  Uiso   1.00
C742   C     0.07813   0.29473   0.65251   0.00000  Uiso   1.00
C743   C     0.09169   0.13582   0.54292   0.00000  Uiso   1.00
C744   C     0.31568   0.11241   0.88316   0.00000  Uiso   1.00
C745   C     0.31605   0.05928   0.86246   0.00000  Uiso   1.00
C746   C     0.25517   0.03860   0.84752   0.00000  Uiso   1.00
C747   C     0.26293   0.01850   0.72735   0.00000  Uiso   1.00
C748   C     0.07040   0.31483   0.77268   0.00000  Uiso   1.00
C749   C     0.24164   0.19749   0.95708   0.00000  Uiso   1.00
C750   C     0.04833   0.12048   0.51820   0.00000  Uiso   1.00
C751   C     0.28500   0.21283   0.98180   0.00000  Uiso   1.00
C752   C     0.19254   0.32214   0.74561   0.00000  Uiso   1.00
C753   C     0.14079   0.01120   0.75440   0.00000  Uiso   1.00
C754   C     0.12652   0.16309   0.83377   0.00000  Uiso   1.00
Cu755  Cu    0.10737   0.16108   0.74517   0.00000  Uiso   1.00
Cu756  Cu    0.22596   0.17225   0.75484   0.00000  Uiso   1.00
H757   H     0.33238   0.10033   0.53485   0.00000  Uiso   1.00
H758   H     0.14039   0.07250   0.57899   0.00000  Uiso   1.00
H759   H     0.17457   0.07547   0.62359   0.00000  Uiso   1.00
H760   H     0.19293   0.26081   0.92102   0.00000  Uiso   1.00
H761   H     0.23012   0.23344   0.86895   0.00000  Uiso   1.00
H762   H     0.15876   0.25785   0.87642   0.00000  Uiso   1.00
H763   H     0.08398   0.26558   0.67437   0.00000  Uiso   1.00
H764   H     0.12160   0.30306   0.62343   0.00000  Uiso   1.00
H765   H     0.07473   0.33131   0.67064   0.00000  Uiso   1.00
H766   H     0.01534   0.30237   0.61310   0.00000  Uiso   1.00
H767   H     0.30690   0.27019   0.66590   0.00000  Uiso   1.00
H768   H     0.00095   0.23297   0.96514   0.00000  Uiso   1.00
H769   H     0.01614   0.19133   0.64115   0.00000  Uiso   1.00
H770   H     0.06506   0.22380   0.59152   0.00000  Uiso   1.00
H771   H     0.21178   0.03020   0.87665   0.00000  Uiso   1.00
H772   H     0.24917   0.06773   0.82572   0.00000  Uiso   1.00
H773   H     0.25858   0.00203   0.82934   0.00000  Uiso   1.00
H774   H     0.02638   0.06326   0.83397   0.00000  Uiso   1.00
H775   H     0.31819   0.03101   0.88675   0.00000  Uiso   1.00
H776   H     0.26826   0.10950   0.90848   0.00000  Uiso   1.00
H777   H     0.31717   0.14204   0.85889   0.00000  Uiso   1.00
H778   H     0.29721   0.32624   0.71902   0.00000  Uiso   1.00
H779   H     0.30642   0.09512   0.96664   0.00000  Uiso   1.00
H780   H     0.26915   0.04068   0.69672   0.00000  Uiso   1.00
H781   H     0.27916   0.04451   0.75232   0.00000  Uiso   1.00
H782   H     0.03613   0.00709   0.78100   0.00000  Uiso   1.00
H783   H     0.05416   0.28882   0.74772   0.00000  Uiso   1.00
H784   H     0.06420   0.29267   0.80331   0.00000  Uiso   1.00
H785   H     0.02691   0.23819   0.53335   0.00000  Uiso   1.00
H786   H     0.07213   0.12982   0.57808   0.00000  Uiso   1.00
H787   H     0.26120   0.20349   0.92192   0.00000  Uiso   1.00
H788   H     0.33309   0.20132   0.78599   0.00000  Uiso   1.00
H789   H     0.00024   0.13201   0.71401   0.00000  Uiso   1.00
H790   H     0.10322   0.09988   0.63106   0.00000  Uiso   1.00
N791   N     0.31506   0.18068   0.76212   0.00000  Uiso   1.00
N792   N     0.01827   0.15265   0.73788   0.00000  Uiso   1.00
O793   O     0.12815   0.23809   0.74686   0.00000  Uiso   1.00
O794   O     0.20518   0.09524   0.75314   0.00000  Uiso   1.00
O795   O     0.22829   0.24753   0.75503   0.00000  Uiso   1.00
O796   O     0.10504   0.08580   0.74498   0.00000  Uiso   1.00
O797   O     0.08851   0.15930   0.80855   0.00000  Uiso   1.00
O798   O     0.24482   0.17403   0.69146   0.00000  Uiso   1.00
O799   O     0.18866   0.16874   0.81671   0.00000  Uiso   1.00
O800   O     0.14468   0.16460   0.68329   0.00000  Uiso   1.00
C801   C     0.51532   0.26660   0.75041   0.00000  Uiso   1.00
C802   C     0.54015   0.17024   0.66623   0.00000  Uiso   1.00
C803   C     0.43299   0.15896   0.88286   0.00000  Uiso   1.00
C804   C     0.56701   0.17436   0.61714   0.00000  Uiso   1.00
C805   C     0.35456   0.11744   0.94973   0.00000  Uiso   1.00
C806   C     0.64544   0.21587   0.55027   0.00000  Uiso   1.00
C807   C     0.36994   0.12938   0.90469   0.00000  Uiso   1.00
C808   C     0.63006   0.20394   0.59531   0.00000  Uiso   1.00
C809   C     0.47415   0.18299   0.90875   0.00000  Uiso   1.00
C810   C     0.52585   0.15032   0.59125   0.00000  Uiso   1.00
C811   C     0.46236   0.16399   0.95270   0.00000  Uiso   1.00
C812   C     0.48467   0.06673   0.74959   0.00000  Uiso   1.00
C813   C     0.53764   0.16932   0.54730   0.00000  Uiso   1.00
C814   C     0.40004   0.13308   0.97328   0.00000  Uiso   1.00
C815   C     0.59996   0.20023   0.52672   0.00000  Uiso   1.00
C816   C     0.50934   0.17441   0.97717   0.00000  Uiso   1.00
C817   C     0.49065   0.15890   0.52282   0.00000  Uiso   1.00
C818   C     0.48302   0.09690   0.60700   0.00000  Uiso   1.00
C819   C     0.51697   0.23642   0.89301   0.00000  Uiso   1.00
C820   C     0.35098   0.22093   0.61684   0.00000  Uiso   1.00
C821   C     0.35065   0.27410   0.63747   0.00000  Uiso   1.00
C822   C     0.41146   0.29473   0.65251   0.00000  Uiso   1.00
C823   C     0.42503   0.13582   0.54292   0.00000  Uiso   1.00
C824   C     0.64901   0.11241   0.88316   0.00000  Uiso   1.00
C825   C     0.64938   0.05928   0.86246   0.00000  Uiso   1.00
C826   C     0.58850   0.03860   0.84752   0.00000  Uiso   1.00
C827   C     0.59626   0.01850   0.72735   0.00000  Uiso   1.00
C828   C     0.40374   0.31483   0.77268   0.00000  Uiso   1.00
C829   C     0.57497   0.19749   0.95708   0.00000  Uiso   1.00
C830   C     0.38166   0.12048   0.51820   0.00000  Uiso   1.00
C831   C     0.61833   0.21283   0.98180   0.00000  Uiso   1.00
C832   C     0.52588   0.32214   0.74561   0.00000  Uiso   1.00
C833   C     0.47412   0.01120   0.75440   0.00000  Uiso   1.00
C834   C     0.45985   0.16309   0.83377   0.00000  Uiso   1.00
Cu835  Cu    0.44071   0.16108   0.74517   0.00000  Uiso   1.00
Cu836  Cu    0.55929   0.17225   0.75484   0.00000  Uiso   1.00
H837   H     0.66571   0.10033   0.53485   0.00000  Uiso   1.00
H838   H     0.47372   0.07250   0.57899   0.00000  Uiso   1.00
H839   H     0.50790   0.07547   0.62359   0.00000  Uiso   1.00
H840   H     0.52626   0.26081   0.92102   0.00000  Uiso   1.00
H841   H     0.56345   0.23344   0.86895   0.00000  Uiso   1.00
H842   H     0.49210   0.25785   0.87642   0.00000  Uiso   1.00
H843   H     0.41731   0.26558   0.67437   0.00000  Uiso   1.00
H844   H     0.45493   0.30306   0.62343   0.00000  Uiso   1.00
H845   H     0.40807   0.33131   0.67064   0.00000  Uiso   1.00
H846   H     0.34867   0.30237   0.61310   0.00000  Uiso   1.00
H847   H     0.64023   0.27019   0.66590   0.00000  Uiso   1.00
H848   H     0.33428   0.23297   0.96514   0.00000  Uiso   1.00
H849   H     0.34947   0.19133   0.64115   0.00000  Uiso   1.00
H850   H     0.39840   0.22380   0.59152   0.00000  Uiso   1.00
H851   H     0.54512   0.03020   0.87665   0.00000  Uiso   1.00
H852   H     0.58251   0.06773   0.82572   0.00000  Uiso   1.00
H853   H     0.59191   0.00203   0.82934   0.00000  Uiso   1.00
H854   H     0.35971   0.06326   0.83397   0.00000  Uiso   1.00
H855   H     0.65152   0.03101   0.88675   0.00000  Uiso   1.00
H856   H     0.60160   0.10950   0.90848   0.00000  Uiso   1.00
H857   H     0.65050   0.14204   0.85889   0.00000  Uiso   1.00
H858   H     0.63054   0.32624   0.71902   0.00000  Uiso   1.00
H859   H     0.63976   0.09512   0.96664   0.00000  Uiso   1.00
H860   H     0.60248   0.04068   0.69672   0.00000  Uiso   1.00
H861   H     0.61250   0.04451   0.75232   0.00000  Uiso   1.00
H862   H     0.36946   0.00709   0.78100   0.00000  Uiso   1.00
H863   H     0.38749   0.28882   0.74772   0.00000  Uiso   1.00
H864   H     0.39753   0.29267   0.80331   0.00000  Uiso   1.00
H865   H     0.36024   0.23819   0.53335   0.00000  Uiso   1.00
H866   H     0.40547   0.12982   0.57808   0.00000  Uiso   1.00
H867   H     0.59453   0.20349   0.92192   0.00000  Uiso   1.00
H868   H     0.66642   0.20132   0.78599   0.00000  Uiso   1.00
H869   H     0.33358   0.13201   0.71401   0.00000  Uiso   1.00
H870   H     0.43655   0.09988   0.63106   0.00000  Uiso   1.00
N871   N     0.64839   0.18068   0.76212   0.00000  Uiso   1.00
N872   N     0.35161   0.15265   0.73788   0.00000  Uiso   1.00
O873   O     0.46148   0.23809   0.74686   0.00000  Uiso   1.00
O874   O     0.53852   0.09524   0.75314   0.00000  Uiso   1.00
O875   O     0.56163   0.24753   0.75503   0.00000  Uiso   1.00
O876   O     0.43837   0.08580   0.74498   0.00000  Uiso   1.00
O877   O     0.42185   0.15930   0.80855   0.00000  Uiso   1.00
O878   O     0.57815   0.17403   0.69146   0.00000  Uiso   1.00
O879   O     0.52199   0.16874   0.81671   0.00000  Uiso   1.00
O880   O     0.47801   0.16460   0.68329   0.00000  Uiso   1.00
C881   C     0.84866   0.26660   0.75041   0.00000  Uiso   1.00
C882   C     0.87348   0.17024   0.66623   0.00000  Uiso   1.00
C883   C     0.76632   0.15896   0.88286   0.00000  Uiso   1.00
C884   C     0.90034   0.17436   0.61714   0.00000  Uiso   1.00
C885   C     0.68790   0.11744   0.94973   0.00000  Uiso   1.00
C886   C     0.97877   0.21587   0.55027   0.00000  Uiso   1.00
C887   C     0.70327   0.12938   0.90469   0.00000  Uiso   1.00
C888   C     0.96339   0.20394   0.59531   0.00000  Uiso   1.00
C889   C     0.80748   0.18299   0.90875   0.00000  Uiso   1.00
C890   C     0.85919   0.15032   0.59125   0.00000  Uiso   1.00
C891   C     0.79569   0.16399   0.95270   0.00000  Uiso   1.00
C892   C     0.81801   0.06673   0.74959   0.00000  Uiso   1.00
C893   C     0.87098   0.16932   0.54730   0.00000  Uiso   1.00
C894   C     0.73337   0.13308   0.97328   0.00000  Uiso   1.00
C895   C     0.93329   0.20023   0.52672   0.00000  Uiso   1.00
C896   C     0.84268   0.17441   0.97717   0.00000  Uiso   1.00
C897   C     0.82399   0.15890   0.52282   0.00000  Uiso   1.00
C898   C     0.81635   0.09690   0.60700   0.00000  Uiso   1.00
C899   C     0.85031   0.23642   0.89301   0.00000  Uiso   1.00
C900   C     0.68432   0.22093   0.61684   0.00000  Uiso   1.00
C901   C     0.68398   0.27410   0.63747   0.00000  Uiso   1.00
C902   C     0.74480   0.29473   0.65251   0.00000  Uiso   1.00
C903   C     0.75836   0.13582   0.54292   0.00000  Uiso   1.00
C904   C     0.98234   0.11241   0.88316   0.00000  Uiso   1.00
C905   C     0.98271   0.05928   0.86246   0.00000  Uiso   1.00
C906   C     0.92184   0.03860   0.84752   0.00000  Uiso   1.00
C907   C     0.92960   0.01850   0.72735   0.00000  Uiso   1.00
C908   C     0.73707   0.31483   0.77268   0.00000  Uiso   1.00
C909   C     0.90830   0.19749   0.95708   0.00000  Uiso   1.00
C910   C     0.71500   0.12048   0.51820   0.00000  Uiso   1.00
C911   C     0.95167   0.21283   0.98180   0.00000  Uiso   1.00
C912   C     0.85921   0.32214   0.74561   0.00000  Uiso   1.00
C913   C     0.80745   0.01120   0.75440   0.00000  Uiso   1.00
C914   C     0.79318   0.16309   0.83377   0.00000  Uiso   1.00
Cu915  Cu    0.77404   0.16108   0.74517   0.00000  Uiso   1.00
Cu916  Cu    0.89263   0.17225   0.75484   0.00000  Uiso   1.00
H917   H     0.99905   0.10033   0.53485   0.00000  Uiso   1.00
H918   H     0.80706   0.07250   0.57899   0.00000  Uiso   1.00
H919   H     0.84124   0.07547   0.62359   0.00000  Uiso   1.00
H920   H     0.85959   0.26081   0.92102   0.00000  Uiso   1.00
H921   H     0.89678   0.23344   0.86895   0.00000  Uiso   1.00
H922   H     0.82543   0.25785   0.87642   0.00000  Uiso   1.00
H923   H     0.75064   0.26558   0.67437   0.00000  Uiso   1.00
H924   H     0.78827   0.30306   0.62343   0.00000  Uiso   1.00
H925   H     0.74140   0.33131   0.67064   0.00000  Uiso   1.00
H926   H     0.68201   0.30237   0.61310   0.00000  Uiso   1.00
H927   H     0.97356   0.27019   0.66590   0.00000  Uiso   1.00
H928   H     0.66762   0.23297   0.96514   0.00000  Uiso   1.00
H929   H     0.68280   0.19133   0.64115   0.00000  Uiso   1.00
H930   H     0.73173   0.22380   0.59152   0.00000  Uiso   1.00
H931   H     0.87845   0.03020   0.87665   0.00000  Uiso   1.00
H932   H     0.91584   0.06773   0.82572   0.00000  Uiso   1.00
H933   H     0.92525   0.00203   0.82934   0.00000  Uiso   1.00
H934   H     0.69305   0.06326   0.83397   0.00000  Uiso   1.00
H935   H     0.98485   0.03101   0.88675   0.00000  Uiso   1.00
H936   H     0.93493   0.10950   0.90848   0.00000  Uiso   1.00
H937   H     0.98384   0.14204   0.85889   0.00000  Uiso   1.00
H938   H     0.96387   0.32624   0.71902   0.00000  Uiso   1.00
H939   H     0.97309   0.09512   0.96664   0.00000  Uiso   1.00
H940   H     0.93581   0.04068   0.69672   0.00000  Uiso   1.00
H941   H     0.94583   0.04451   0.75232   0.00000  Uiso   1.00
H942   H     0.70280   0.00709   0.78100   0.00000  Uiso   1.00
H943   H     0.72082   0.28882   0.74772   0.00000  Uiso   1.00
H944   H     0.73087   0.29267   0.80331   0.00000  Uiso   1.00
H945   H     0.69358   0.23819   0.53335   0.00000  Uiso   1.00
H946   H     0.73880   0.12982   0.57808   0.00000  Uiso   1.00
H947   H     0.92786   0.20349   0.92192   0.00000  Uiso   1.00
H948   H     0.99975   0.20132   0.78599   0.00000  Uiso   1.00
H949   H     0.66691   0.13201   0.71401   0.00000  Uiso   1.00
H950   H     0.76988   0.09988   0.63106   0.00000  Uiso   1.00
N951   N     0.98173   0.18068   0.76212   0.00000  Uiso   1.00
N952   N     0.68494   0.15265   0.73788   0.00000  Uiso   1.00
O953   O     0.79482   0.23809   0.74686   0.00000  Uiso   1.00
O954   O     0.87185   0.09524   0.75314   0.00000  Uiso   1.00
O955   O     0.89496   0.24753   0.75503   0.00000  Uiso   1.00
O956   O     0.77171   0.08580   0.74498   0.00000  Uiso   1.00
O957   O     0.75518   0.15930   0.80855   0.00000  Uiso   1.00
O958   O     0.91149   0.17403   0.69146   0.00000  Uiso   1.00
O959   O     0.85532   0.16874   0.81671   0.00000  Uiso   1.00
O960   O     0.81134   0.16460   0.68329   0.00000  Uiso   1.00
C961   C     0.18199   0.59993   0.75041   0.00000  Uiso   1.00
C962   C     0.20681   0.50357   0.66623   0.00000  Uiso   1.00
C963   C     0.09966   0.49229   0.88286   0.00000  Uiso   1.00
C964   C     0.23367   0.50770   0.61714   0.00000  Uiso   1.00
C965   C     0.02123   0.45078   0.94973   0.00000  Uiso   1.00
C966   C     0.31210   0.54920   0.55027   0.00000  Uiso   1.00
C967   C     0.03660   0.46272   0.90469   0.00000  Uiso   1.00
C968   C     0.29673   0.53727   0.59531   0.00000  Uiso   1.00
C969   C     0.14081   0.51633   0.90875   0.00000  Uiso   1.00
C970   C     0.19252   0.48366   0.59125   0.00000  Uiso   1.00
C971   C     0.12902   0.49733   0.95270   0.00000  Uiso   1.00
C972   C     0.15134   0.40007   0.74959   0.00000  Uiso   1.00
C973   C     0.20431   0.50265   0.54730   0.00000  Uiso   1.00
C974   C     0.06671   0.46641   0.97328   0.00000  Uiso   1.00
C975   C     0.26662   0.53356   0.52672   0.00000  Uiso   1.00
C976   C     0.17601   0.50774   0.97717   0.00000  Uiso   1.00
C977   C     0.15732   0.49223   0.52282   0.00000  Uiso   1.00
C978   C     0.14969   0.43024   0.60700   0.00000  Uiso   1.00
C979   C     0.18364   0.56975   0.89301   0.00000  Uiso   1.00
C980   C     0.01765   0.55426   0.61684   0.00000  Uiso   1.00
C981   C     0.01731   0.60744   0.63747   0.00000  Uiso   1.00
C982   C     0.07813   0.62806   0.65251   0.00000  Uiso   1.00
C983   C     0.09169   0.46916   0.54292   0.00000  Uiso   1.00
C984   C     0.31568   0.44575   0.88316   0.00000  Uiso   1.00
C985   C     0.31605   0.39261   0.86246   0.00000  Uiso   1.00
C986   C     0.25517   0.37193   0.84752   0.00000  Uiso   1.00
C987   C     0.26293   0.35183   0.72735   0.00000  Uiso   1.00
C988   C     0.07040   0.64817   0.77268   0.00000  Uiso   1.00
C989   C     0.24164   0.53082   0.95708   0.00000  Uiso   1.00
C990   C     0.04833   0.45381   0.51820   0.00000  Uiso   1.00
C991   C     0.28500   0.54616   0.98180   0.00000  Uiso   1.00
C992   C     0.19254   0.65547   0.74561   0.00000  Uiso   1.00
C993   C     0.14079   0.34453   0.75440   0.00000  Uiso   1.00
C994   C     0.12652   0.49643   0.83377   0.00000  Uiso   1.00
Cu995  Cu    0.10737   0.49441   0.74517   0.00000  Uiso   1.00
Cu996  Cu    0.22596   0.50559   0.75484   0.00000  Uiso   1.00
H997   H     0.33238   0.43367   0.53485   0.00000  Uiso   1.00
H998   H     0.14039   0.40584   0.57899   0.00000  Uiso   1.00
H999   H     0.17457   0.40881   0.62359   0.00000  Uiso   1.00
H1000  H     0.19293   0.59415   0.92102   0.00000  Uiso   1.00
H1001  H     0.23012   0.56677   0.86895   0.00000  Uiso   1.00
H1002  H     0.15876   0.59118   0.87642   0.00000  Uiso   1.00
H1003  H     0.08398   0.59891   0.67437   0.00000  Uiso   1.00
H1004  H     0.12160   0.63640   0.62343   0.00000  Uiso   1.00
H1005  H     0.07473   0.66465   0.67064   0.00000  Uiso   1.00
H1006  H     0.01534   0.63570   0.61310   0.00000  Uiso   1.00
H1007  H     0.30690   0.60353   0.66590   0.00000  Uiso   1.00
H1008  H     0.00095   0.56631   0.96514   0.00000  Uiso   1.00
H1009  H     0.01614   0.52467   0.64115   0.00000  Uiso   1.00
H1010  H     0.06506   0.55713   0.59152   0.00000  Uiso   1.00
H1011  H     0.21178   0.36353   0.87665   0.00000  Uiso   1.00
H1012  H     0.24917   0.40107   0.82572   0.00000  Uiso   1.00
H1013  H     0.25858   0.33537   0.82934   0.00000  Uiso   1.00
H1014  H     0.02638   0.39660   0.83397   0.00000  Uiso   1.00
H1015  H     0.31819   0.36434   0.88675   0.00000  Uiso   1.00
H1016  H     0.26826   0.44283   0.90848   0.00000  Uiso   1.00
H1017  H     0.31717   0.47537   0.85889   0.00000  Uiso   1.00
H1018  H     0.29721   0.65957   0.71902   0.00000  Uiso   1.00
H1019  H     0.30642   0.42846   0.96664   0.00000  Uiso   1.00
H1020  H     0.26915   0.37401   0.69672   0.00000  Uiso   1.00
H1021  H     0.27916   0.37784   0.75232   0.00000  Uiso   1.00
H1022  H     0.03613   0.34042   0.78100   0.00000  Uiso   1.00
H1023  H     0.05416   0.62215   0.74772   0.00000  Uiso   1.00
H1024  H     0.06420   0.62600   0.80331   0.00000  Uiso   1.00
H1025  H     0.02691   0.57152   0.53335   0.00000  Uiso   1.00
H1026  H     0.07213   0.46315   0.57808   0.00000  Uiso   1.00
H1027  H     0.26120   0.53682   0.92192   0.00000  Uiso   1.00
H1028  H     0.33309   0.53466   0.78599   0.00000  Uiso   1.00
H1029  H     0.00024   0.46534   0.71401   0.00000  Uiso   1.00
H1030  H     0.10322   0.43322   0.63106   0.00000  Uiso   1.00
N1031  N     0.31506   0.51401   0.76212   0.00000  Uiso   1.00
N1032  N     0.01827   0.48599   0.73788   0.00000  Uiso   1.00
O1033  O     0.12815   0.57142   0.74686   0.00000  Uiso   1.00
O1034  O     0.20518   0.42858   0.75314   0.00000  Uiso   1.00
O1035  O     0.22829   0.58086   0.75503   0.00000  Uiso   1.00
O1036  O     0.10504   0.41914   0.74498   0.00000  Uiso   1.00
O1037  O     0.08851   0.49263   0.80855   0.00000  Uiso   1.00
O1038  O     0.24482   0.50737   0.69146   0.00000  Uiso   1.00
O1039  O     0.18866   0.50207   0.81671   0.00000  Uiso   1.00
O1040  O     0.14468   0.49793   0.68329   0.00000  Uiso   1.00
C1041  C     0.51532   0.59993   0.75041   0.00000  Uiso   1.00
C1042  C     0.54015   0.50357   0.66623   0.00000  Uiso   1.00
C1043  C     0.43299   0.49229   0.88286   0.00000  Uiso   1.00
C1044  C     0.56701   0.50770   0.61714   0.00000  Uiso   1.00
C1045  C     0.35456   0.45078   0.94973   0.00000  Uiso   1.00
C1046  C     0.64544   0.54920   0.55027   0.00000  Uiso   1.00
C1047  C     0.36994   0.46272   0.90469   0.00000  Uiso   1.00
C1048  C     0.63006   0.53727   0.59531   0.00000  Uiso   1.00
C1049  C     0.47415   0.51633   0.90875   0.00000  Uiso   1.00
C1050  C     0.52585   0.48366   0.59125   0.00000  Uiso   1.00
C1051  C     0.46236   0.49733   0.95270   0.00000  Uiso   1.00
C1052  C     0.48467   0.40007   0.74959   0.00000  Uiso   1.00
C1053  C     0.53764   0.50265   0.54730   0.00000  Uiso   1.00
C1054  C     0.40004   0.46641   0.97328   0.00000  Uiso   1.00
C1055  C     0.59996   0.53356   0.52672   0.00000  Uiso   1.00
C1056  C     0.50934   0.50774   0.97717   0.00000  Uiso   1.00
C1057  C     0.49065   0.49223   0.52282   0.00000  Uiso   1.00
C1058  C     0.48302   0.43024   0.60700   0.00000  Uiso   1.00
C1059  C     0.51697   0.56975   0.89301   0.00000  Uiso   1.00
C1060  C     0.35098   0.55426   0.61684   0.00000  Uiso   1.00
C1061  C     0.35065   0.60744   0.63747   0.00000  Uiso   1.00
C1062  C     0.41146   0.62806   0.65251   0.00000  Uiso   1.00
C1063  C     0.42503   0.46916   0.54292   0.00000  Uiso   1.00
C1064  C     0.64901   0.44575   0.88316   0.00000  Uiso   1.00
C1065  C     0.64938   0.39261   0.86246   0.00000  Uiso   1.00
C1066  C     0.58850   0.37193   0.84752   0.00000  Uiso   1.00
C1067  C     0.59626   0.35183   0.72735   0.00000  Uiso   1.00
C1068  C     0.40374   0.64817   0.77268   0.00000  Uiso   1.00
C1069  C     0.57497   0.53082   0.95708   0.00000  Uiso   1.00
C1070  C     0.38166   0.45381   0.51820   0.00000  Uiso   1.00
C1071  C     0.61833   0.54616   0.98180   0.00000  Uiso   1.00
C1072  C     0.52588   0.65547   0.74561   0.00000  Uiso   1.00
C1073  C     0.47412   0.34453   0.75440   0.00000  Uiso   1.00
C1074  C     0.45985   0.49643   0.83377   0.00000  Uiso   1.00
Cu1075 Cu    0.44071   0.49441   0.74517   0.00000  Uiso   1.00
Cu1076 Cu    0.55929   0.50559   0.75484   0.00000  Uiso   1.00
H1077  H     0.66571   0.43367   0.53485   0.00000  Uiso   1.00
H1078  H     0.47372   0.40584   0.57899   0.00000  Uiso   1.00
H1079  H     0.50790   0.40881   0.62359   0.00000  Uiso   1.00
H1080  H     0.52626   0.59415   0.92102   0.00000  Uiso   1.00
H1081  H     0.56345   0.56677   0.86895   0.00000  Uiso   1.00
H1082  H     0.49210   0.59118   0.87642   0.00000  Uiso   1.00
H1083  H     0.41731   0.59891   0.67437   0.00000  Uiso   1.00
H1084  H     0.45493   0.63640   0.62343   0.00000  Uiso   1.00
H1085  H     0.40807   0.66465   0.67064   0.00000  Uiso   1.00
H1086  H     0.34867   0.63570   0.61310   0.00000  Uiso   1.00
H1087  H     0.64023   0.60353   0.66590   0.00000  Uiso   1.00
H1088  H     0.33428   0.56631   0.96514   0.00000  Uiso   1.00
H1089  H     0.34947   0.52467   0.64115   0.00000  Uiso   1.00
H1090  H     0.39840   0.55713   0.59152   0.00000  Uiso   1.00
H1091  H     0.54512   0.36353   0.87665   0.00000  Uiso   1.00
H1092  H     0.58251   0.40107   0.82572   0.00000  Uiso   1.00
H1093  H     0.59191   0.33537   0.82934   0.00000  Uiso   1.00
H1094  H     0.35971   0.39660   0.83397   0.00000  Uiso   1.00
H1095  H     0.65152   0.36434   0.88675   0.00000  Uiso   1.00
H1096  H     0.60160   0.44283   0.90848   0.00000  Uiso   1.00
H1097  H     0.65050   0.47537   0.85889   0.00000  Uiso   1.00
H1098  H     0.63054   0.65957   0.71902   0.00000  Uiso   1.00
H1099  H     0.63976   0.42846   0.96664   0.00000  Uiso   1.00
H1100  H     0.60248   0.37401   0.69672   0.00000  Uiso   1.00
H1101  H     0.61250   0.37784   0.75232   0.00000  Uiso   1.00
H1102  H     0.36946   0.34042   0.78100   0.00000  Uiso   1.00
H1103  H     0.38749   0.62215   0.74772   0.00000  Uiso   1.00
H1104  H     0.39753   0.62600   0.80331   0.00000  Uiso   1.00
H1105  H     0.36024   0.57152   0.53335   0.00000  Uiso   1.00
H1106  H     0.40547   0.46315   0.57808   0.00000  Uiso   1.00
H1107  H     0.59453   0.53682   0.92192   0.00000  Uiso   1.00
H1108  H     0.66642   0.53466   0.78599   0.00000  Uiso   1.00
H1109  H     0.33358   0.46534   0.71401   0.00000  Uiso   1.00
H1110  H     0.43655   0.43322   0.63106   0.00000  Uiso   1.00
N1111  N     0.64839   0.51401   0.76212   0.00000  Uiso   1.00
N1112  N     0.35161   0.48599   0.73788   0.00000  Uiso   1.00
O1113  O     0.46148   0.57142   0.74686   0.00000  Uiso   1.00
O1114  O     0.53852   0.42858   0.75314   0.00000  Uiso   1.00
O1115  O     0.56163   0.58086   0.75503   0.00000  Uiso   1.00
O1116  O     0.43837   0.41914   0.74498   0.00000  Uiso   1.00
O1117  O     0.42185   0.49263   0.80855   0.00000  Uiso   1.00
O1118  O     0.57815   0.50737   0.69146   0.00000  Uiso   1.00
O1119  O     0.52199   0.50207   0.81671   0.00000  Uiso   1.00
O1120  O     0.47801   0.49793   0.68329   0.00000  Uiso   1.00
C1121  C     0.84866   0.59993   0.75041   0.00000  Uiso   1.00
C1122  C     0.87348   0.50357   0.66623   0.00000  Uiso   1.00
C1123  C     0.76632   0.49229   0.88286   0.00000  Uiso   1.00
C1124  C     0.90034   0.50770   0.61714   0.00000  Uiso   1.00
C1125  C     0.68790   0.45078   0.94973   0.00000  Uiso   1.00
C1126  C     0.97877   0.54920   0.55027   0.00000  Uiso   1.00
C1127  C     0.70327   0.46272   0.90469   0.00000  Uiso   1.00
C1128  C     0.96339   0.53727   0.59531   0.00000  Uiso   1.00
C1129  C     0.80748   0.51633   0.90875   0.00000  Uiso   1.00
C1130  C     0.85919   0.48366   0.59125   0.00000  Uiso   1.00
C1131  C     0.79569   0.49733   0.95270   0.00000  Uiso   1.00
C1132  C     0.81801   0.40007   0.74959   0.00000  Uiso   1.00
C1133  C     0.87098   0.50265   0.54730   0.00000  Uiso   1.00
C1134  C     0.73337   0.46641   0.97328   0.00000  Uiso   1.00
C1135  C     0.93329   0.53356   0.52672   0.00000  Uiso   1.00
C1136  C     0.84268   0.50774   0.97717   0.00000  Uiso   1.00
C1137  C     0.82399   0.49223   0.52282   0.00000  Uiso   1.00
C1138  C     0.81635   0.43024   0.60700   0.00000  Uiso   1.00
C1139  C     0.85031   0.56975   0.89301   0.00000  Uiso   1.00
C1140  C     0.68432   0.55426   0.61684   0.00000  Uiso   1.00
C1141  C     0.68398   0.60744   0.63747   0.00000  Uiso   1.00
C1142  C     0.74480   0.62806   0.65251   0.00000  Uiso   1.00
C1143  C     0.75836   0.46916   0.54292   0.00000  Uiso   1.00
C1144  C     0.98234   0.44575   0.88316   0.00000  Uiso   1.00
C1145  C     0.98271   0.39261   0.86246   0.00000  Uiso   1.00
C1146  C     0.92184   0.37193   0.84752   0.00000  Uiso   1.00
C1147  C     0.92960   0.35183   0.72735   0.00000  Uiso   1.00
C1148  C     0.73707   0.64817   0.77268   0.00000  Uiso   1.00
C1149  C     0.90830   0.53082   0.95708   0.00000  Uiso   1.00
C1150  C     0.71500   0.45381   0.51820   0.00000  Uiso   1.00
C1151  C     0.95167   0.54616   0.98180   0.00000  Uiso   1.00
C1152  C     0.85921   0.65547   0.74561   0.00000  Uiso   1.00
C1153  C     0.80745   0.34453   0.75440   0.00000  Uiso   1.00
C1154  C     0.79318   0.49643   0.83377   0.00000  Uiso   1.00
Cu1155 Cu    0.77404   0.49441   0.74517   0.00000  Uiso   1.00
Cu1156 Cu    0.89263   0.50559   0.75484   0.00000  Uiso   1.00
H1157  H     0.99905   0.43367   0.53485   0.00000  Uiso   1.00
H1158  H     0.80706   0.40584   0.57899   0.00000  Uiso   1.00
H1159  H     0.84124   0.40881   0.62359   0.00000  Uiso   1.00
H1160  H     0.85959   0.59415   0.92102   0.00000  Uiso   1.00
H1161  H     0.89678   0.56677   0.86895   0.00000  Uiso   1.00
H1162  H     0.82543   0.59118   0.87642   0.00000  Uiso   1.00
H1163  H     0.75064   0.59891   0.67437   0.00000  Uiso   1.00
H1164  H     0.78827   0.63640   0.62343   0.00000  Uiso   1.00
H1165  H     0.74140   0.66465   0.67064   0.00000  Uiso   1.00
H1166  H     0.68201   0.63570   0.61310   0.00000  Uiso   1.00
H1167  H     0.97356   0.60353   0.66590   0.00000  Uiso   1.00
H1168  H     0.66762   0.56631   0.96514   0.00000  Uiso   1.00
H1169  H     0.68280   0.52467   0.64115   0.00000  Uiso   1.00
H1170  H     0.73173   0.55713   0.59152   0.00000  Uiso   1.00
H1171  H     0.87845   0.36353   0.87665   0.00000  Uiso   1.00
H1172  H     0.91584   0.40107   0.82572   0.00000  Uiso   1.00
H1173  H     0.92525   0.33537   0.82934   0.00000  Uiso   1.00
H1174  H     0.69305   0.39660   0.83397   0.00000  Uiso   1.00
H1175  H     0.98485   0.36434   0.88675   0.00000  Uiso   1.00
H1176  H     0.93493   0.44283   0.90848   0.00000  Uiso   1.00
H1177  H     0.98384   0.47537   0.85889   0.00000  Uiso   1.00
H1178  H     0.96387   0.65957   0.71902   0.00000  Uiso   1.00
H1179  H     0.97309   0.42846   0.96664   0.00000  Uiso   1.00
H1180  H     0.93581   0.37401   0.69672   0.00000  Uiso   1.00
H1181  H     0.94583   0.37784   0.75232   0.00000  Uiso   1.00
H1182  H     0.70280   0.34042   0.78100   0.00000  Uiso   1.00
H1183  H     0.72082   0.62215   0.74772   0.00000  Uiso   1.00
H1184  H     0.73087   0.62600   0.80331   0.00000  Uiso   1.00
H1185  H     0.69358   0.57152   0.53335   0.00000  Uiso   1.00
H1186  H     0.73880   0.46315   0.57808   0.00000  Uiso   1.00
H1187  H     0.92786   0.53682   0.92192   0.00000  Uiso   1.00
H1188  H     0.99975   0.53466   0.78599   0.00000  Uiso   1.00
H1189  H     0.66691   0.46534   0.71401   0.00000  Uiso   1.00
H1190  H     0.76988   0.43322   0.63106   0.00000  Uiso   1.00
N1191  N     0.98173   0.51401   0.76212   0.00000  Uiso   1.00
N1192  N     0.68494   0.48599   0.73788   0.00000  Uiso   1.00
O1193  O     0.79482   0.57142   0.74686   0.00000  Uiso   1.00
O1194  O     0.87185   0.42858   0.75314   0.00000  Uiso   1.00
O1195  O     0.89496   0.58086   0.75503   0.00000  Uiso   1.00
O1196  O     0.77171   0.41914   0.74498   0.00000  Uiso   1.00
O1197  O     0.75518   0.49263   0.80855   0.00000  Uiso   1.00
O1198  O     0.91149   0.50737   0.69146   0.00000  Uiso   1.00
O1199  O     0.85532   0.50207   0.81671   0.00000  Uiso   1.00
O1200  O     0.81134   0.49793   0.68329   0.00000  Uiso   1.00
C1201  C     0.18199   0.93327   0.75041   0.00000  Uiso   1.00
C1202  C     0.20681   0.83691   0.66623   0.00000  Uiso   1.00
C1203  C     0.09966   0.82563   0.88286   0.00000  Uiso   1.00
C1204  C     0.23367   0.84103   0.61714   0.00000  Uiso   1.00
C1205  C     0.02123   0.78411   0.94973   0.00000  Uiso   1.00
C1206  C     0.31210   0.88254   0.55027   0.00000  Uiso   1.00
C1207  C     0.03660   0.79605   0.90469   0.00000  Uiso   1.00
C1208  C     0.29673   0.87061   0.59531   0.00000  Uiso   1.00
C1209  C     0.14081   0.84966   0.90875   0.00000  Uiso   1.00
C1210  C     0.19252   0.81699   0.59125   0.00000  Uiso   1.00
C1211  C     0.12902   0.83066   0.95270   0.00000  Uiso   1.00
C1212  C     0.15134   0.73340   0.74959   0.00000  Uiso   1.00
C1213  C     0.20431   0.83599   0.54730   0.00000  Uiso   1.00
C1214  C     0.06671   0.79975   0.97328   0.00000  Uiso   1.00
C1215  C     0.26662   0.86690   0.52672   0.00000  Uiso   1.00
C1216  C     0.17601   0.84108   0.97717   0.00000  Uiso   1.00
C1217  C     0.15732   0.82556   0.52282   0.00000  Uiso   1.00
C1218  C     0.14969   0.76357   0.60700   0.00000  Uiso   1.00
C1219  C     0.18364   0.90308   0.89301   0.00000  Uiso   1.00
C1220  C     0.01765   0.88759   0.61684   0.00000  Uiso   1.00
C1221  C     0.01731   0.94077   0.63747   0.00000  Uiso   1.00
C1222  C     0.07813   0.96139   0.65251   0.00000  Uiso   1.00
C1223  C     0.09169   0.80249   0.54292   0.00000  Uiso   1.00
C1224  C     0.31568   0.77908   0.88316   0.00000  Uiso   1.00
C1225  C     0.31605   0.72594   0.86246   0.00000  Uiso   1.00
C1226  C     0.25517   0.70526   0.84752   0.00000  Uiso   1.00
C1227  C     0.26293   0.68517   0.72735   0.00000  Uiso   1.00
C1228  C     0.07040   0.98150   0.77268   0.00000  Uiso   1.00
C1229  C     0.24164   0.86415   0.95708   0.00000  Uiso   1.00
C1230  C     0.04833   0.78715   0.51820   0.00000  Uiso   1.00
C1231  C     0.28500   0.87949   0.98180   0.00000  Uiso   1.00
C1232  C     0.19254   0.98880   0.74561   0.00000  Uiso   1.00
C1233  C     0.14079   0.67786   0.75440   0.00000  Uiso   1.00
C1234  C     0.12652   0.82976   0.83377   0.00000  Uiso   1.00
Cu1235 Cu    0.10737   0.82775   0.74517   0.00000  Uiso   1.00
Cu1236 Cu    0.22596   0.83892   0.75484   0.00000  Uiso   1.00
H1237  H     0.33238   0.76700   0.53485   0.00000  Uiso   1.00
H1238  H     0.14039   0.73917   0.57899   0.00000  Uiso   1.00
H1239  H     0.17457   0.74214   0.62359   0.00000  Uiso   1.00
H1240  H     0.19293   0.92748   0.92102   0.00000  Uiso   1.00
H1241  H     0.23012   0.90011   0.86895   0.00000  Uiso   1.00
H1242  H     0.15876   0.92451   0.87642   0.00000  Uiso   1.00
H1243  H     0.08398   0.93225   0.67437   0.00000  Uiso   1.00
H1244  H     0.12160   0.96973   0.62343   0.00000  Uiso   1.00
H1245  H     0.07473   0.99798   0.67064   0.00000  Uiso   1.00
H1246  H     0.01534   0.96904   0.61310   0.00000  Uiso   1.00
H1247  H     0.30690   0.93686   0.66590   0.00000  Uiso   1.00
H1248  H     0.00095   0.89964   0.96514   0.00000  Uiso   1.00
H1249  H     0.01614   0.85800   0.64115   0.00000  Uiso   1.00
H1250  H     0.06506   0.89046   0.59152   0.00000  Uiso   1.00
H1251  H     0.21178   0.69686   0.87665   0.00000  Uiso   1.00
H1252  H     0.24917   0.73440   0.82572   0.00000  Uiso   1.00
H1253  H     0.25858   0.66870   0.82934   0.00000  Uiso   1.00
H1254  H     0.02638   0.72993   0.83397   0.00000  Uiso   1.00
H1255  H     0.31819   0.69767   0.88675   0.00000  Uiso   1.00
H1256  H     0.26826   0.77617   0.90848   0.00000  Uiso   1.00
H1257  H     0.31717   0.80871   0.85889   0.00000  Uiso   1.00
H1258  H     0.29721   0.99291   0.71902   0.00000  Uiso   1.00
H1259  H     0.30642   0.76179   0.96664   0.00000  Uiso   1.00
H1260  H     0.26915   0.70735   0.69672   0.00000  Uiso   1.00
H1261  H     0.27916   0.71117   0.75232   0.00000  Uiso   1.00
H1262  H     0.03613   0.67376   0.78100   0.00000  Uiso   1.00
H1263  H     0.05416   0.95548   0.74772   0.00000  Uiso   1.00
H1264  H     0.06420   0.95933   0.80331   0.00000  Uiso   1.00
H1265  H     0.02691   0.90486   0.53335   0.00000  Uiso   1.00
H1266  H     0.07213   0.79649   0.57808   0.00000  Uiso   1.00
H1267  H     0.26120   0.87016   0.92192   0.00000  Uiso   1.00
H1268  H     0.33309   0.86799   0.78599   0.00000  Uiso   1.00
H1269  H     0.00024   0.79867   0.71401   0.00000  Uiso   1.00
H1270  H     0.10322   0.76655   0.63106   0.00000  Uiso   1.00
N1271  N     0.31506   0.84735   0.76212   0.00000  Uiso   1.00
N1272  N     0.01827   0.81932   0.73788   0.00000  Uiso   1.00
O1273  O     0.12815   0.90476   0.74686   0.00000  Uiso   1.00
O1274  O     0.20518   0.76191   0.75314   0.00000  Uiso   1.00
O1275  O     0.22829   0.91420   0.75503   0.00000  Uiso   1.00
O1276  O     0.10504   0.75247   0.74498   0.00000  Uiso   1.00
O1277  O     0.08851   0.82597   0.80855   0.00000  Uiso   1.00
O1278  O     0.24482   0.84070   0.69146   0.00000  Uiso   1.00
O1279  O     0.18866   0.83540   0.81671   0.00000  Uiso   1.00
O1280  O     0.14468   0.83126   0.68329   0.00000  Uiso   1.00
C1281  C     0.51532   0.93327   0.75041   0.00000  Uiso   1.00
C1282  C     0.54015   0.83691   0.66623   0.00000  Uiso   1.00
C1283  C     0.43299   0.82563   0.88286   0.00000  Uiso   1.00
C1284  C     0.56701   0.84103   0.61714   0.00000  Uiso   1.00
C1285  C     0.35456   0.78411   0.94973   0.00000  Uiso   1.00
C1286  C     0.64544   0.88254   0.55027   0.00000  Uiso   1.00
C1287  C     0.36994   0.79605   0.90469   0.00000  Uiso   1.00
C1288  C     0.63006   0.87061   0.59531   0.00000  Uiso   1.00
C1289  C     0.47415   0.84966   0.90875   0.00000  Uiso   1.00
C1290  C     0.52585   0.81699   0.59125   0.00000  Uiso   1.00
C1291  C     0.46236   0.83066   0.95270   0.00000  Uiso   1.00
C1292  C     0.48467   0.73340   0.74959   0.00000  Uiso   1.00
C1293  C     0.53764   0.83599   0.54730   0.00000  Uiso   1.00
C1294  C     0.40004   0.79975   0.97328   0.00000  Uiso   1.00
C1295  C     0.59996   0.86690   0.52672   0.00000  Uiso   1.00
C1296  C     0.50934   0.84108   0.97717   0.00000  Uiso   1.00
C1297  C     0.49065   0.82556   0.52282   0.00000  Uiso   1.00
C1298  C     0.48302   0.76357   0.60700   0.00000  Uiso   1.00
C1299  C     0.51697   0.90308   0.89301   0.00000  Uiso   1.00
C1300  C     0.35098   0.88759   0.61684   0.00000  Uiso   1.00
C1301  C     0.35065   0.94077   0.63747   0.00000  Uiso   1.00
C1302  C     0.41146   0.96139   0.65251   0.00000  Uiso   1.00
C1303  C     0.42503   0.80249   0.54292   0.00000  Uiso   1.00
C1304  C     0.64901   0.77908   0.88316   0.00000  Uiso   1.00
C1305  C     0.64938   0.72594   0.86246   0.00000  Uiso   1.00
C1306  C     0.58850   0.70526   0.84752   0.00000  Uiso   1.00
C1307  C     0.59626   0.68517   0.72735   0.00000  Uiso   1.00
C1308  C     0.40374   0.98150   0.77268   0.00000  Uiso   1.00
C1309  C     0.57497   0.86415   0.95708   0.00000  Uiso   1.00
C1310  C     0.38166   0.78715   0.51820   0.00000  Uiso   1.00
C1311  C     0.61833   0.87949   0.98180   0.00000  Uiso   1.00
C1312  C     0.52588   0.98880   0.74561   0.00000  Uiso   1.00
C1313  C     0.47412   0.67786   0.75440   0.00000  Uiso   1.00
C1314  C     0.45985   0.82976   0.83377   0.00000  Uiso   1.00
Cu1315 Cu    0.44071   0.82775   0.74517   0.00000  Uiso   1.00
Cu1316 Cu    0.55929   0.83892   0.75484   0.00000  Uiso   1.00
H1317  H     0.66571   0.76700   0.53485   0.00000  Uiso   1.00
H1318  H     0.47372   0.73917   0.57899   0.00000  Uiso   1.00
H1319  H     0.50790   0.74214   0.62359   0.00000  Uiso   1.00
H1320  H     0.52626   0.92748   0.92102   0.00000  Uiso   1.00
H1321  H     0.56345   0.90011   0.86895   0.00000  Uiso   1.00
H1322  H     0.49210   0.92451   0.87642   0.00000  Uiso   1.00
H1323  H     0.41731   0.93225   0.67437   0.00000  Uiso   1.00
H1324  H     0.45493   0.96973   0.62343   0.00000  Uiso   1.00
H1325  H     0.40807   0.99798   0.67064   0.00000  Uiso   1.00
H1326  H     0.34867   0.96904   0.61310   0.00000  Uiso   1.00
H1327  H     0.64023   0.93686   0.66590   0.00000  Uiso   1.00
H1328  H     0.33428   0.89964   0.96514   0.00000  Uiso   1.00
H1329  H     0.34947   0.85800   0.64115   0.00000  Uiso   1.00
H1330  H     0.39840   0.89046   0.59152   0.00000  Uiso   1.00
H1331  H     0.54512   0.69686   0.87665   0.00000  Uiso   1.00
H1332  H     0.58251   0.73440   0.82572   0.00000  Uiso   1.00
H1333  H     0.59191   0.66870   0.82934   0.00000  Uiso   1.00
H1334  H     0.35971   0.72993   0.83397   0.00000  Uiso   1.00
H1335  H     0.65152   0.69767   0.88675   0.00000  Uiso   1.00
H1336  H     0.60160   0.77617   0.90848   0.00000  Uiso   1.00
H1337  H     0.65050   0.80871   0.85889   0.00000  Uiso   1.00
H1338  H     0.63054   0.99291   0.71902   0.00000  Uiso   1.00
H1339  H     0.63976   0.76179   0.96664   0.00000  Uiso   1.00
H1340  H     0.60248   0.70735   0.69672   0.00000  Uiso   1.00
H1341  H     0.61250   0.71117   0.75232   0.00000  Uiso   1.00
H1342  H     0.36946   0.67376   0.78100   0.00000  Uiso   1.00
H1343  H     0.38749   0.95548   0.74772   0.00000  Uiso   1.00
H1344  H     0.39753   0.95933   0.80331   0.00000  Uiso   1.00
H1345  H     0.36024   0.90486   0.53335   0.00000  Uiso   1.00
H1346  H     0.40547   0.79649   0.57808   0.00000  Uiso   1.00
H1347  H     0.59453   0.87016   0.92192   0.00000  Uiso   1.00
H1348  H     0.66642   0.86799   0.78599   0.00000  Uiso   1.00
H1349  H     0.33358   0.79867   0.71401   0.00000  Uiso   1.00
H1350  H     0.43655   0.76655   0.63106   0.00000  Uiso   1.00
N1351  N     0.64839   0.84735   0.76212   0.00000  Uiso   1.00
N1352  N     0.35161   0.81932   0.73788   0.00000  Uiso   1.00
O1353  O     0.46148   0.90476   0.74686   0.00000  Uiso   1.00
O1354  O     0.53852   0.76191   0.75314   0.00000  Uiso   1.00
O1355  O     0.56163   0.91420   0.75503   0.00000  Uiso   1.00
O1356  O     0.43837   0.75247   0.74498   0.00000  Uiso   1.00
O1357  O     0.42185   0.82597   0.80855   0.00000  Uiso   1.00
O1358  O     0.57815   0.84070   0.69146   0.00000  Uiso   1.00
O1359  O     0.52199   0.83540   0.81671   0.00000  Uiso   1.00
O1360  O     0.47801   0.83126   0.68329   0.00000  Uiso   1.00
C1361  C     0.84866   0.93327   0.75041   0.00000  Uiso   1.00
C1362  C     0.87348   0.83691   0.66623   0.00000  Uiso   1.00
C1363  C     0.76632   0.82563   0.88286   0.00000  Uiso   1.00
C1364  C     0.90034   0.84103   0.61714   0.00000  Uiso   1.00
C1365  C     0.68790   0.78411   0.94973   0.00000  Uiso   1.00
C1366  C     0.97877   0.88254   0.55027   0.00000  Uiso   1.00
C1367  C     0.70327   0.79605   0.90469   0.00000  Uiso   1.00
C1368  C     0.96339   0.87061   0.59531   0.00000  Uiso   1.00
C1369  C     0.80748   0.84966   0.90875   0.00000  Uiso   1.00
C1370  C     0.85919   0.81699   0.59125   0.00000  Uiso   1.00
C1371  C     0.79569   0.83066   0.95270   0.00000  Uiso   1.00
C1372  C     0.81801   0.73340   0.74959   0.00000  Uiso   1.00
C1373  C     0.87098   0.83599   0.54730   0.00000  Uiso   1.00
C1374  C     0.73337   0.79975   0.97328   0.00000  Uiso   1.00
C1375  C     0.93329   0.86690   0.52672   0.00000  Uiso   1.00
C1376  C     0.84268   0.84108   0.97717   0.00000  Uiso   1.00
C1377  C     0.82399   0.82556   0.52282   0.00000  Uiso   1.00
C1378  C     0.81635   0.76357   0.60700   0.00000  Uiso   1.00
C1379  C     0.85031   0.90308   0.89301   0.00000  Uiso   1.00
C1380  C     0.68432   0.88759   0.61684   0.00000  Uiso   1.00
C1381  C     0.68398   0.94077   0.63747   0.00000  Uiso   1.00
C1382  C     0.74480   0.96139   0.65251   0.00000  Uiso   1.00
C1383  C     0.75836   0.80249   0.54292   0.00000  Uiso   1.00
C1384  C     0.98234   0.77908   0.88316   0.00000  Uiso   1.00
C1385  C     0.98271   0.72594   0.86246   0.00000  Uiso   1.00
C1386  C     0.92184   0.70526   0.84752   0.00000  Uiso   1.00
C1387  C     0.92960   0.68517   0.72735   0.00000  Uiso   1.00
C1388  C     0.73707   0.98150   0.77268   0.00000  Uiso   1.00
C1389  C     0.90830   0.86415   0.95708   0.00000  Uiso   1.00
C1390  C     0.71500   0.78715   0.51820   0.00000  Uiso   1.00
C1391  C     0.95167   0.87949   0.98180   0.00000  Uiso   1.00
C1392  C     0.85921   0.98880   0.74561   0.00000  Uiso   1.00
C1393  C     0.80745   0.67786   0.75440   0.00000  Uiso   1.00
C1394  C     0.79318   0.82976   0.83377   0.00000  Uiso   1.00
Cu1395 Cu    0.77404   0.82775   0.74517   0.00000  Uiso   1.00
Cu1396 Cu    0.89263   0.83892   0.75484   0.00000  Uiso   1.00
H1397  H     0.99905   0.76700   0.53485   0.00000  Uiso   1.00
H1398  H     0.80706   0.73917   0.57899   0.00000  Uiso   1.00
H1399  H     0.84124   0.74214   0.62359   0.00000  Uiso   1.00
H1400  H     0.85959   0.92748   0.92102   0.00000  Uiso   1.00
H1401  H     0.89678   0.90011   0.86895   0.00000  Uiso   1.00
H1402  H     0.82543   0.92451   0.87642   0.00000  Uiso   1.00
H1403  H     0.75064   0.93225   0.67437   0.00000  Uiso   1.00
H1404  H     0.78827   0.96973   0.62343   0.00000  Uiso   1.00
H1405  H     0.74140   0.99798   0.67064   0.00000  Uiso   1.00
H1406  H     0.68201   0.96904   0.61310   0.00000  Uiso   1.00
H1407  H     0.97356   0.93686   0.66590   0.00000  Uiso   1.00
H1408  H     0.66762   0.89964   0.96514   0.00000  Uiso   1.00
H1409  H     0.68280   0.85800   0.64115   0.00000  Uiso   1.00
H1410  H     0.73173   0.89046   0.59152   0.00000  Uiso   1.00
H1411  H     0.87845   0.69686   0.87665   0.00000  Uiso   1.00
H1412  H     0.91584   0.73440   0.82572   0.00000  Uiso   1.00
H1413  H     0.92525   0.66870   0.82934   0.00000  Uiso   1.00
H1414  H     0.69305   0.72993   0.83397   0.00000  Uiso   1.00
H1415  H     0.98485   0.69767   0.88675   0.00000  Uiso   1.00
H1416  H     0.93493   0.77617   0.90848   0.00000  Uiso   1.00
H1417  H     0.98384   0.80871   0.85889   0.00000  Uiso   1.00
H1418  H     0.96387   0.99291   0.71902   0.00000  Uiso   1.00
H1419  H     0.97309   0.76179   0.96664   0.00000  Uiso   1.00
H1420  H     0.93581   0.70735   0.69672   0.00000  Uiso   1.00
H1421  H     0.94583   0.71117   0.75232   0.00000  Uiso   1.00
H1422  H     0.70280   0.67376   0.78100   0.00000  Uiso   1.00
H1423  H     0.72082   0.95548   0.74772   0.00000  Uiso   1.00
H1424  H     0.73087   0.95933   0.80331   0.00000  Uiso   1.00
H1425  H     0.69358   0.90486   0.53335   0.00000  Uiso   1.00
H1426  H     0.73880   0.79649   0.57808   0.00000  Uiso   1.00
H1427  H     0.92786   0.87016   0.92192   0.00000  Uiso   1.00
H1428  H     0.99975   0.86799   0.78599   0.00000  Uiso   1.00
H1429  H     0.66691   0.79867   0.71401   0.00000  Uiso   1.00
H1430  H     0.76988   0.76655   0.63106   0.00000  Uiso   1.00
N1431  N     0.98173   0.84735   0.76212   0.00000  Uiso   1.00
N1432  N     0.68494   0.81932   0.73788   0.00000  Uiso   1.00
O1433  O     0.79482   0.90476   0.74686   0.00000  Uiso   1.00
O1434  O     0.87185   0.76191   0.75314   0.00000  Uiso   1.00
O1435  O     0.89496   0.91420   0.75503   0.00000  Uiso   1.00
O1436  O     0.77171   0.75247   0.74498   0.00000  Uiso   1.00
O1437  O     0.75518   0.82597   0.80855   0.00000  Uiso   1.00
O1438  O     0.91149   0.84070   0.69146   0.00000  Uiso   1.00
O1439  O     0.85532   0.83540   0.81671   0.00000  Uiso   1.00
O1440  O     0.81134   0.83126   0.68329   0.00000  Uiso   1.00
loop_
_geom_bond_atom_site_label_1
_geom_bond_atom_site_label_2
_geom_bond_distance
_geom_bond_site_symmetry_2
_ccdc_geom_bond_type
C1     O75     1.289   .     A
C1     C32     1.440   .     S
C1     O73     1.284   .     A
C2     C4      1.493   .     S
C2     O78     1.298   .     A
C2     O80     1.302   .     A
C3     C9      1.417   .     A
C3     C7      1.423   .     A
C3     C34     1.493   .     S
C4     C8      1.423   .     A
C4     C10     1.417   .     A
C5     C7      1.397   .     A
C5     C14     1.393   .     A
C5     H219    1.086   1_455 S
C6     C15     1.393   .     A
C6     C8      1.397   .     A
C6     H145    1.086   .     S
C7     C184    1.513   1_455 S
C8     C100    1.513   .     S
C9     C19     1.519   .     S
C9     C11     1.428   .     A
C10    C13     1.428   .     A
C10    C18     1.519   .     S
C11    C14     1.415   .     A
C11    C16     1.435   .     A
C12    O74     1.284   .     A
C12    O76     1.289   .     A
C12    C33     1.440   .     S
C13    C15     1.415   .     A
C13    C17     1.435   .     A
C14    C750    1.392   .     S
C15    C751    1.392   1_554 S
C16    C29     1.407   .     A
C16    C737    1.432   .     S
C17    C23     1.407   .     A
C17    C736    1.432   1_554 S
C18    H70     1.109   .     S
C18    H39     1.112   .     S
C18    H38     1.110   .     S
C19    H42     1.112   .     S
C19    H40     1.110   .     S
C19    H41     1.109   .     S
C20    H50     1.113   .     S
C20    H49     1.108   .     S
C20    C21     1.525   .     S
C20    C168    1.513   1_455 S
C21    C22     1.527   .     S
C21    H46     1.112   .     S
C21    H207    1.105   1_455 S
C22    H44     1.111   .     S
C22    H43     1.110   .     S
C22    H45     1.110   .     S
C23    H66     1.075   .     S
C23    C30     1.382   .     A
C24    H57     1.108   .     S
C24    C25     1.525   .     S
C24    H56     1.113   .     S
C24    C87     1.513   .     S
C25    C26     1.527   .     S
C25    H55     1.112   .     S
C25    H134    1.105   .     S
C26    H52     1.110   .     S
C26    H53     1.110   .     S
C26    H51     1.111   .     S
C27    H60     1.111   .     S
C27    H61     1.105   .     S
C27    C512    1.527   1_545 S
C27    H538    1.103   1_545 S
C28    H64     1.111   .     S
C28    H63     1.105   .     S
C28    C273    1.527   .     S
C28    H302    1.103   .     S
C29    H67     1.075   .     S
C29    C31     1.382   .     A
C30    C734    1.392   1_554 S
C30    H197    1.085   1_455 S
C31    C735    1.392   .     S
C31    H128    1.085   .     S
C32    C267    1.527   .     S
C32    C273    1.366   .     S
C33    C512    1.366   1_545 S
C33    C508    1.527   1_545 S
C34    O77     1.298   .     A
C34    O79     1.302   .     A
Cu35   Cu36    2.675   .     S
Cu35   O80     1.889   .     S
Cu35   O76     1.980   .     S
Cu35   N72     2.010   .     S
Cu35   O73     1.982   .     S
Cu35   O77     1.925   .     S
Cu36   N71     2.010   .     S
Cu36   O75     1.980   .     S
Cu36   O74     1.982   .     S
Cu36   O79     1.889   .     S
Cu36   O78     1.925   .     S
H37    C110    1.085   .     S
H47    C101    1.105   .     S
H48    C191    1.085   1_455 S
H54    C185    1.105   1_455 S
H58    C267    1.103   .     S
H59    C85     1.086   .     S
H62    C508    1.103   1_545 S
H65    C166    1.086   1_455 S
H68    N71     1.029   .     S
H69    N72     1.029   .     S
N71    N152    1.293   .     S
N72    N231    1.293   1_455 S
C81    O155    1.289   .     A
C81    C112    1.440   .     S
C81    O153    1.284   .     A
C82    C84     1.493   .     S
C82    O158    1.298   .     A
C82    O160    1.302   .     A
C83    C89     1.417   .     A
C83    C87     1.423   .     A
C83    C114    1.493   .     S
C84    C88     1.423   .     A
C84    C90     1.417   .     A
C85    C87     1.397   .     A
C85    C94     1.393   .     A
C86    C95     1.393   .     A
C86    C88     1.397   .     A
C86    H225    1.086   .     S
C88    C180    1.513   .     S
C89    C99     1.519   .     S
C89    C91     1.428   .     A
C90    C93     1.428   .     A
C90    C98     1.519   .     S
C91    C94     1.415   .     A
C91    C96     1.435   .     A
C92    O154    1.284   .     A
C92    O156    1.289   .     A
C92    C113    1.440   .     S
C93    C95     1.415   .     A
C93    C97     1.435   .     A
C94    C830    1.392   .     S
C95    C831    1.392   1_554 S
C96    C109    1.407   .     A
C96    C817    1.432   .     S
C97    C103    1.407   .     A
C97    C816    1.432   1_554 S
C98    H150    1.109   .     S
C98    H119    1.112   .     S
C98    H118    1.110   .     S
C99    H122    1.112   .     S
C99    H120    1.110   .     S
C99    H121    1.109   .     S
C100   H130    1.113   .     S
C100   H129    1.108   .     S
C100   C101    1.525   .     S
C101   C102    1.527   .     S
C101   H126    1.112   .     S
C102   H124    1.111   .     S
C102   H123    1.110   .     S
C102   H125    1.110   .     S
C103   H146    1.075   .     S
C103   C110    1.382   .     A
C104   H137    1.108   .     S
C104   C105    1.525   .     S
C104   H136    1.113   .     S
C104   C167    1.513   .     S
C105   C106    1.527   .     S
C105   H135    1.112   .     S
C105   H214    1.105   .     S
C106   H132    1.110   .     S
C106   H133    1.110   .     S
C106   H131    1.111   .     S
C107   H140    1.111   .     S
C107   H141    1.105   .     S
C107   C592    1.527   1_545 S
C107   H618    1.103   1_545 S
C108   H144    1.111   .     S
C108   H143    1.105   .     S
C108   C353    1.527   .     S
C108   H382    1.103   .     S
C109   H147    1.075   .     S
C109   C111    1.382   .     A
C110   C814    1.392   1_554 S
C111   C815    1.392   .     S
C111   H208    1.085   .     S
C112   C347    1.527   .     S
C112   C353    1.366   .     S
C113   C592    1.366   1_545 S
C113   C588    1.527   1_545 S
C114   O157    1.298   .     A
C114   O159    1.302   .     A
Cu115  Cu116   2.675   .     S
Cu115  O160    1.889   .     S
Cu115  O156    1.980   .     S
Cu115  N152    2.010   .     S
Cu115  O153    1.982   .     S
Cu115  O157    1.925   .     S
Cu116  N151    2.010   .     S
Cu116  O155    1.980   .     S
Cu116  O154    1.982   .     S
Cu116  O159    1.889   .     S
Cu116  O158    1.925   .     S
H117   C190    1.085   .     S
H127   C181    1.105   .     S
H138   C347    1.103   .     S
H139   C165    1.086   .     S
H142   C588    1.103   1_545 S
H148   N151    1.029   .     S
H149   N152    1.029   .     S
N151   N232    1.293   .     S
C161   O235    1.289   .     A
C161   C192    1.440   .     S
C161   O233    1.284   .     A
C162   C164    1.493   .     S
C162   O238    1.298   .     A
C162   O240    1.302   .     A
C163   C169    1.417   .     A
C163   C167    1.423   .     A
C163   C194    1.493   .     S
C164   C168    1.423   .     A
C164   C170    1.417   .     A
C165   C167    1.397   .     A
C165   C174    1.393   .     A
C166   C175    1.393   .     A
C166   C168    1.397   .     A
C166   H65     1.086   1_655 S
C168   C20     1.513   1_655 S
C169   C179    1.519   .     S
C169   C171    1.428   .     A
C170   C173    1.428   .     A
C170   C178    1.519   .     S
C171   C174    1.415   .     A
C171   C176    1.435   .     A
C172   O234    1.284   .     A
C172   O236    1.289   .     A
C172   C193    1.440   .     S
C173   C175    1.415   .     A
C173   C177    1.435   .     A
C174   C910    1.392   .     S
C175   C911    1.392   1_554 S
C176   C189    1.407   .     A
C176   C897    1.432   .     S
C177   C183    1.407   .     A
C177   C896    1.432   1_554 S
C178   H230    1.109   .     S
C178   H199    1.112   .     S
C178   H198    1.110   .     S
C179   H202    1.112   .     S
C179   H200    1.110   .     S
C179   H201    1.109   .     S
C180   H210    1.113   .     S
C180   H209    1.108   .     S
C180   C181    1.525   .     S
C181   C182    1.527   .     S
C181   H206    1.112   .     S
C182   H204    1.111   .     S
C182   H203    1.110   .     S
C182   H205    1.110   .     S
C183   H226    1.075   .     S
C183   C190    1.382   .     A
C184   H217    1.108   .     S
C184   C185    1.525   .     S
C184   H216    1.113   .     S
C184   C7      1.513   1_655 S
C185   C186    1.527   .     S
C185   H215    1.112   .     S
C185   H54     1.105   1_655 S
C186   H212    1.110   .     S
C186   H213    1.110   .     S
C186   H211    1.111   .     S
C187   H220    1.111   .     S
C187   H221    1.105   .     S
C187   C672    1.527   1_545 S
C187   H698    1.103   1_545 S
C188   H224    1.111   .     S
C188   H223    1.105   .     S
C188   C433    1.527   .     S
C188   H462    1.103   .     S
C189   H227    1.075   .     S
C189   C191    1.382   .     A
C190   C894    1.392   1_554 S
C191   C895    1.392   .     S
C191   H48     1.085   1_655 S
C192   C427    1.527   .     S
C192   C433    1.366   .     S
C193   C672    1.366   1_545 S
C193   C668    1.527   1_545 S
C194   O237    1.298   .     A
C194   O239    1.302   .     A
Cu195  Cu196   2.675   .     S
Cu195  O240    1.889   .     S
Cu195  O236    1.980   .     S
Cu195  N232    2.010   .     S
Cu195  O233    1.982   .     S
Cu195  O237    1.925   .     S
Cu196  N231    2.010   .     S
Cu196  O235    1.980   .     S
Cu196  O234    1.982   .     S
Cu196  O239    1.889   .     S
Cu196  O238    1.925   .     S
H197   C30     1.085   1_655 S
H207   C21     1.105   1_655 S
H218   C427    1.103   .     S
H219   C5      1.086   1_655 S
H222   C668    1.103   1_545 S
H228   N231    1.029   .     S
H229   N232    1.029   .     S
N231   N72     1.293   1_655 S
C241   O315    1.289   .     A
C241   C272    1.440   .     S
C241   O313    1.284   .     A
C242   C244    1.493   .     S
C242   O318    1.298   .     A
C242   O320    1.302   .     A
C243   C249    1.417   .     A
C243   C247    1.423   .     A
C243   C274    1.493   .     S
C244   C248    1.423   .     A
C244   C250    1.417   .     A
C245   C247    1.397   .     A
C245   C254    1.393   .     A
C245   H459    1.086   1_455 S
C246   C255    1.393   .     A
C246   C248    1.397   .     A
C246   H385    1.086   .     S
C247   C424    1.513   1_455 S
C248   C340    1.513   .     S
C249   C259    1.519   .     S
C249   C251    1.428   .     A
C250   C253    1.428   .     A
C250   C258    1.519   .     S
C251   C254    1.415   .     A
C251   C256    1.435   .     A
C252   O314    1.284   .     A
C252   O316    1.289   .     A
C252   C273    1.440   .     S
C253   C255    1.415   .     A
C253   C257    1.435   .     A
C254   C990    1.392   .     S
C255   C991    1.392   1_554 S
C256   C269    1.407   .     A
C256   C977    1.432   .     S
C257   C263    1.407   .     A
C257   C976    1.432   1_554 S
C258   H310    1.109   .     S
C258   H279    1.112   .     S
C258   H278    1.110   .     S
C259   H282    1.112   .     S
C259   H280    1.110   .     S
C259   H281    1.109   .     S
C260   H290    1.113   .     S
C260   H289    1.108   .     S
C260   C261    1.525   .     S
C260   C408    1.513   1_455 S
C261   C262    1.527   .     S
C261   H286    1.112   .     S
C261   H447    1.105   1_455 S
C262   H284    1.111   .     S
C262   H283    1.110   .     S
C262   H285    1.110   .     S
C263   H306    1.075   .     S
C263   C270    1.382   .     A
C264   H297    1.108   .     S
C264   C265    1.525   .     S
C264   H296    1.113   .     S
C264   C327    1.513   .     S
C265   C266    1.527   .     S
C265   H295    1.112   .     S
C265   H374    1.105   .     S
C266   H292    1.110   .     S
C266   H293    1.110   .     S
C266   H291    1.111   .     S
C267   H300    1.111   .     S
C267   H301    1.105   .     S
C268   H304    1.111   .     S
C268   H303    1.105   .     S
C268   C513    1.527   .     S
C268   H542    1.103   .     S
C269   H307    1.075   .     S
C269   C271    1.382   .     A
C270   C974    1.392   1_554 S
C270   H437    1.085   1_455 S
C271   C975    1.392   .     S
C271   H368    1.085   .     S
C272   C507    1.527   .     S
C272   C513    1.366   .     S
C274   O317    1.298   .     A
C274   O319    1.302   .     A
Cu275  Cu276   2.675   .     S
Cu275  O320    1.889   .     S
Cu275  O316    1.980   .     S
Cu275  N312    2.010   .     S
Cu275  O313    1.982   .     S
Cu275  O317    1.925   .     S
Cu276  N311    2.010   .     S
Cu276  O315    1.980   .     S
Cu276  O314    1.982   .     S
Cu276  O319    1.889   .     S
Cu276  O318    1.925   .     S
H277   C350    1.085   .     S
H287   C341    1.105   .     S
H288   C431    1.085   1_455 S
H294   C425    1.105   1_455 S
H298   C507    1.103   .     S
H299   C325    1.086   .     S
H305   C406    1.086   1_455 S
H308   N311    1.029   .     S
H309   N312    1.029   .     S
N311   N392    1.293   .     S
N312   N471    1.293   1_455 S
C321   O395    1.289   .     A
C321   C352    1.440   .     S
C321   O393    1.284   .     A
C322   C324    1.493   .     S
C322   O398    1.298   .     A
C322   O400    1.302   .     A
C323   C329    1.417   .     A
C323   C327    1.423   .     A
C323   C354    1.493   .     S
C324   C328    1.423   .     A
C324   C330    1.417   .     A
C325   C327    1.397   .     A
C325   C334    1.393   .     A
C326   C335    1.393   .     A
C326   C328    1.397   .     A
C326   H465    1.086   .     S
C328   C420    1.513   .     S
C329   C339    1.519   .     S
C329   C331    1.428   .     A
C330   C333    1.428   .     A
C330   C338    1.519   .     S
C331   C334    1.415   .     A
C331   C336    1.435   .     A
C332   O394    1.284   .     A
C332   O396    1.289   .     A
C332   C353    1.440   .     S
C333   C335    1.415   .     A
C333   C337    1.435   .     A
C334   C1070   1.392   .     S
C335   C1071   1.392   1_554 S
C336   C349    1.407   .     A
C336   C1057   1.432   .     S
C337   C343    1.407   .     A
C337   C1056   1.432   1_554 S
C338   H390    1.109   .     S
C338   H359    1.112   .     S
C338   H358    1.110   .     S
C339   H362    1.112   .     S
C339   H360    1.110   .     S
C339   H361    1.109   .     S
C340   H370    1.113   .     S
C340   H369    1.108   .     S
C340   C341    1.525   .     S
C341   C342    1.527   .     S
C341   H366    1.112   .     S
C342   H364    1.111   .     S
C342   H363    1.110   .     S
C342   H365    1.110   .     S
C343   H386    1.075   .     S
C343   C350    1.382   .     A
C344   H377    1.108   .     S
C344   C345    1.525   .     S
C344   H376    1.113   .     S
C344   C407    1.513   .     S
C345   C346    1.527   .     S
C345   H375    1.112   .     S
C345   H454    1.105   .     S
C346   H372    1.110   .     S
C346   H373    1.110   .     S
C346   H371    1.111   .     S
C347   H380    1.111   .     S
C347   H381    1.105   .     S
C348   H384    1.111   .     S
C348   H383    1.105   .     S
C348   C593    1.527   .     S
C348   H622    1.103   .     S
C349   H387    1.075   .     S
C349   C351    1.382   .     A
C350   C1054   1.392   1_554 S
C351   C1055   1.392   .     S
C351   H448    1.085   .     S
C352   C587    1.527   .     S
C352   C593    1.366   .     S
C354   O397    1.298   .     A
C354   O399    1.302   .     A
Cu355  Cu356   2.675   .     S
Cu355  O400    1.889   .     S
Cu355  O396    1.980   .     S
Cu355  N392    2.010   .     S
Cu355  O393    1.982   .     S
Cu355  O397    1.925   .     S
Cu356  N391    2.010   .     S
Cu356  O395    1.980   .     S
Cu356  O394    1.982   .     S
Cu356  O399    1.889   .     S
Cu356  O398    1.925   .     S
H357   C430    1.085   .     S
H367   C421    1.105   .     S
H378   C587    1.103   .     S
H379   C405    1.086   .     S
H388   N391    1.029   .     S
H389   N392    1.029   .     S
N391   N472    1.293   .     S
C401   O475    1.289   .     A
C401   C432    1.440   .     S
C401   O473    1.284   .     A
C402   C404    1.493   .     S
C402   O478    1.298   .     A
C402   O480    1.302   .     A
C403   C409    1.417   .     A
C403   C407    1.423   .     A
C403   C434    1.493   .     S
C404   C408    1.423   .     A
C404   C410    1.417   .     A
C405   C407    1.397   .     A
C405   C414    1.393   .     A
C406   C415    1.393   .     A
C406   C408    1.397   .     A
C406   H305    1.086   1_655 S
C408   C260    1.513   1_655 S
C409   C419    1.519   .     S
C409   C411    1.428   .     A
C410   C413    1.428   .     A
C410   C418    1.519   .     S
C411   C414    1.415   .     A
C411   C416    1.435   .     A
C412   O474    1.284   .     A
C412   O476    1.289   .     A
C412   C433    1.440   .     S
C413   C415    1.415   .     A
C413   C417    1.435   .     A
C414   C1150   1.392   .     S
C415   C1151   1.392   1_554 S
C416   C429    1.407   .     A
C416   C1137   1.432   .     S
C417   C423    1.407   .     A
C417   C1136   1.432   1_554 S
C418   H470    1.109   .     S
C418   H439    1.112   .     S
C418   H438    1.110   .     S
C419   H442    1.112   .     S
C419   H440    1.110   .     S
C419   H441    1.109   .     S
C420   H450    1.113   .     S
C420   H449    1.108   .     S
C420   C421    1.525   .     S
C421   C422    1.527   .     S
C421   H446    1.112   .     S
C422   H444    1.111   .     S
C422   H443    1.110   .     S
C422   H445    1.110   .     S
C423   H466    1.075   .     S
C423   C430    1.382   .     A
C424   H457    1.108   .     S
C424   C425    1.525   .     S
C424   H456    1.113   .     S
C424   C247    1.513   1_655 S
C425   C426    1.527   .     S
C425   H455    1.112   .     S
C425   H294    1.105   1_655 S
C426   H452    1.110   .     S
C426   H453    1.110   .     S
C426   H451    1.111   .     S
C427   H460    1.111   .     S
C427   H461    1.105   .     S
C428   H464    1.111   .     S
C428   H463    1.105   .     S
C428   C673    1.527   .     S
C428   H702    1.103   .     S
C429   H467    1.075   .     S
C429   C431    1.382   .     A
C430   C1134   1.392   1_554 S
C431   C1135   1.392   .     S
C431   H288    1.085   1_655 S
C432   C667    1.527   .     S
C432   C673    1.366   .     S
C434   O477    1.298   .     A
C434   O479    1.302   .     A
Cu435  Cu436   2.675   .     S
Cu435  O480    1.889   .     S
Cu435  O476    1.980   .     S
Cu435  N472    2.010   .     S
Cu435  O473    1.982   .     S
Cu435  O477    1.925   .     S
Cu436  N471    2.010   .     S
Cu436  O475    1.980   .     S
Cu436  O474    1.982   .     S
Cu436  O479    1.889   .     S
Cu436  O478    1.925   .     S
H437   C270    1.085   1_655 S
H447   C261    1.105   1_655 S
H458   C667    1.103   .     S
H459   C245    1.086   1_655 S
H468   N471    1.029   .     S
H469   N472    1.029   .     S
N471   N312    1.293   1_655 S
C481   O555    1.289   .     A
C481   C512    1.440   .     S
C481   O553    1.284   .     A
C482   C484    1.493   .     S
C482   O558    1.298   .     A
C482   O560    1.302   .     A
C483   C489    1.417   .     A
C483   C487    1.423   .     A
C483   C514    1.493   .     S
C484   C488    1.423   .     A
C484   C490    1.417   .     A
C485   C487    1.397   .     A
C485   C494    1.393   .     A
C485   H699    1.086   1_455 S
C486   C495    1.393   .     A
C486   C488    1.397   .     A
C486   H625    1.086   .     S
C487   C664    1.513   1_455 S
C488   C580    1.513   .     S
C489   C499    1.519   .     S
C489   C491    1.428   .     A
C490   C493    1.428   .     A
C490   C498    1.519   .     S
C491   C494    1.415   .     A
C491   C496    1.435   .     A
C492   O554    1.284   .     A
C492   O556    1.289   .     A
C492   C513    1.440   .     S
C493   C495    1.415   .     A
C493   C497    1.435   .     A
C494   C1230   1.392   .     S
C495   C1231   1.392   1_554 S
C496   C509    1.407   .     A
C496   C1217   1.432   .     S
C497   C503    1.407   .     A
C497   C1216   1.432   1_554 S
C498   H550    1.109   .     S
C498   H519    1.112   .     S
C498   H518    1.110   .     S
C499   H522    1.112   .     S
C499   H520    1.110   .     S
C499   H521    1.109   .     S
C500   H530    1.113   .     S
C500   H529    1.108   .     S
C500   C501    1.525   .     S
C500   C648    1.513   1_455 S
C501   C502    1.527   .     S
C501   H526    1.112   .     S
C501   H687    1.105   1_455 S
C502   H524    1.111   .     S
C502   H523    1.110   .     S
C502   H525    1.110   .     S
C503   H546    1.075   .     S
C503   C510    1.382   .     A
C504   H537    1.108   .     S
C504   C505    1.525   .     S
C504   H536    1.113   .     S
C504   C567    1.513   .     S
C505   C506    1.527   .     S
C505   H535    1.112   .     S
C505   H614    1.105   .     S
C506   H532    1.110   .     S
C506   H533    1.110   .     S
C506   H531    1.111   .     S
C507   H540    1.111   .     S
C507   H541    1.105   .     S
C508   H544    1.111   .     S
C508   H543    1.105   .     S
C508   C33     1.527   1_565 S
C508   H62     1.103   1_565 S
C509   H547    1.075   .     S
C509   C511    1.382   .     A
C510   C1214   1.392   1_554 S
C510   H677    1.085   1_455 S
C511   C1215   1.392   .     S
C511   H608    1.085   .     S
C512   C27     1.527   1_565 S
C512   C33     1.366   1_565 S
C514   O557    1.298   .     A
C514   O559    1.302   .     A
Cu515  Cu516   2.675   .     S
Cu515  O560    1.889   .     S
Cu515  O556    1.980   .     S
Cu515  N552    2.010   .     S
Cu515  O553    1.982   .     S
Cu515  O557    1.925   .     S
Cu516  N551    2.010   .     S
Cu516  O555    1.980   .     S
Cu516  O554    1.982   .     S
Cu516  O559    1.889   .     S
Cu516  O558    1.925   .     S
H517   C590    1.085   .     S
H527   C581    1.105   .     S
H528   C671    1.085   1_455 S
H534   C665    1.105   1_455 S
H538   C27     1.103   1_565 S
H539   C565    1.086   .     S
H545   C646    1.086   1_455 S
H548   N551    1.029   .     S
H549   N552    1.029   .     S
N551   N632    1.293   .     S
N552   N711    1.293   1_455 S
C561   O635    1.289   .     A
C561   C592    1.440   .     S
C561   O633    1.284   .     A
C562   C564    1.493   .     S
C562   O638    1.298   .     A
C562   O640    1.302   .     A
C563   C569    1.417   .     A
C563   C567    1.423   .     A
C563   C594    1.493   .     S
C564   C568    1.423   .     A
C564   C570    1.417   .     A
C565   C567    1.397   .     A
C565   C574    1.393   .     A
C566   C575    1.393   .     A
C566   C568    1.397   .     A
C566   H705    1.086   .     S
C568   C660    1.513   .     S
C569   C579    1.519   .     S
C569   C571    1.428   .     A
C570   C573    1.428   .     A
C570   C578    1.519   .     S
C571   C574    1.415   .     A
C571   C576    1.435   .     A
C572   O634    1.284   .     A
C572   O636    1.289   .     A
C572   C593    1.440   .     S
C573   C575    1.415   .     A
C573   C577    1.435   .     A
C574   C1310   1.392   .     S
C575   C1311   1.392   1_554 S
C576   C589    1.407   .     A
C576   C1297   1.432   .     S
C577   C583    1.407   .     A
C577   C1296   1.432   1_554 S
C578   H630    1.109   .     S
C578   H599    1.112   .     S
C578   H598    1.110   .     S
C579   H602    1.112   .     S
C579   H600    1.110   .     S
C579   H601    1.109   .     S
C580   H610    1.113   .     S
C580   H609    1.108   .     S
C580   C581    1.525   .     S
C581   C582    1.527   .     S
C581   H606    1.112   .     S
C582   H604    1.111   .     S
C582   H603    1.110   .     S
C582   H605    1.110   .     S
C583   H626    1.075   .     S
C583   C590    1.382   .     A
C584   H617    1.108   .     S
C584   C585    1.525   .     S
C584   H616    1.113   .     S
C584   C647    1.513   .     S
C585   C586    1.527   .     S
C585   H615    1.112   .     S
C585   H694    1.105   .     S
C586   H612    1.110   .     S
C586   H613    1.110   .     S
C586   H611    1.111   .     S
C587   H620    1.111   .     S
C587   H621    1.105   .     S
C588   H624    1.111   .     S
C588   H623    1.105   .     S
C588   C113    1.527   1_565 S
C588   H142    1.103   1_565 S
C589   H627    1.075   .     S
C589   C591    1.382   .     A
C590   C1294   1.392   1_554 S
C591   C1295   1.392   .     S
C591   H688    1.085   .     S
C592   C107    1.527   1_565 S
C592   C113    1.366   1_565 S
C594   O637    1.298   .     A
C594   O639    1.302   .     A
Cu595  Cu596   2.675   .     S
Cu595  O640    1.889   .     S
Cu595  O636    1.980   .     S
Cu595  N632    2.010   .     S
Cu595  O633    1.982   .     S
Cu595  O637    1.925   .     S
Cu596  N631    2.010   .     S
Cu596  O635    1.980   .     S
Cu596  O634    1.982   .     S
Cu596  O639    1.889   .     S
Cu596  O638    1.925   .     S
H597   C670    1.085   .     S
H607   C661    1.105   .     S
H618   C107    1.103   1_565 S
H619   C645    1.086   .     S
H628   N631    1.029   .     S
H629   N632    1.029   .     S
N631   N712    1.293   .     S
C641   O715    1.289   .     A
C641   C672    1.440   .     S
C641   O713    1.284   .     A
C642   C644    1.493   .     S
C642   O718    1.298   .     A
C642   O720    1.302   .     A
C643   C649    1.417   .     A
C643   C647    1.423   .     A
C643   C674    1.493   .     S
C644   C648    1.423   .     A
C644   C650    1.417   .     A
C645   C647    1.397   .     A
C645   C654    1.393   .     A
C646   C655    1.393   .     A
C646   C648    1.397   .     A
C646   H545    1.086   1_655 S
C648   C500    1.513   1_655 S
C649   C659    1.519   .     S
C649   C651    1.428   .     A
C650   C653    1.428   .     A
C650   C658    1.519   .     S
C651   C654    1.415   .     A
C651   C656    1.435   .     A
C652   O714    1.284   .     A
C652   O716    1.289   .     A
C652   C673    1.440   .     S
C653   C655    1.415   .     A
C653   C657    1.435   .     A
C654   C1390   1.392   .     S
C655   C1391   1.392   1_554 S
C656   C669    1.407   .     A
C656   C1377   1.432   .     S
C657   C663    1.407   .     A
C657   C1376   1.432   1_554 S
C658   H710    1.109   .     S
C658   H679    1.112   .     S
C658   H678    1.110   .     S
C659   H682    1.112   .     S
C659   H680    1.110   .     S
C659   H681    1.109   .     S
C660   H690    1.113   .     S
C660   H689    1.108   .     S
C660   C661    1.525   .     S
C661   C662    1.527   .     S
C661   H686    1.112   .     S
C662   H684    1.111   .     S
C662   H683    1.110   .     S
C662   H685    1.110   .     S
C663   H706    1.075   .     S
C663   C670    1.382   .     A
C664   H697    1.108   .     S
C664   C665    1.525   .     S
C664   H696    1.113   .     S
C664   C487    1.513   1_655 S
C665   C666    1.527   .     S
C665   H695    1.112   .     S
C665   H534    1.105   1_655 S
C666   H692    1.110   .     S
C666   H693    1.110   .     S
C666   H691    1.111   .     S
C667   H700    1.111   .     S
C667   H701    1.105   .     S
C668   H704    1.111   .     S
C668   H703    1.105   .     S
C668   C193    1.527   1_565 S
C668   H222    1.103   1_565 S
C669   H707    1.075   .     S
C669   C671    1.382   .     A
C670   C1374   1.392   1_554 S
C671   C1375   1.392   .     S
C671   H528    1.085   1_655 S
C672   C187    1.527   1_565 S
C672   C193    1.366   1_565 S
C674   O717    1.298   .     A
C674   O719    1.302   .     A
Cu675  Cu676   2.675   .     S
Cu675  O720    1.889   .     S
Cu675  O716    1.980   .     S
Cu675  N712    2.010   .     S
Cu675  O713    1.982   .     S
Cu675  O717    1.925   .     S
Cu676  N711    2.010   .     S
Cu676  O715    1.980   .     S
Cu676  O714    1.982   .     S
Cu676  O719    1.889   .     S
Cu676  O718    1.925   .     S
H677   C510    1.085   1_655 S
H687   C501    1.105   1_655 S
H698   C187    1.103   1_565 S
H699   C485    1.086   1_655 S
H708   N711    1.029   .     S
H709   N712    1.029   .     S
N711   N552    1.293   1_655 S
C721   O795    1.289   .     A
C721   C752    1.440   .     S
C721   O793    1.284   .     A
C722   C724    1.493   .     S
C722   O798    1.298   .     A
C722   O800    1.302   .     A
C723   C729    1.417   .     A
C723   C727    1.423   .     A
C723   C754    1.493   .     S
C724   C728    1.423   .     A
C724   C730    1.417   .     A
C725   C727    1.397   .     A
C725   C734    1.393   .     A
C725   H939    1.086   1_455 S
C726   C735    1.393   .     A
C726   C728    1.397   .     A
C726   H865    1.086   .     S
C727   C904    1.513   1_455 S
C728   C820    1.513   .     S
C729   C739    1.519   .     S
C729   C731    1.428   .     A
C730   C733    1.428   .     A
C730   C738    1.519   .     S
C731   C734    1.415   .     A
C731   C736    1.435   .     A
C732   O794    1.284   .     A
C732   O796    1.289   .     A
C732   C753    1.440   .     S
C733   C735    1.415   .     A
C733   C737    1.435   .     A
C734   C30     1.392   1_556 S
C736   C749    1.407   .     A
C736   C17     1.432   1_556 S
C737   C743    1.407   .     A
C738   H790    1.109   .     S
C738   H759    1.112   .     S
C738   H758    1.110   .     S
C739   H762    1.112   .     S
C739   H760    1.110   .     S
C739   H761    1.109   .     S
C740   H770    1.113   .     S
C740   H769    1.108   .     S
C740   C741    1.525   .     S
C740   C888    1.513   1_455 S
C741   C742    1.527   .     S
C741   H766    1.112   .     S
C741   H927    1.105   1_455 S
C742   H764    1.111   .     S
C742   H763    1.110   .     S
C742   H765    1.110   .     S
C743   H786    1.075   .     S
C743   C750    1.382   .     A
C744   H777    1.108   .     S
C744   C745    1.525   .     S
C744   H776    1.113   .     S
C744   C807    1.513   .     S
C745   C746    1.527   .     S
C745   H775    1.112   .     S
C745   H854    1.105   .     S
C746   H772    1.110   .     S
C746   H773    1.110   .     S
C746   H771    1.111   .     S
C747   H780    1.111   .     S
C747   H781    1.105   .     S
C747   C1232   1.527   1_545 S
C747   H1258   1.103   1_545 S
C748   H784    1.111   .     S
C748   H783    1.105   .     S
C748   C993    1.527   .     S
C748   H1022   1.103   .     S
C749   H787    1.075   .     S
C749   C751    1.382   .     A
C750   H917    1.085   1_455 S
C751   C15     1.392   1_556 S
C751   H848    1.085   .     S
C752   C987    1.527   .     S
C752   C993    1.366   .     S
C753   C1232   1.366   1_545 S
C753   C1228   1.527   1_545 S
C754   O797    1.298   .     A
C754   O799    1.302   .     A
Cu755  Cu756   2.675   .     S
Cu755  O800    1.889   .     S
Cu755  O796    1.980   .     S
Cu755  N792    2.010   .     S
Cu755  O793    1.982   .     S
Cu755  O797    1.925   .     S
Cu756  N791    2.010   .     S
Cu756  O795    1.980   .     S
Cu756  O794    1.982   .     S
Cu756  O799    1.889   .     S
Cu756  O798    1.925   .     S
H757   C830    1.085   .     S
H767   C821    1.105   .     S
H768   C911    1.085   1_455 S
H774   C905    1.105   1_455 S
H778   C987    1.103   .     S
H779   C805    1.086   .     S
H782   C1228   1.103   1_545 S
H785   C886    1.086   1_455 S
H788   N791    1.029   .     S
H789   N792    1.029   .     S
N791   N872    1.293   .     S
N792   N951    1.293   1_455 S
C801   O875    1.289   .     A
C801   C832    1.440   .     S
C801   O873    1.284   .     A
C802   C804    1.493   .     S
C802   O878    1.298   .     A
C802   O880    1.302   .     A
C803   C809    1.417   .     A
C803   C807    1.423   .     A
C803   C834    1.493   .     S
C804   C808    1.423   .     A
C804   C810    1.417   .     A
C805   C807    1.397   .     A
C805   C814    1.393   .     A
C806   C815    1.393   .     A
C806   C808    1.397   .     A
C806   H945    1.086   .     S
C808   C900    1.513   .     S
C809   C819    1.519   .     S
C809   C811    1.428   .     A
C810   C813    1.428   .     A
C810   C818    1.519   .     S
C811   C814    1.415   .     A
C811   C816    1.435   .     A
C812   O874    1.284   .     A
C812   O876    1.289   .     A
C812   C833    1.440   .     S
C813   C815    1.415   .     A
C813   C817    1.435   .     A
C814   C110    1.392   1_556 S
C816   C829    1.407   .     A
C816   C97     1.432   1_556 S
C817   C823    1.407   .     A
C818   H870    1.109   .     S
C818   H839    1.112   .     S
C818   H838    1.110   .     S
C819   H842    1.112   .     S
C819   H840    1.110   .     S
C819   H841    1.109   .     S
C820   H850    1.113   .     S
C820   H849    1.108   .     S
C820   C821    1.525   .     S
C821   C822    1.527   .     S
C821   H846    1.112   .     S
C822   H844    1.111   .     S
C822   H843    1.110   .     S
C822   H845    1.110   .     S
C823   H866    1.075   .     S
C823   C830    1.382   .     A
C824   H857    1.108   .     S
C824   C825    1.525   .     S
C824   H856    1.113   .     S
C824   C887    1.513   .     S
C825   C826    1.527   .     S
C825   H855    1.112   .     S
C825   H934    1.105   .     S
C826   H852    1.110   .     S
C826   H853    1.110   .     S
C826   H851    1.111   .     S
C827   H860    1.111   .     S
C827   H861    1.105   .     S
C827   C1312   1.527   1_545 S
C827   H1338   1.103   1_545 S
C828   H864    1.111   .     S
C828   H863    1.105   .     S
C828   C1073   1.527   .     S
C828   H1102   1.103   .     S
C829   H867    1.075   .     S
C829   C831    1.382   .     A
C831   C95     1.392   1_556 S
C831   H928    1.085   .     S
C832   C1067   1.527   .     S
C832   C1073   1.366   .     S
C833   C1312   1.366   1_545 S
C833   C1308   1.527   1_545 S
C834   O877    1.298   .     A
C834   O879    1.302   .     A
Cu835  Cu836   2.675   .     S
Cu835  O880    1.889   .     S
Cu835  O876    1.980   .     S
Cu835  N872    2.010   .     S
Cu835  O873    1.982   .     S
Cu835  O877    1.925   .     S
Cu836  N871    2.010   .     S
Cu836  O875    1.980   .     S
Cu836  O874    1.982   .     S
Cu836  O879    1.889   .     S
Cu836  O878    1.925   .     S
H837   C910    1.085   .     S
H847   C901    1.105   .     S
H858   C1067   1.103   .     S
H859   C885    1.086   .     S
H862   C1308   1.103   1_545 S
H868   N871    1.029   .     S
H869   N872    1.029   .     S
N871   N952    1.293   .     S
C881   O955    1.289   .     A
C881   C912    1.440   .     S
C881   O953    1.284   .     A
C882   C884    1.493   .     S
C882   O958    1.298   .     A
C882   O960    1.302   .     A
C883   C889    1.417   .     A
C883   C887    1.423   .     A
C883   C914    1.493   .     S
C884   C888    1.423   .     A
C884   C890    1.417   .     A
C885   C887    1.397   .     A
C885   C894    1.393   .     A
C886   C895    1.393   .     A
C886   C888    1.397   .     A
C886   H785    1.086   1_655 S
C888   C740    1.513   1_655 S
C889   C899    1.519   .     S
C889   C891    1.428   .     A
C890   C893    1.428   .     A
C890   C898    1.519   .     S
C891   C894    1.415   .     A
C891   C896    1.435   .     A
C892   O954    1.284   .     A
C892   O956    1.289   .     A
C892   C913    1.440   .     S
C893   C895    1.415   .     A
C893   C897    1.435   .     A
C894   C190    1.392   1_556 S
C896   C909    1.407   .     A
C896   C177    1.432   1_556 S
C897   C903    1.407   .     A
C898   H950    1.109   .     S
C898   H919    1.112   .     S
C898   H918    1.110   .     S
C899   H922    1.112   .     S
C899   H920    1.110   .     S
C899   H921    1.109   .     S
C900   H930    1.113   .     S
C900   H929    1.108   .     S
C900   C901    1.525   .     S
C901   C902    1.527   .     S
C901   H926    1.112   .     S
C902   H924    1.111   .     S
C902   H923    1.110   .     S
C902   H925    1.110   .     S
C903   H946    1.075   .     S
C903   C910    1.382   .     A
C904   H937    1.108   .     S
C904   C905    1.525   .     S
C904   H936    1.113   .     S
C904   C727    1.513   1_655 S
C905   C906    1.527   .     S
C905   H935    1.112   .     S
C905   H774    1.105   1_655 S
C906   H932    1.110   .     S
C906   H933    1.110   .     S
C906   H931    1.111   .     S
C907   H940    1.111   .     S
C907   H941    1.105   .     S
C907   C1392   1.527   1_545 S
C907   H1418   1.103   1_545 S
C908   H944    1.111   .     S
C908   H943    1.105   .     S
C908   C1153   1.527   .     S
C908   H1182   1.103   .     S
C909   H947    1.075   .     S
C909   C911    1.382   .     A
C911   C175    1.392   1_556 S
C911   H768    1.085   1_655 S
C912   C1147   1.527   .     S
C912   C1153   1.366   .     S
C913   C1392   1.366   1_545 S
C913   C1388   1.527   1_545 S
C914   O957    1.298   .     A
C914   O959    1.302   .     A
Cu915  Cu916   2.675   .     S
Cu915  O960    1.889   .     S
Cu915  O956    1.980   .     S
Cu915  N952    2.010   .     S
Cu915  O953    1.982   .     S
Cu915  O957    1.925   .     S
Cu916  N951    2.010   .     S
Cu916  O955    1.980   .     S
Cu916  O954    1.982   .     S
Cu916  O959    1.889   .     S
Cu916  O958    1.925   .     S
H917   C750    1.085   1_655 S
H927   C741    1.105   1_655 S
H938   C1147   1.103   .     S
H939   C725    1.086   1_655 S
H942   C1388   1.103   1_545 S
H948   N951    1.029   .     S
H949   N952    1.029   .     S
N951   N792    1.293   1_655 S
C961   O1035   1.289   .     A
C961   C992    1.440   .     S
C961   O1033   1.284   .     A
C962   C964    1.493   .     S
C962   O1038   1.298   .     A
C962   O1040   1.302   .     A
C963   C969    1.417   .     A
C963   C967    1.423   .     A
C963   C994    1.493   .     S
C964   C968    1.423   .     A
C964   C970    1.417   .     A
C965   C967    1.397   .     A
C965   C974    1.393   .     A
C965   H1179   1.086   1_455 S
C966   C975    1.393   .     A
C966   C968    1.397   .     A
C966   H1105   1.086   .     S
C967   C1144   1.513   1_455 S
C968   C1060   1.513   .     S
C969   C979    1.519   .     S
C969   C971    1.428   .     A
C970   C973    1.428   .     A
C970   C978    1.519   .     S
C971   C974    1.415   .     A
C971   C976    1.435   .     A
C972   O1034   1.284   .     A
C972   O1036   1.289   .     A
C972   C993    1.440   .     S
C973   C975    1.415   .     A
C973   C977    1.435   .     A
C974   C270    1.392   1_556 S
C976   C989    1.407   .     A
C976   C257    1.432   1_556 S
C977   C983    1.407   .     A
C978   H1030   1.109   .     S
C978   H999    1.112   .     S
C978   H998    1.110   .     S
C979   H1002   1.112   .     S
C979   H1000   1.110   .     S
C979   H1001   1.109   .     S
C980   H1010   1.113   .     S
C980   H1009   1.108   .     S
C980   C981    1.525   .     S
C980   C1128   1.513   1_455 S
C981   C982    1.527   .     S
C981   H1006   1.112   .     S
C981   H1167   1.105   1_455 S
C982   H1004   1.111   .     S
C982   H1003   1.110   .     S
C982   H1005   1.110   .     S
C983   H1026   1.075   .     S
C983   C990    1.382   .     A
C984   H1017   1.108   .     S
C984   C985    1.525   .     S
C984   H1016   1.113   .     S
C984   C1047   1.513   .     S
C985   C986    1.527   .     S
C985   H1015   1.112   .     S
C985   H1094   1.105   .     S
C986   H1012   1.110   .     S
C986   H1013   1.110   .     S
C986   H1011   1.111   .     S
C987   H1020   1.111   .     S
C987   H1021   1.105   .     S
C988   H1024   1.111   .     S
C988   H1023   1.105   .     S
C988   C1233   1.527   .     S
C988   H1262   1.103   .     S
C989   H1027   1.075   .     S
C989   C991    1.382   .     A
C990   H1157   1.085   1_455 S
C991   C255    1.392   1_556 S
C991   H1088   1.085   .     S
C992   C1227   1.527   .     S
C992   C1233   1.366   .     S
C994   O1037   1.298   .     A
C994   O1039   1.302   .     A
Cu995  Cu996   2.675   .     S
Cu995  O1040   1.889   .     S
Cu995  O1036   1.980   .     S
Cu995  N1032   2.010   .     S
Cu995  O1033   1.982   .     S
Cu995  O1037   1.925   .     S
Cu996  N1031   2.010   .     S
Cu996  O1035   1.980   .     S
Cu996  O1034   1.982   .     S
Cu996  O1039   1.889   .     S
Cu996  O1038   1.925   .     S
H997   C1070   1.085   .     S
H1007  C1061   1.105   .     S
H1008  C1151   1.085   1_455 S
H1014  C1145   1.105   1_455 S
H1018  C1227   1.103   .     S
H1019  C1045   1.086   .     S
H1025  C1126   1.086   1_455 S
H1028  N1031   1.029   .     S
H1029  N1032   1.029   .     S
N1031  N1112   1.293   .     S
N1032  N1191   1.293   1_455 S
C1041  O1115   1.289   .     A
C1041  C1072   1.440   .     S
C1041  O1113   1.284   .     A
C1042  C1044   1.493   .     S
C1042  O1118   1.298   .     A
C1042  O1120   1.302   .     A
C1043  C1049   1.417   .     A
C1043  C1047   1.423   .     A
C1043  C1074   1.493   .     S
C1044  C1048   1.423   .     A
C1044  C1050   1.417   .     A
C1045  C1047   1.397   .     A
C1045  C1054   1.393   .     A
C1046  C1055   1.393   .     A
C1046  C1048   1.397   .     A
C1046  H1185   1.086   .     S
C1048  C1140   1.513   .     S
C1049  C1059   1.519   .     S
C1049  C1051   1.428   .     A
C1050  C1053   1.428   .     A
C1050  C1058   1.519   .     S
C1051  C1054   1.415   .     A
C1051  C1056   1.435   .     A
C1052  O1114   1.284   .     A
C1052  O1116   1.289   .     A
C1052  C1073   1.440   .     S
C1053  C1055   1.415   .     A
C1053  C1057   1.435   .     A
C1054  C350    1.392   1_556 S
C1056  C1069   1.407   .     A
C1056  C337    1.432   1_556 S
C1057  C1063   1.407   .     A
C1058  H1110   1.109   .     S
C1058  H1079   1.112   .     S
C1058  H1078   1.110   .     S
C1059  H1082   1.112   .     S
C1059  H1080   1.110   .     S
C1059  H1081   1.109   .     S
C1060  H1090   1.113   .     S
C1060  H1089   1.108   .     S
C1060  C1061   1.525   .     S
C1061  C1062   1.527   .     S
C1061  H1086   1.112   .     S
C1062  H1084   1.111   .     S
C1062  H1083   1.110   .     S
C1062  H1085   1.110   .     S
C1063  H1106   1.075   .     S
C1063  C1070   1.382   .     A
C1064  H1097   1.108   .     S
C1064  C1065   1.525   .     S
C1064  H1096   1.113   .     S
C1064  C1127   1.513   .     S
C1065  C1066   1.527   .     S
C1065  H1095   1.112   .     S
C1065  H1174   1.105   .     S
C1066  H1092   1.110   .     S
C1066  H1093   1.110   .     S
C1066  H1091   1.111   .     S
C1067  H1100   1.111   .     S
C1067  H1101   1.105   .     S
C1068  H1104   1.111   .     S
C1068  H1103   1.105   .     S
C1068  C1313   1.527   .     S
C1068  H1342   1.103   .     S
C1069  H1107   1.075   .     S
C1069  C1071   1.382   .     A
C1071  C335    1.392   1_556 S
C1071  H1168   1.085   .     S
C1072  C1307   1.527   .     S
C1072  C1313   1.366   .     S
C1074  O1117   1.298   .     A
C1074  O1119   1.302   .     A
Cu1075 Cu1076  2.675   .     S
Cu1075 O1120   1.889   .     S
Cu1075 O1116   1.980   .     S
Cu1075 N1112   2.010   .     S
Cu1075 O1113   1.982   .     S
Cu1075 O1117   1.925   .     S
Cu1076 N1111   2.010   .     S
Cu1076 O1115   1.980   .     S
Cu1076 O1114   1.982   .     S
Cu1076 O1119   1.889   .     S
Cu1076 O1118   1.925   .     S
H1077  C1150   1.085   .     S
H1087  C1141   1.105   .     S
H1098  C1307   1.103   .     S
H1099  C1125   1.086   .     S
H1108  N1111   1.029   .     S
H1109  N1112   1.029   .     S
N1111  N1192   1.293   .     S
C1121  O1195   1.289   .     A
C1121  C1152   1.440   .     S
C1121  O1193   1.284   .     A
C1122  C1124   1.493   .     S
C1122  O1198   1.298   .     A
C1122  O1200   1.302   .     A
C1123  C1129   1.417   .     A
C1123  C1127   1.423   .     A
C1123  C1154   1.493   .     S
C1124  C1128   1.423   .     A
C1124  C1130   1.417   .     A
C1125  C1127   1.397   .     A
C1125  C1134   1.393   .     A
C1126  C1135   1.393   .     A
C1126  C1128   1.397   .     A
C1126  H1025   1.086   1_655 S
C1128  C980    1.513   1_655 S
C1129  C1139   1.519   .     S
C1129  C1131   1.428   .     A
C1130  C1133   1.428   .     A
C1130  C1138   1.519   .     S
C1131  C1134   1.415   .     A
C1131  C1136   1.435   .     A
C1132  O1194   1.284   .     A
C1132  O1196   1.289   .     A
C1132  C1153   1.440   .     S
C1133  C1135   1.415   .     A
C1133  C1137   1.435   .     A
C1134  C430    1.392   1_556 S
C1136  C1149   1.407   .     A
C1136  C417    1.432   1_556 S
C1137  C1143   1.407   .     A
C1138  H1190   1.109   .     S
C1138  H1159   1.112   .     S
C1138  H1158   1.110   .     S
C1139  H1162   1.112   .     S
C1139  H1160   1.110   .     S
C1139  H1161   1.109   .     S
C1140  H1170   1.113   .     S
C1140  H1169   1.108   .     S
C1140  C1141   1.525   .     S
C1141  C1142   1.527   .     S
C1141  H1166   1.112   .     S
C1142  H1164   1.111   .     S
C1142  H1163   1.110   .     S
C1142  H1165   1.110   .     S
C1143  H1186   1.075   .     S
C1143  C1150   1.382   .     A
C1144  H1177   1.108   .     S
C1144  C1145   1.525   .     S
C1144  H1176   1.113   .     S
C1144  C967    1.513   1_655 S
C1145  C1146   1.527   .     S
C1145  H1175   1.112   .     S
C1145  H1014   1.105   1_655 S
C1146  H1172   1.110   .     S
C1146  H1173   1.110   .     S
C1146  H1171   1.111   .     S
C1147  H1180   1.111   .     S
C1147  H1181   1.105   .     S
C1148  H1184   1.111   .     S
C1148  H1183   1.105   .     S
C1148  C1393   1.527   .     S
C1148  H1422   1.103   .     S
C1149  H1187   1.075   .     S
C1149  C1151   1.382   .     A
C1151  C415    1.392   1_556 S
C1151  H1008   1.085   1_655 S
C1152  C1387   1.527   .     S
C1152  C1393   1.366   .     S
C1154  O1197   1.298   .     A
C1154  O1199   1.302   .     A
Cu1155 Cu1156  2.675   .     S
Cu1155 O1200   1.889   .     S
Cu1155 O1196   1.980   .     S
Cu1155 N1192   2.010   .     S
Cu1155 O1193   1.982   .     S
Cu1155 O1197   1.925   .     S
Cu1156 N1191   2.010   .     S
Cu1156 O1195   1.980   .     S
Cu1156 O1194   1.982   .     S
Cu1156 O1199   1.889   .     S
Cu1156 O1198   1.925   .     S
H1157  C990    1.085   1_655 S
H1167  C981    1.105   1_655 S
H1178  C1387   1.103   .     S
H1179  C965    1.086   1_655 S
H1188  N1191   1.029   .     S
H1189  N1192   1.029   .     S
N1191  N1032   1.293   1_655 S
C1201  O1275   1.289   .     A
C1201  C1232   1.440   .     S
C1201  O1273   1.284   .     A
C1202  C1204   1.493   .     S
C1202  O1278   1.298   .     A
C1202  O1280   1.302   .     A
C1203  C1209   1.417   .     A
C1203  C1207   1.423   .     A
C1203  C1234   1.493   .     S
C1204  C1208   1.423   .     A
C1204  C1210   1.417   .     A
C1205  C1207   1.397   .     A
C1205  C1214   1.393   .     A
C1205  H1419   1.086   1_455 S
C1206  C1215   1.393   .     A
C1206  C1208   1.397   .     A
C1206  H1345   1.086   .     S
C1207  C1384   1.513   1_455 S
C1208  C1300   1.513   .     S
C1209  C1219   1.519   .     S
C1209  C1211   1.428   .     A
C1210  C1213   1.428   .     A
C1210  C1218   1.519   .     S
C1211  C1214   1.415   .     A
C1211  C1216   1.435   .     A
C1212  O1274   1.284   .     A
C1212  O1276   1.289   .     A
C1212  C1233   1.440   .     S
C1213  C1215   1.415   .     A
C1213  C1217   1.435   .     A
C1214  C510    1.392   1_556 S
C1216  C1229   1.407   .     A
C1216  C497    1.432   1_556 S
C1217  C1223   1.407   .     A
C1218  H1270   1.109   .     S
C1218  H1239   1.112   .     S
C1218  H1238   1.110   .     S
C1219  H1242   1.112   .     S
C1219  H1240   1.110   .     S
C1219  H1241   1.109   .     S
C1220  H1250   1.113   .     S
C1220  H1249   1.108   .     S
C1220  C1221   1.525   .     S
C1220  C1368   1.513   1_455 S
C1221  C1222   1.527   .     S
C1221  H1246   1.112   .     S
C1221  H1407   1.105   1_455 S
C1222  H1244   1.111   .     S
C1222  H1243   1.110   .     S
C1222  H1245   1.110   .     S
C1223  H1266   1.075   .     S
C1223  C1230   1.382   .     A
C1224  H1257   1.108   .     S
C1224  C1225   1.525   .     S
C1224  H1256   1.113   .     S
C1224  C1287   1.513   .     S
C1225  C1226   1.527   .     S
C1225  H1255   1.112   .     S
C1225  H1334   1.105   .     S
C1226  H1252   1.110   .     S
C1226  H1253   1.110   .     S
C1226  H1251   1.111   .     S
C1227  H1260   1.111   .     S
C1227  H1261   1.105   .     S
C1228  H1264   1.111   .     S
C1228  H1263   1.105   .     S
C1228  C753    1.527   1_565 S
C1228  H782    1.103   1_565 S
C1229  H1267   1.075   .     S
C1229  C1231   1.382   .     A
C1230  H1397   1.085   1_455 S
C1231  C495    1.392   1_556 S
C1231  H1328   1.085   .     S
C1232  C747    1.527   1_565 S
C1232  C753    1.366   1_565 S
C1234  O1277   1.298   .     A
C1234  O1279   1.302   .     A
Cu1235 Cu1236  2.675   .     S
Cu1235 O1280   1.889   .     S
Cu1235 O1276   1.980   .     S
Cu1235 N1272   2.010   .     S
Cu1235 O1273   1.982   .     S
Cu1235 O1277   1.925   .     S
Cu1236 N1271   2.010   .     S
Cu1236 O1275   1.980   .     S
Cu1236 O1274   1.982   .     S
Cu1236 O1279   1.889   .     S
Cu1236 O1278   1.925   .     S
H1237  C1310   1.085   .     S
H1247  C1301   1.105   .     S
H1248  C1391   1.085   1_455 S
H1254  C1385   1.105   1_455 S
H1258  C747    1.103   1_565 S
H1259  C1285   1.086   .     S
H1265  C1366   1.086   1_455 S
H1268  N1271   1.029   .     S
H1269  N1272   1.029   .     S
N1271  N1352   1.293   .     S
N1272  N1431   1.293   1_455 S
C1281  O1355   1.289   .     A
C1281  C1312   1.440   .     S
C1281  O1353   1.284   .     A
C1282  C1284   1.493   .     S
C1282  O1358   1.298   .     A
C1282  O1360   1.302   .     A
C1283  C1289   1.417   .     A
C1283  C1287   1.423   .     A
C1283  C1314   1.493   .     S
C1284  C1288   1.423   .     A
C1284  C1290   1.417   .     A
C1285  C1287   1.397   .     A
C1285  C1294   1.393   .     A
C1286  C1295   1.393   .     A
C1286  C1288   1.397   .     A
C1286  H1425   1.086   .     S
C1288  C1380   1.513   .     S
C1289  C1299   1.519   .     S
C1289  C1291   1.428   .     A
C1290  C1293   1.428   .     A
C1290  C1298   1.519   .     S
C1291  C1294   1.415   .     A
C1291  C1296   1.435   .     A
C1292  O1354   1.284   .     A
C1292  O1356   1.289   .     A
C1292  C1313   1.440   .     S
C1293  C1295   1.415   .     A
C1293  C1297   1.435   .     A
C1294  C590    1.392   1_556 S
C1296  C1309   1.407   .     A
C1296  C577    1.432   1_556 S
C1297  C1303   1.407   .     A
C1298  H1350   1.109   .     S
C1298  H1319   1.112   .     S
C1298  H1318   1.110   .     S
C1299  H1322   1.112   .     S
C1299  H1320   1.110   .     S
C1299  H1321   1.109   .     S
C1300  H1330   1.113   .     S
C1300  H1329   1.108   .     S
C1300  C1301   1.525   .     S
C1301  C1302   1.527   .     S
C1301  H1326   1.112   .     S
C1302  H1324   1.111   .     S
C1302  H1323   1.110   .     S
C1302  H1325   1.110   .     S
C1303  H1346   1.075   .     S
C1303  C1310   1.382   .     A
C1304  H1337   1.108   .     S
C1304  C1305   1.525   .     S
C1304  H1336   1.113   .     S
C1304  C1367   1.513   .     S
C1305  C1306   1.527   .     S
C1305  H1335   1.112   .     S
C1305  H1414   1.105   .     S
C1306  H1332   1.110   .     S
C1306  H1333   1.110   .     S
C1306  H1331   1.111   .     S
C1307  H1340   1.111   .     S
C1307  H1341   1.105   .     S
C1308  H1344   1.111   .     S
C1308  H1343   1.105   .     S
C1308  C833    1.527   1_565 S
C1308  H862    1.103   1_565 S
C1309  H1347   1.075   .     S
C1309  C1311   1.382   .     A
C1311  C575    1.392   1_556 S
C1311  H1408   1.085   .     S
C1312  C827    1.527   1_565 S
C1312  C833    1.366   1_565 S
C1314  O1357   1.298   .     A
C1314  O1359   1.302   .     A
Cu1315 Cu1316  2.675   .     S
Cu1315 O1360   1.889   .     S
Cu1315 O1356   1.980   .     S
Cu1315 N1352   2.010   .     S
Cu1315 O1353   1.982   .     S
Cu1315 O1357   1.925   .     S
Cu1316 N1351   2.010   .     S
Cu1316 O1355   1.980   .     S
Cu1316 O1354   1.982   .     S
Cu1316 O1359   1.889   .     S
Cu1316 O1358   1.925   .     S
H1317  C1390   1.085   .     S
H1327  C1381   1.105   .     S
H1338  C827    1.103   1_565 S
H1339  C1365   1.086   .     S
H1348  N1351   1.029   .     S
H1349  N1352   1.029   .     S
N1351  N1432   1.293   .     S
C1361  O1435   1.289   .     A
C1361  C1392   1.440   .     S
C1361  O1433   1.284   .     A
C1362  C1364   1.493   .     S
C1362  O1438   1.298   .     A
C1362  O1440   1.302   .     A
C1363  C1369   1.417   .     A
C1363  C1367   1.423   .     A
C1363  C1394   1.493   .     S
C1364  C1368   1.423   .     A
C1364  C1370   1.417   .     A
C1365  C1367   1.397   .     A
C1365  C1374   1.393   .     A
C1366  C1375   1.393   .     A
C1366  C1368   1.397   .     A
C1366  H1265   1.086   1_655 S
C1368  C1220   1.513   1_655 S
C1369  C1379   1.519   .     S
C1369  C1371   1.428   .     A
C1370  C1373   1.428   .     A
C1370  C1378   1.519   .     S
C1371  C1374   1.415   .     A
C1371  C1376   1.435   .     A
C1372  O1434   1.284   .     A
C1372  O1436   1.289   .     A
C1372  C1393   1.440   .     S
C1373  C1375   1.415   .     A
C1373  C1377   1.435   .     A
C1374  C670    1.392   1_556 S
C1376  C1389   1.407   .     A
C1376  C657    1.432   1_556 S
C1377  C1383   1.407   .     A
C1378  H1430   1.109   .     S
C1378  H1399   1.112   .     S
C1378  H1398   1.110   .     S
C1379  H1402   1.112   .     S
C1379  H1400   1.110   .     S
C1379  H1401   1.109   .     S
C1380  H1410   1.113   .     S
C1380  H1409   1.108   .     S
C1380  C1381   1.525   .     S
C1381  C1382   1.527   .     S
C1381  H1406   1.112   .     S
C1382  H1404   1.111   .     S
C1382  H1403   1.110   .     S
C1382  H1405   1.110   .     S
C1383  H1426   1.075   .     S
C1383  C1390   1.382   .     A
C1384  H1417   1.108   .     S
C1384  C1385   1.525   .     S
C1384  H1416   1.113   .     S
C1384  C1207   1.513   1_655 S
C1385  C1386   1.527   .     S
C1385  H1415   1.112   .     S
C1385  H1254   1.105   1_655 S
C1386  H1412   1.110   .     S
C1386  H1413   1.110   .     S
C1386  H1411   1.111   .     S
C1387  H1420   1.111   .     S
C1387  H1421   1.105   .     S
C1388  H1424   1.111   .     S
C1388  H1423   1.105   .     S
C1388  C913    1.527   1_565 S
C1388  H942    1.103   1_565 S
C1389  H1427   1.075   .     S
C1389  C1391   1.382   .     A
C1391  C655    1.392   1_556 S
C1391  H1248   1.085   1_655 S
C1392  C907    1.527   1_565 S
C1392  C913    1.366   1_565 S
C1394  O1437   1.298   .     A
C1394  O1439   1.302   .     A
Cu1395 Cu1396  2.675   .     S
Cu1395 O1440   1.889   .     S
Cu1395 O1436   1.980   .     S
Cu1395 N1432   2.010   .     S
Cu1395 O1433   1.982   .     S
Cu1395 O1437   1.925   .     S
Cu1396 N1431   2.010   .     S
Cu1396 O1435   1.980   .     S
Cu1396 O1434   1.982   .     S
Cu1396 O1439   1.889   .     S
Cu1396 O1438   1.925   .     S
H1397  C1230   1.085   1_655 S
H1407  C1221   1.105   1_655 S
H1418  C907    1.103   1_565 S
H1419  C1205   1.086   1_655 S
H1428  N1431   1.029   .     S
H1429  N1432   1.029   .     S
N1431  N1272   1.293   1_655 S
