data_str_m2_o1_o16_pcu_sym.136
_audit_creation_date              2020-01-03
_audit_creation_method            'Materials Studio'
_symmetry_space_group_name_H-M    'P1'
_symmetry_Int_Tables_number       1
_symmetry_cell_setting            triclinic
loop_
_symmetry_equiv_pos_as_xyz
  x,y,z
_cell_length_a                    28.6266
_cell_length_b                    32.3913
_cell_length_c                    26.8912
_cell_angle_alpha                 90.5020
_cell_angle_beta                  72.8590
_cell_angle_gamma                 89.8747
loop_
_atom_site_label
_atom_site_type_symbol
_atom_site_fract_x
_atom_site_fract_y
_atom_site_fract_z
_atom_site_U_iso_or_equiv
_atom_site_adp_type
_atom_site_occupancy
C1     C     0.16731   0.24588   0.24780   0.00000  Uiso   1.00
C2     C     0.14847   0.18978   0.48779   0.00000  Uiso   1.00
C3     C     0.16338   0.18921   0.43258   0.00000  Uiso   1.00
C4     C     0.18429   0.18233   0.01404   0.00000  Uiso   1.00
C5     C     0.23380   0.17723   0.48443   0.00000  Uiso   1.00
C6     C     0.24840   0.18617   0.43173   0.00000  Uiso   1.00
C7     C     0.21363   0.19408   0.40676   0.00000  Uiso   1.00
C8     C     0.17256   0.17793   0.06819   0.00000  Uiso   1.00
C9     C     0.25600   0.15626   0.06079   0.00000  Uiso   1.00
C10    C     0.12757   0.18454   0.40551   0.00000  Uiso   1.00
C11    C     0.20925   0.31253   0.21549   0.00000  Uiso   1.00
C12    C     0.14108   0.17224   0.34951   0.00000  Uiso   1.00
C13    C     0.20867   0.02205   0.21878   0.00000  Uiso   1.00
C14    C     0.16701   0.04292   0.24868   0.00000  Uiso   1.00
C15    C     0.12536   0.02127   0.27585   0.00000  Uiso   1.00
C16    C     0.12601   0.31189   0.27471   0.00000  Uiso   1.00
C17    C     0.16791   0.29058   0.24546   0.00000  Uiso   1.00
C18    C     0.30278   0.19905   0.27083   0.00000  Uiso   1.00
C19    C     0.01885   0.19893   0.27113   0.00000  Uiso   1.00
C20    C     0.03077   0.13434   0.22920   0.00000  Uiso   1.00
C21    C     0.31462   0.13409   0.22971   0.00000  Uiso   1.00
C22    C     0.16667   0.08745   0.25001   0.00000  Uiso   1.00
C23    C     0.19286   0.16544   0.14977   0.00000  Uiso   1.00
C24    C     0.26844   0.16319   0.00742   0.00000  Uiso   1.00
C25    C     0.20803   0.16626   0.09226   0.00000  Uiso   1.00
C26    C     0.07834   0.19186   0.43292   0.00000  Uiso   1.00
C27    C     0.06479   0.20100   0.48604   0.00000  Uiso   1.00
C28    C     0.09871   0.19775   0.01382   0.00000  Uiso   1.00
Cu29   Cu    0.11978   0.16666   0.25000   0.00000  Uiso   1.00
Cu30   Cu    0.21355   0.16667   0.25000   0.00000  Uiso   1.00
H31    H     0.24012   0.03936   0.19668   0.00000  Uiso   1.00
H32    H     0.09284   0.03738   0.29884   0.00000  Uiso   1.00
H33    H     0.09398   0.29543   0.29739   0.00000  Uiso   1.00
H34    H     0.27979   0.22520   0.28735   0.00000  Uiso   1.00
H35    H     0.03249   0.22478   0.28834   0.00000  Uiso   1.00
H36    H     0.05411   0.10848   0.21215   0.00000  Uiso   1.00
H37    H     0.28678   0.18671   0.40961   0.00000  Uiso   1.00
H38    H     0.30515   0.15644   0.48302   0.00000  Uiso   1.00
H39    H     0.13570   0.18309   0.09243   0.00000  Uiso   1.00
H40    H     0.05050   0.19158   0.41302   0.00000  Uiso   1.00
H41    H     0.08531   0.20318   0.05521   0.00000  Uiso   1.00
H42    H     0.22708   0.20496   0.36755   0.00000  Uiso   1.00
N43    N     0.04931   0.16666   0.24998   0.00000  Uiso   1.00
N44    N     0.28402   0.16669   0.24999   0.00000  Uiso   1.00
O45    O     0.12708   0.22678   0.25000   0.00000  Uiso   1.00
O46    O     0.20627   0.22679   0.25000   0.00000  Uiso   1.00
O47    O     0.10775   0.16665   0.32549   0.00000  Uiso   1.00
O48    O     0.18694   0.16666   0.32549   0.00000  Uiso   1.00
O49    O     0.12706   0.10654   0.24999   0.00000  Uiso   1.00
O50    O     0.20625   0.10655   0.24999   0.00000  Uiso   1.00
O51    O     0.14640   0.16667   0.17451   0.00000  Uiso   1.00
O52    O     0.22559   0.16668   0.17451   0.00000  Uiso   1.00
S53    S     0.30042   0.13210   0.08477   0.00000  Uiso   1.00
O54    O     0.27689   0.09743   0.11990   0.00000  Uiso   1.00
O55    O     0.00801   0.11478   0.04061   0.00000  Uiso   1.00
O56    O     0.32336   0.16700   0.11783   0.00000  Uiso   1.00
H57    H     0.02157   0.15511   0.11905   0.00000  Uiso   1.00
F58    F     0.29813   0.10084   0.20948   0.00000  Uiso   1.00
F59    F     0.01838   0.21286   0.01114   0.00000  Uiso   1.00
S60    S     0.26048   0.28856   0.17062   0.00000  Uiso   1.00
O61    O     0.29395   0.27183   0.19943   0.00000  Uiso   1.00
O62    O     0.24398   0.25397   0.14233   0.00000  Uiso   1.00
O63    O     0.29124   0.32317   0.12692   0.00000  Uiso   1.00
H64    H     0.31918   0.30754   0.10382   0.00000  Uiso   1.00
C65    C     0.50064   0.24588   0.24780   0.00000  Uiso   1.00
C66    C     0.48180   0.18978   0.48779   0.00000  Uiso   1.00
C67    C     0.49671   0.18921   0.43258   0.00000  Uiso   1.00
C68    C     0.51763   0.18233   0.01404   0.00000  Uiso   1.00
C69    C     0.56714   0.17723   0.48443   0.00000  Uiso   1.00
C70    C     0.58173   0.18617   0.43173   0.00000  Uiso   1.00
C71    C     0.54696   0.19408   0.40676   0.00000  Uiso   1.00
C72    C     0.50590   0.17793   0.06819   0.00000  Uiso   1.00
C73    C     0.58933   0.15626   0.06079   0.00000  Uiso   1.00
C74    C     0.46091   0.18454   0.40551   0.00000  Uiso   1.00
C75    C     0.54258   0.31253   0.21549   0.00000  Uiso   1.00
C76    C     0.47442   0.17224   0.34951   0.00000  Uiso   1.00
C77    C     0.54200   0.02205   0.21878   0.00000  Uiso   1.00
C78    C     0.50034   0.04292   0.24868   0.00000  Uiso   1.00
C79    C     0.45869   0.02127   0.27585   0.00000  Uiso   1.00
C80    C     0.45935   0.31189   0.27471   0.00000  Uiso   1.00
C81    C     0.50124   0.29058   0.24546   0.00000  Uiso   1.00
C82    C     0.63611   0.19905   0.27083   0.00000  Uiso   1.00
C83    C     0.35218   0.19893   0.27113   0.00000  Uiso   1.00
C84    C     0.36410   0.13434   0.22920   0.00000  Uiso   1.00
C85    C     0.64795   0.13409   0.22971   0.00000  Uiso   1.00
C86    C     0.50000   0.08745   0.25001   0.00000  Uiso   1.00
C87    C     0.52620   0.16544   0.14977   0.00000  Uiso   1.00
C88    C     0.60177   0.16319   0.00742   0.00000  Uiso   1.00
C89    C     0.54136   0.16626   0.09226   0.00000  Uiso   1.00
C90    C     0.41167   0.19186   0.43292   0.00000  Uiso   1.00
C91    C     0.39813   0.20100   0.48604   0.00000  Uiso   1.00
C92    C     0.43204   0.19775   0.01382   0.00000  Uiso   1.00
Cu93   Cu    0.45311   0.16666   0.25000   0.00000  Uiso   1.00
Cu94   Cu    0.54689   0.16667   0.25000   0.00000  Uiso   1.00
H95    H     0.57345   0.03936   0.19668   0.00000  Uiso   1.00
H96    H     0.42617   0.03738   0.29884   0.00000  Uiso   1.00
H97    H     0.42732   0.29543   0.29739   0.00000  Uiso   1.00
H98    H     0.61313   0.22520   0.28735   0.00000  Uiso   1.00
H99    H     0.36583   0.22478   0.28834   0.00000  Uiso   1.00
H100   H     0.38745   0.10848   0.21215   0.00000  Uiso   1.00
H101   H     0.62012   0.18671   0.40961   0.00000  Uiso   1.00
H102   H     0.63848   0.15644   0.48302   0.00000  Uiso   1.00
H103   H     0.46903   0.18309   0.09243   0.00000  Uiso   1.00
H104   H     0.38383   0.19158   0.41302   0.00000  Uiso   1.00
H105   H     0.41865   0.20318   0.05521   0.00000  Uiso   1.00
H106   H     0.56042   0.20496   0.36755   0.00000  Uiso   1.00
N107   N     0.38265   0.16666   0.24998   0.00000  Uiso   1.00
N108   N     0.61735   0.16669   0.24999   0.00000  Uiso   1.00
O109   O     0.46042   0.22678   0.25000   0.00000  Uiso   1.00
O110   O     0.53961   0.22679   0.25000   0.00000  Uiso   1.00
O111   O     0.44108   0.16665   0.32549   0.00000  Uiso   1.00
O112   O     0.52027   0.16666   0.32549   0.00000  Uiso   1.00
O113   O     0.46039   0.10654   0.24999   0.00000  Uiso   1.00
O114   O     0.53958   0.10655   0.24999   0.00000  Uiso   1.00
O115   O     0.47973   0.16667   0.17451   0.00000  Uiso   1.00
O116   O     0.55892   0.16668   0.17451   0.00000  Uiso   1.00
S117   S     0.63375   0.13210   0.08477   0.00000  Uiso   1.00
O118   O     0.61023   0.09743   0.11990   0.00000  Uiso   1.00
O119   O     0.34134   0.11478   0.04061   0.00000  Uiso   1.00
O120   O     0.65669   0.16700   0.11783   0.00000  Uiso   1.00
H121   H     0.35491   0.15511   0.11905   0.00000  Uiso   1.00
F122   F     0.63146   0.10084   0.20948   0.00000  Uiso   1.00
F123   F     0.35171   0.21286   0.01114   0.00000  Uiso   1.00
S124   S     0.59381   0.28856   0.17062   0.00000  Uiso   1.00
O125   O     0.62729   0.27183   0.19943   0.00000  Uiso   1.00
O126   O     0.57731   0.25397   0.14233   0.00000  Uiso   1.00
O127   O     0.62457   0.32317   0.12692   0.00000  Uiso   1.00
H128   H     0.65251   0.30754   0.10382   0.00000  Uiso   1.00
C129   C     0.83397   0.24588   0.24780   0.00000  Uiso   1.00
C130   C     0.81513   0.18978   0.48779   0.00000  Uiso   1.00
C131   C     0.83004   0.18921   0.43258   0.00000  Uiso   1.00
C132   C     0.85096   0.18233   0.01404   0.00000  Uiso   1.00
C133   C     0.90047   0.17723   0.48443   0.00000  Uiso   1.00
C134   C     0.91507   0.18617   0.43173   0.00000  Uiso   1.00
C135   C     0.88029   0.19408   0.40676   0.00000  Uiso   1.00
C136   C     0.83923   0.17793   0.06819   0.00000  Uiso   1.00
C137   C     0.92266   0.15626   0.06079   0.00000  Uiso   1.00
C138   C     0.79424   0.18454   0.40551   0.00000  Uiso   1.00
C139   C     0.87591   0.31253   0.21549   0.00000  Uiso   1.00
C140   C     0.80775   0.17224   0.34951   0.00000  Uiso   1.00
C141   C     0.87534   0.02205   0.21878   0.00000  Uiso   1.00
C142   C     0.83368   0.04292   0.24868   0.00000  Uiso   1.00
C143   C     0.79203   0.02127   0.27585   0.00000  Uiso   1.00
C144   C     0.79268   0.31189   0.27471   0.00000  Uiso   1.00
C145   C     0.83458   0.29058   0.24546   0.00000  Uiso   1.00
C146   C     0.96944   0.19905   0.27083   0.00000  Uiso   1.00
C147   C     0.68551   0.19893   0.27113   0.00000  Uiso   1.00
C148   C     0.69744   0.13434   0.22920   0.00000  Uiso   1.00
C149   C     0.98128   0.13409   0.22971   0.00000  Uiso   1.00
C150   C     0.83333   0.08745   0.25001   0.00000  Uiso   1.00
C151   C     0.85953   0.16544   0.14977   0.00000  Uiso   1.00
C152   C     0.93511   0.16319   0.00742   0.00000  Uiso   1.00
C153   C     0.87470   0.16626   0.09226   0.00000  Uiso   1.00
C154   C     0.74501   0.19186   0.43292   0.00000  Uiso   1.00
C155   C     0.73146   0.20100   0.48604   0.00000  Uiso   1.00
C156   C     0.76538   0.19775   0.01382   0.00000  Uiso   1.00
Cu157  Cu    0.78645   0.16666   0.25000   0.00000  Uiso   1.00
Cu158  Cu    0.88022   0.16667   0.25000   0.00000  Uiso   1.00
H159   H     0.90679   0.03936   0.19668   0.00000  Uiso   1.00
H160   H     0.75950   0.03738   0.29884   0.00000  Uiso   1.00
H161   H     0.76065   0.29543   0.29739   0.00000  Uiso   1.00
H162   H     0.94646   0.22520   0.28735   0.00000  Uiso   1.00
H163   H     0.69916   0.22478   0.28834   0.00000  Uiso   1.00
H164   H     0.72078   0.10848   0.21215   0.00000  Uiso   1.00
H165   H     0.95345   0.18671   0.40961   0.00000  Uiso   1.00
H166   H     0.97182   0.15644   0.48302   0.00000  Uiso   1.00
H167   H     0.80236   0.18309   0.09243   0.00000  Uiso   1.00
H168   H     0.71716   0.19158   0.41302   0.00000  Uiso   1.00
H169   H     0.75198   0.20318   0.05521   0.00000  Uiso   1.00
H170   H     0.89375   0.20496   0.36755   0.00000  Uiso   1.00
N171   N     0.71598   0.16666   0.24998   0.00000  Uiso   1.00
N172   N     0.95069   0.16669   0.24999   0.00000  Uiso   1.00
O173   O     0.79375   0.22678   0.25000   0.00000  Uiso   1.00
O174   O     0.87294   0.22679   0.25000   0.00000  Uiso   1.00
O175   O     0.77441   0.16665   0.32549   0.00000  Uiso   1.00
O176   O     0.85360   0.16666   0.32549   0.00000  Uiso   1.00
O177   O     0.79373   0.10654   0.24999   0.00000  Uiso   1.00
O178   O     0.87292   0.10655   0.24999   0.00000  Uiso   1.00
O179   O     0.81306   0.16667   0.17451   0.00000  Uiso   1.00
O180   O     0.89225   0.16668   0.17451   0.00000  Uiso   1.00
S181   S     0.96708   0.13210   0.08477   0.00000  Uiso   1.00
O182   O     0.94356   0.09743   0.11990   0.00000  Uiso   1.00
O183   O     0.67468   0.11478   0.04061   0.00000  Uiso   1.00
O184   O     0.99002   0.16700   0.11783   0.00000  Uiso   1.00
H185   H     0.68824   0.15511   0.11905   0.00000  Uiso   1.00
F186   F     0.96480   0.10084   0.20948   0.00000  Uiso   1.00
F187   F     0.68505   0.21286   0.01114   0.00000  Uiso   1.00
S188   S     0.92714   0.28856   0.17062   0.00000  Uiso   1.00
O189   O     0.96062   0.27183   0.19943   0.00000  Uiso   1.00
O190   O     0.91064   0.25397   0.14233   0.00000  Uiso   1.00
O191   O     0.95791   0.32317   0.12692   0.00000  Uiso   1.00
H192   H     0.98585   0.30754   0.10382   0.00000  Uiso   1.00
C193   C     0.16731   0.57922   0.24780   0.00000  Uiso   1.00
C194   C     0.14847   0.52311   0.48779   0.00000  Uiso   1.00
C195   C     0.16338   0.52254   0.43258   0.00000  Uiso   1.00
C196   C     0.18429   0.51567   0.01404   0.00000  Uiso   1.00
C197   C     0.23380   0.51056   0.48443   0.00000  Uiso   1.00
C198   C     0.24840   0.51950   0.43173   0.00000  Uiso   1.00
C199   C     0.21363   0.52741   0.40676   0.00000  Uiso   1.00
C200   C     0.17256   0.51127   0.06819   0.00000  Uiso   1.00
C201   C     0.25600   0.48959   0.06079   0.00000  Uiso   1.00
C202   C     0.12757   0.51787   0.40551   0.00000  Uiso   1.00
C203   C     0.20925   0.64586   0.21549   0.00000  Uiso   1.00
C204   C     0.14108   0.50558   0.34951   0.00000  Uiso   1.00
C205   C     0.20867   0.35539   0.21878   0.00000  Uiso   1.00
C206   C     0.16701   0.37625   0.24868   0.00000  Uiso   1.00
C207   C     0.12536   0.35460   0.27585   0.00000  Uiso   1.00
C208   C     0.12601   0.64522   0.27471   0.00000  Uiso   1.00
C209   C     0.16791   0.62391   0.24546   0.00000  Uiso   1.00
C210   C     0.30278   0.53238   0.27083   0.00000  Uiso   1.00
C211   C     0.01885   0.53226   0.27113   0.00000  Uiso   1.00
C212   C     0.03077   0.46768   0.22920   0.00000  Uiso   1.00
C213   C     0.31462   0.46742   0.22971   0.00000  Uiso   1.00
C214   C     0.16667   0.42079   0.25001   0.00000  Uiso   1.00
C215   C     0.19286   0.49877   0.14977   0.00000  Uiso   1.00
C216   C     0.26844   0.49652   0.00742   0.00000  Uiso   1.00
C217   C     0.20803   0.49959   0.09226   0.00000  Uiso   1.00
C218   C     0.07834   0.52519   0.43292   0.00000  Uiso   1.00
C219   C     0.06479   0.53434   0.48604   0.00000  Uiso   1.00
C220   C     0.09871   0.53109   0.01382   0.00000  Uiso   1.00
Cu221  Cu    0.11978   0.49999   0.25000   0.00000  Uiso   1.00
Cu222  Cu    0.21355   0.50001   0.25000   0.00000  Uiso   1.00
H223   H     0.24012   0.37270   0.19668   0.00000  Uiso   1.00
H224   H     0.09284   0.37071   0.29884   0.00000  Uiso   1.00
H225   H     0.09398   0.62876   0.29739   0.00000  Uiso   1.00
H226   H     0.27979   0.55853   0.28735   0.00000  Uiso   1.00
H227   H     0.03249   0.55811   0.28834   0.00000  Uiso   1.00
H228   H     0.05411   0.44181   0.21215   0.00000  Uiso   1.00
H229   H     0.28678   0.52004   0.40961   0.00000  Uiso   1.00
H230   H     0.30515   0.48977   0.48302   0.00000  Uiso   1.00
H231   H     0.13570   0.51642   0.09243   0.00000  Uiso   1.00
H232   H     0.05050   0.52492   0.41302   0.00000  Uiso   1.00
H233   H     0.08531   0.53651   0.05521   0.00000  Uiso   1.00
H234   H     0.22708   0.53830   0.36755   0.00000  Uiso   1.00
N235   N     0.04931   0.49999   0.24998   0.00000  Uiso   1.00
N236   N     0.28402   0.50002   0.24999   0.00000  Uiso   1.00
O237   O     0.12708   0.56011   0.25000   0.00000  Uiso   1.00
O238   O     0.20627   0.56012   0.25000   0.00000  Uiso   1.00
O239   O     0.10775   0.49998   0.32549   0.00000  Uiso   1.00
O240   O     0.18694   0.49999   0.32549   0.00000  Uiso   1.00
O241   O     0.12706   0.43988   0.24999   0.00000  Uiso   1.00
O242   O     0.20625   0.43989   0.24999   0.00000  Uiso   1.00
O243   O     0.14640   0.50001   0.17451   0.00000  Uiso   1.00
O244   O     0.22559   0.50002   0.17451   0.00000  Uiso   1.00
S245   S     0.30042   0.46543   0.08477   0.00000  Uiso   1.00
O246   O     0.27689   0.43076   0.11990   0.00000  Uiso   1.00
O247   O     0.00801   0.44812   0.04061   0.00000  Uiso   1.00
O248   O     0.32336   0.50033   0.11783   0.00000  Uiso   1.00
H249   H     0.02157   0.48844   0.11905   0.00000  Uiso   1.00
F250   F     0.29813   0.43417   0.20948   0.00000  Uiso   1.00
F251   F     0.01838   0.54620   0.01114   0.00000  Uiso   1.00
S252   S     0.26048   0.62190   0.17062   0.00000  Uiso   1.00
O253   O     0.29395   0.60517   0.19943   0.00000  Uiso   1.00
O254   O     0.24398   0.58731   0.14233   0.00000  Uiso   1.00
O255   O     0.29124   0.65650   0.12692   0.00000  Uiso   1.00
H256   H     0.31918   0.64087   0.10382   0.00000  Uiso   1.00
C257   C     0.50064   0.57922   0.24780   0.00000  Uiso   1.00
C258   C     0.48180   0.52311   0.48779   0.00000  Uiso   1.00
C259   C     0.49671   0.52254   0.43258   0.00000  Uiso   1.00
C260   C     0.51763   0.51567   0.01404   0.00000  Uiso   1.00
C261   C     0.56714   0.51056   0.48443   0.00000  Uiso   1.00
C262   C     0.58173   0.51950   0.43173   0.00000  Uiso   1.00
C263   C     0.54696   0.52741   0.40676   0.00000  Uiso   1.00
C264   C     0.50590   0.51127   0.06819   0.00000  Uiso   1.00
C265   C     0.58933   0.48959   0.06079   0.00000  Uiso   1.00
C266   C     0.46091   0.51787   0.40551   0.00000  Uiso   1.00
C267   C     0.54258   0.64586   0.21549   0.00000  Uiso   1.00
C268   C     0.47442   0.50558   0.34951   0.00000  Uiso   1.00
C269   C     0.54200   0.35539   0.21878   0.00000  Uiso   1.00
C270   C     0.50034   0.37625   0.24868   0.00000  Uiso   1.00
C271   C     0.45869   0.35460   0.27585   0.00000  Uiso   1.00
C272   C     0.45935   0.64522   0.27471   0.00000  Uiso   1.00
C273   C     0.50124   0.62391   0.24546   0.00000  Uiso   1.00
C274   C     0.63611   0.53238   0.27083   0.00000  Uiso   1.00
C275   C     0.35218   0.53226   0.27113   0.00000  Uiso   1.00
C276   C     0.36410   0.46768   0.22920   0.00000  Uiso   1.00
C277   C     0.64795   0.46742   0.22971   0.00000  Uiso   1.00
C278   C     0.50000   0.42079   0.25001   0.00000  Uiso   1.00
C279   C     0.52620   0.49877   0.14977   0.00000  Uiso   1.00
C280   C     0.60177   0.49652   0.00742   0.00000  Uiso   1.00
C281   C     0.54136   0.49959   0.09226   0.00000  Uiso   1.00
C282   C     0.41167   0.52519   0.43292   0.00000  Uiso   1.00
C283   C     0.39813   0.53434   0.48604   0.00000  Uiso   1.00
C284   C     0.43204   0.53109   0.01382   0.00000  Uiso   1.00
Cu285  Cu    0.45311   0.49999   0.25000   0.00000  Uiso   1.00
Cu286  Cu    0.54689   0.50001   0.25000   0.00000  Uiso   1.00
H287   H     0.57345   0.37270   0.19668   0.00000  Uiso   1.00
H288   H     0.42617   0.37071   0.29884   0.00000  Uiso   1.00
H289   H     0.42732   0.62876   0.29739   0.00000  Uiso   1.00
H290   H     0.61313   0.55853   0.28735   0.00000  Uiso   1.00
H291   H     0.36583   0.55811   0.28834   0.00000  Uiso   1.00
H292   H     0.38745   0.44181   0.21215   0.00000  Uiso   1.00
H293   H     0.62012   0.52004   0.40961   0.00000  Uiso   1.00
H294   H     0.63848   0.48977   0.48302   0.00000  Uiso   1.00
H295   H     0.46903   0.51642   0.09243   0.00000  Uiso   1.00
H296   H     0.38383   0.52492   0.41302   0.00000  Uiso   1.00
H297   H     0.41865   0.53651   0.05521   0.00000  Uiso   1.00
H298   H     0.56042   0.53830   0.36755   0.00000  Uiso   1.00
N299   N     0.38265   0.49999   0.24998   0.00000  Uiso   1.00
N300   N     0.61735   0.50002   0.24999   0.00000  Uiso   1.00
O301   O     0.46042   0.56011   0.25000   0.00000  Uiso   1.00
O302   O     0.53961   0.56012   0.25000   0.00000  Uiso   1.00
O303   O     0.44108   0.49998   0.32549   0.00000  Uiso   1.00
O304   O     0.52027   0.49999   0.32549   0.00000  Uiso   1.00
O305   O     0.46039   0.43988   0.24999   0.00000  Uiso   1.00
O306   O     0.53958   0.43989   0.24999   0.00000  Uiso   1.00
O307   O     0.47973   0.50001   0.17451   0.00000  Uiso   1.00
O308   O     0.55892   0.50002   0.17451   0.00000  Uiso   1.00
S309   S     0.63375   0.46543   0.08477   0.00000  Uiso   1.00
O310   O     0.61023   0.43076   0.11990   0.00000  Uiso   1.00
O311   O     0.34134   0.44812   0.04061   0.00000  Uiso   1.00
O312   O     0.65669   0.50033   0.11783   0.00000  Uiso   1.00
H313   H     0.35491   0.48844   0.11905   0.00000  Uiso   1.00
F314   F     0.63146   0.43417   0.20948   0.00000  Uiso   1.00
F315   F     0.35171   0.54620   0.01114   0.00000  Uiso   1.00
S316   S     0.59381   0.62190   0.17062   0.00000  Uiso   1.00
O317   O     0.62729   0.60517   0.19943   0.00000  Uiso   1.00
O318   O     0.57731   0.58731   0.14233   0.00000  Uiso   1.00
O319   O     0.62457   0.65650   0.12692   0.00000  Uiso   1.00
H320   H     0.65251   0.64087   0.10382   0.00000  Uiso   1.00
C321   C     0.83397   0.57922   0.24780   0.00000  Uiso   1.00
C322   C     0.81513   0.52311   0.48779   0.00000  Uiso   1.00
C323   C     0.83004   0.52254   0.43258   0.00000  Uiso   1.00
C324   C     0.85096   0.51567   0.01404   0.00000  Uiso   1.00
C325   C     0.90047   0.51056   0.48443   0.00000  Uiso   1.00
C326   C     0.91507   0.51950   0.43173   0.00000  Uiso   1.00
C327   C     0.88029   0.52741   0.40676   0.00000  Uiso   1.00
C328   C     0.83923   0.51127   0.06819   0.00000  Uiso   1.00
C329   C     0.92266   0.48959   0.06079   0.00000  Uiso   1.00
C330   C     0.79424   0.51787   0.40551   0.00000  Uiso   1.00
C331   C     0.87591   0.64586   0.21549   0.00000  Uiso   1.00
C332   C     0.80775   0.50558   0.34951   0.00000  Uiso   1.00
C333   C     0.87534   0.35539   0.21878   0.00000  Uiso   1.00
C334   C     0.83368   0.37625   0.24868   0.00000  Uiso   1.00
C335   C     0.79203   0.35460   0.27585   0.00000  Uiso   1.00
C336   C     0.79268   0.64522   0.27471   0.00000  Uiso   1.00
C337   C     0.83458   0.62391   0.24546   0.00000  Uiso   1.00
C338   C     0.96944   0.53238   0.27083   0.00000  Uiso   1.00
C339   C     0.68551   0.53226   0.27113   0.00000  Uiso   1.00
C340   C     0.69744   0.46768   0.22920   0.00000  Uiso   1.00
C341   C     0.98128   0.46742   0.22971   0.00000  Uiso   1.00
C342   C     0.83333   0.42079   0.25001   0.00000  Uiso   1.00
C343   C     0.85953   0.49877   0.14977   0.00000  Uiso   1.00
C344   C     0.93511   0.49652   0.00742   0.00000  Uiso   1.00
C345   C     0.87470   0.49959   0.09226   0.00000  Uiso   1.00
C346   C     0.74501   0.52519   0.43292   0.00000  Uiso   1.00
C347   C     0.73146   0.53434   0.48604   0.00000  Uiso   1.00
C348   C     0.76538   0.53109   0.01382   0.00000  Uiso   1.00
Cu349  Cu    0.78645   0.49999   0.25000   0.00000  Uiso   1.00
Cu350  Cu    0.88022   0.50001   0.25000   0.00000  Uiso   1.00
H351   H     0.90679   0.37270   0.19668   0.00000  Uiso   1.00
H352   H     0.75950   0.37071   0.29884   0.00000  Uiso   1.00
H353   H     0.76065   0.62876   0.29739   0.00000  Uiso   1.00
H354   H     0.94646   0.55853   0.28735   0.00000  Uiso   1.00
H355   H     0.69916   0.55811   0.28834   0.00000  Uiso   1.00
H356   H     0.72078   0.44181   0.21215   0.00000  Uiso   1.00
H357   H     0.95345   0.52004   0.40961   0.00000  Uiso   1.00
H358   H     0.97182   0.48977   0.48302   0.00000  Uiso   1.00
H359   H     0.80236   0.51642   0.09243   0.00000  Uiso   1.00
H360   H     0.71716   0.52492   0.41302   0.00000  Uiso   1.00
H361   H     0.75198   0.53651   0.05521   0.00000  Uiso   1.00
H362   H     0.89375   0.53830   0.36755   0.00000  Uiso   1.00
N363   N     0.71598   0.49999   0.24998   0.00000  Uiso   1.00
N364   N     0.95069   0.50002   0.24999   0.00000  Uiso   1.00
O365   O     0.79375   0.56011   0.25000   0.00000  Uiso   1.00
O366   O     0.87294   0.56012   0.25000   0.00000  Uiso   1.00
O367   O     0.77441   0.49998   0.32549   0.00000  Uiso   1.00
O368   O     0.85360   0.49999   0.32549   0.00000  Uiso   1.00
O369   O     0.79373   0.43988   0.24999   0.00000  Uiso   1.00
O370   O     0.87292   0.43989   0.24999   0.00000  Uiso   1.00
O371   O     0.81306   0.50001   0.17451   0.00000  Uiso   1.00
O372   O     0.89225   0.50002   0.17451   0.00000  Uiso   1.00
S373   S     0.96708   0.46543   0.08477   0.00000  Uiso   1.00
O374   O     0.94356   0.43076   0.11990   0.00000  Uiso   1.00
O375   O     0.67468   0.44812   0.04061   0.00000  Uiso   1.00
O376   O     0.99002   0.50033   0.11783   0.00000  Uiso   1.00
H377   H     0.68824   0.48844   0.11905   0.00000  Uiso   1.00
F378   F     0.96480   0.43417   0.20948   0.00000  Uiso   1.00
F379   F     0.68505   0.54620   0.01114   0.00000  Uiso   1.00
S380   S     0.92714   0.62190   0.17062   0.00000  Uiso   1.00
O381   O     0.96062   0.60517   0.19943   0.00000  Uiso   1.00
O382   O     0.91064   0.58731   0.14233   0.00000  Uiso   1.00
O383   O     0.95791   0.65650   0.12692   0.00000  Uiso   1.00
H384   H     0.98585   0.64087   0.10382   0.00000  Uiso   1.00
C385   C     0.16731   0.91255   0.24780   0.00000  Uiso   1.00
C386   C     0.14847   0.85645   0.48779   0.00000  Uiso   1.00
C387   C     0.16338   0.85588   0.43258   0.00000  Uiso   1.00
C388   C     0.18429   0.84900   0.01404   0.00000  Uiso   1.00
C389   C     0.23380   0.84390   0.48443   0.00000  Uiso   1.00
C390   C     0.24840   0.85284   0.43173   0.00000  Uiso   1.00
C391   C     0.21363   0.86074   0.40676   0.00000  Uiso   1.00
C392   C     0.17256   0.84460   0.06819   0.00000  Uiso   1.00
C393   C     0.25600   0.82293   0.06079   0.00000  Uiso   1.00
C394   C     0.12757   0.85121   0.40551   0.00000  Uiso   1.00
C395   C     0.20925   0.97920   0.21549   0.00000  Uiso   1.00
C396   C     0.14108   0.83891   0.34951   0.00000  Uiso   1.00
C397   C     0.20867   0.68872   0.21878   0.00000  Uiso   1.00
C398   C     0.16701   0.70959   0.24868   0.00000  Uiso   1.00
C399   C     0.12536   0.68793   0.27585   0.00000  Uiso   1.00
C400   C     0.12601   0.97855   0.27471   0.00000  Uiso   1.00
C401   C     0.16791   0.95724   0.24546   0.00000  Uiso   1.00
C402   C     0.30278   0.86572   0.27083   0.00000  Uiso   1.00
C403   C     0.01885   0.86560   0.27113   0.00000  Uiso   1.00
C404   C     0.03077   0.80101   0.22920   0.00000  Uiso   1.00
C405   C     0.31462   0.80076   0.22971   0.00000  Uiso   1.00
C406   C     0.16667   0.75412   0.25001   0.00000  Uiso   1.00
C407   C     0.19286   0.83211   0.14977   0.00000  Uiso   1.00
C408   C     0.26844   0.82985   0.00742   0.00000  Uiso   1.00
C409   C     0.20803   0.83292   0.09226   0.00000  Uiso   1.00
C410   C     0.07834   0.85853   0.43292   0.00000  Uiso   1.00
C411   C     0.06479   0.86767   0.48604   0.00000  Uiso   1.00
C412   C     0.09871   0.86442   0.01382   0.00000  Uiso   1.00
Cu413  Cu    0.11978   0.83333   0.25000   0.00000  Uiso   1.00
Cu414  Cu    0.21355   0.83334   0.25000   0.00000  Uiso   1.00
H415   H     0.24012   0.70603   0.19668   0.00000  Uiso   1.00
H416   H     0.09284   0.70404   0.29884   0.00000  Uiso   1.00
H417   H     0.09398   0.96210   0.29739   0.00000  Uiso   1.00
H418   H     0.27979   0.89187   0.28735   0.00000  Uiso   1.00
H419   H     0.03249   0.89144   0.28834   0.00000  Uiso   1.00
H420   H     0.05411   0.77514   0.21215   0.00000  Uiso   1.00
H421   H     0.28678   0.85338   0.40961   0.00000  Uiso   1.00
H422   H     0.30515   0.82310   0.48302   0.00000  Uiso   1.00
H423   H     0.13570   0.84975   0.09243   0.00000  Uiso   1.00
H424   H     0.05050   0.85825   0.41302   0.00000  Uiso   1.00
H425   H     0.08531   0.86984   0.05521   0.00000  Uiso   1.00
H426   H     0.22708   0.87163   0.36755   0.00000  Uiso   1.00
N427   N     0.04931   0.83332   0.24998   0.00000  Uiso   1.00
N428   N     0.28402   0.83335   0.24999   0.00000  Uiso   1.00
O429   O     0.12708   0.89345   0.25000   0.00000  Uiso   1.00
O430   O     0.20627   0.89346   0.25000   0.00000  Uiso   1.00
O431   O     0.10775   0.83332   0.32549   0.00000  Uiso   1.00
O432   O     0.18694   0.83333   0.32549   0.00000  Uiso   1.00
O433   O     0.12706   0.77321   0.24999   0.00000  Uiso   1.00
O434   O     0.20625   0.77322   0.24999   0.00000  Uiso   1.00
O435   O     0.14640   0.83334   0.17451   0.00000  Uiso   1.00
O436   O     0.22559   0.83335   0.17451   0.00000  Uiso   1.00
S437   S     0.30042   0.79877   0.08477   0.00000  Uiso   1.00
O438   O     0.27689   0.76409   0.11990   0.00000  Uiso   1.00
O439   O     0.00801   0.78145   0.04061   0.00000  Uiso   1.00
O440   O     0.32336   0.83367   0.11783   0.00000  Uiso   1.00
H441   H     0.02157   0.82178   0.11905   0.00000  Uiso   1.00
F442   F     0.29813   0.76751   0.20948   0.00000  Uiso   1.00
F443   F     0.01838   0.87953   0.01114   0.00000  Uiso   1.00
S444   S     0.26048   0.95523   0.17062   0.00000  Uiso   1.00
O445   O     0.29395   0.93850   0.19943   0.00000  Uiso   1.00
O446   O     0.24398   0.92064   0.14233   0.00000  Uiso   1.00
O447   O     0.29124   0.98983   0.12692   0.00000  Uiso   1.00
H448   H     0.31918   0.97421   0.10382   0.00000  Uiso   1.00
C449   C     0.50064   0.91255   0.24780   0.00000  Uiso   1.00
C450   C     0.48180   0.85645   0.48779   0.00000  Uiso   1.00
C451   C     0.49671   0.85588   0.43258   0.00000  Uiso   1.00
C452   C     0.51763   0.84900   0.01404   0.00000  Uiso   1.00
C453   C     0.56714   0.84390   0.48443   0.00000  Uiso   1.00
C454   C     0.58173   0.85284   0.43173   0.00000  Uiso   1.00
C455   C     0.54696   0.86074   0.40676   0.00000  Uiso   1.00
C456   C     0.50590   0.84460   0.06819   0.00000  Uiso   1.00
C457   C     0.58933   0.82293   0.06079   0.00000  Uiso   1.00
C458   C     0.46091   0.85121   0.40551   0.00000  Uiso   1.00
C459   C     0.54258   0.97920   0.21549   0.00000  Uiso   1.00
C460   C     0.47442   0.83891   0.34951   0.00000  Uiso   1.00
C461   C     0.54200   0.68872   0.21878   0.00000  Uiso   1.00
C462   C     0.50034   0.70959   0.24868   0.00000  Uiso   1.00
C463   C     0.45869   0.68793   0.27585   0.00000  Uiso   1.00
C464   C     0.45935   0.97855   0.27471   0.00000  Uiso   1.00
C465   C     0.50124   0.95724   0.24546   0.00000  Uiso   1.00
C466   C     0.63611   0.86572   0.27083   0.00000  Uiso   1.00
C467   C     0.35218   0.86560   0.27113   0.00000  Uiso   1.00
C468   C     0.36410   0.80101   0.22920   0.00000  Uiso   1.00
C469   C     0.64795   0.80076   0.22971   0.00000  Uiso   1.00
C470   C     0.50000   0.75412   0.25001   0.00000  Uiso   1.00
C471   C     0.52620   0.83211   0.14977   0.00000  Uiso   1.00
C472   C     0.60177   0.82985   0.00742   0.00000  Uiso   1.00
C473   C     0.54136   0.83292   0.09226   0.00000  Uiso   1.00
C474   C     0.41167   0.85853   0.43292   0.00000  Uiso   1.00
C475   C     0.39813   0.86767   0.48604   0.00000  Uiso   1.00
C476   C     0.43204   0.86442   0.01382   0.00000  Uiso   1.00
Cu477  Cu    0.45311   0.83333   0.25000   0.00000  Uiso   1.00
Cu478  Cu    0.54689   0.83334   0.25000   0.00000  Uiso   1.00
H479   H     0.57345   0.70603   0.19668   0.00000  Uiso   1.00
H480   H     0.42617   0.70404   0.29884   0.00000  Uiso   1.00
H481   H     0.42732   0.96210   0.29739   0.00000  Uiso   1.00
H482   H     0.61313   0.89187   0.28735   0.00000  Uiso   1.00
H483   H     0.36583   0.89144   0.28834   0.00000  Uiso   1.00
H484   H     0.38745   0.77514   0.21215   0.00000  Uiso   1.00
H485   H     0.62012   0.85338   0.40961   0.00000  Uiso   1.00
H486   H     0.63848   0.82310   0.48302   0.00000  Uiso   1.00
H487   H     0.46903   0.84975   0.09243   0.00000  Uiso   1.00
H488   H     0.38383   0.85825   0.41302   0.00000  Uiso   1.00
H489   H     0.41865   0.86984   0.05521   0.00000  Uiso   1.00
H490   H     0.56042   0.87163   0.36755   0.00000  Uiso   1.00
N491   N     0.38265   0.83332   0.24998   0.00000  Uiso   1.00
N492   N     0.61735   0.83335   0.24999   0.00000  Uiso   1.00
O493   O     0.46042   0.89345   0.25000   0.00000  Uiso   1.00
O494   O     0.53961   0.89346   0.25000   0.00000  Uiso   1.00
O495   O     0.44108   0.83332   0.32549   0.00000  Uiso   1.00
O496   O     0.52027   0.83333   0.32549   0.00000  Uiso   1.00
O497   O     0.46039   0.77321   0.24999   0.00000  Uiso   1.00
O498   O     0.53958   0.77322   0.24999   0.00000  Uiso   1.00
O499   O     0.47973   0.83334   0.17451   0.00000  Uiso   1.00
O500   O     0.55892   0.83335   0.17451   0.00000  Uiso   1.00
S501   S     0.63375   0.79877   0.08477   0.00000  Uiso   1.00
O502   O     0.61023   0.76409   0.11990   0.00000  Uiso   1.00
O503   O     0.34134   0.78145   0.04061   0.00000  Uiso   1.00
O504   O     0.65669   0.83367   0.11783   0.00000  Uiso   1.00
H505   H     0.35491   0.82178   0.11905   0.00000  Uiso   1.00
F506   F     0.63146   0.76751   0.20948   0.00000  Uiso   1.00
F507   F     0.35171   0.87953   0.01114   0.00000  Uiso   1.00
S508   S     0.59381   0.95523   0.17062   0.00000  Uiso   1.00
O509   O     0.62729   0.93850   0.19943   0.00000  Uiso   1.00
O510   O     0.57731   0.92064   0.14233   0.00000  Uiso   1.00
O511   O     0.62457   0.98983   0.12692   0.00000  Uiso   1.00
H512   H     0.65251   0.97421   0.10382   0.00000  Uiso   1.00
C513   C     0.83397   0.91255   0.24780   0.00000  Uiso   1.00
C514   C     0.81513   0.85645   0.48779   0.00000  Uiso   1.00
C515   C     0.83004   0.85588   0.43258   0.00000  Uiso   1.00
C516   C     0.85096   0.84900   0.01404   0.00000  Uiso   1.00
C517   C     0.90047   0.84390   0.48443   0.00000  Uiso   1.00
C518   C     0.91507   0.85284   0.43173   0.00000  Uiso   1.00
C519   C     0.88029   0.86074   0.40676   0.00000  Uiso   1.00
C520   C     0.83923   0.84460   0.06819   0.00000  Uiso   1.00
C521   C     0.92266   0.82293   0.06079   0.00000  Uiso   1.00
C522   C     0.79424   0.85121   0.40551   0.00000  Uiso   1.00
C523   C     0.87591   0.97920   0.21549   0.00000  Uiso   1.00
C524   C     0.80775   0.83891   0.34951   0.00000  Uiso   1.00
C525   C     0.87534   0.68872   0.21878   0.00000  Uiso   1.00
C526   C     0.83368   0.70959   0.24868   0.00000  Uiso   1.00
C527   C     0.79203   0.68793   0.27585   0.00000  Uiso   1.00
C528   C     0.79268   0.97855   0.27471   0.00000  Uiso   1.00
C529   C     0.83458   0.95724   0.24546   0.00000  Uiso   1.00
C530   C     0.96944   0.86572   0.27083   0.00000  Uiso   1.00
C531   C     0.68551   0.86560   0.27113   0.00000  Uiso   1.00
C532   C     0.69744   0.80101   0.22920   0.00000  Uiso   1.00
C533   C     0.98128   0.80076   0.22971   0.00000  Uiso   1.00
C534   C     0.83333   0.75412   0.25001   0.00000  Uiso   1.00
C535   C     0.85953   0.83211   0.14977   0.00000  Uiso   1.00
C536   C     0.93511   0.82985   0.00742   0.00000  Uiso   1.00
C537   C     0.87470   0.83292   0.09226   0.00000  Uiso   1.00
C538   C     0.74501   0.85853   0.43292   0.00000  Uiso   1.00
C539   C     0.73146   0.86767   0.48604   0.00000  Uiso   1.00
C540   C     0.76538   0.86442   0.01382   0.00000  Uiso   1.00
Cu541  Cu    0.78645   0.83333   0.25000   0.00000  Uiso   1.00
Cu542  Cu    0.88022   0.83334   0.25000   0.00000  Uiso   1.00
H543   H     0.90679   0.70603   0.19668   0.00000  Uiso   1.00
H544   H     0.75950   0.70404   0.29884   0.00000  Uiso   1.00
H545   H     0.76065   0.96210   0.29739   0.00000  Uiso   1.00
H546   H     0.94646   0.89187   0.28735   0.00000  Uiso   1.00
H547   H     0.69916   0.89144   0.28834   0.00000  Uiso   1.00
H548   H     0.72078   0.77514   0.21215   0.00000  Uiso   1.00
H549   H     0.95345   0.85338   0.40961   0.00000  Uiso   1.00
H550   H     0.97182   0.82310   0.48302   0.00000  Uiso   1.00
H551   H     0.80236   0.84975   0.09243   0.00000  Uiso   1.00
H552   H     0.71716   0.85825   0.41302   0.00000  Uiso   1.00
H553   H     0.75198   0.86984   0.05521   0.00000  Uiso   1.00
H554   H     0.89375   0.87163   0.36755   0.00000  Uiso   1.00
N555   N     0.71598   0.83332   0.24998   0.00000  Uiso   1.00
N556   N     0.95069   0.83335   0.24999   0.00000  Uiso   1.00
O557   O     0.79375   0.89345   0.25000   0.00000  Uiso   1.00
O558   O     0.87294   0.89346   0.25000   0.00000  Uiso   1.00
O559   O     0.77441   0.83332   0.32549   0.00000  Uiso   1.00
O560   O     0.85360   0.83333   0.32549   0.00000  Uiso   1.00
O561   O     0.79373   0.77321   0.24999   0.00000  Uiso   1.00
O562   O     0.87292   0.77322   0.24999   0.00000  Uiso   1.00
O563   O     0.81306   0.83334   0.17451   0.00000  Uiso   1.00
O564   O     0.89225   0.83335   0.17451   0.00000  Uiso   1.00
S565   S     0.96708   0.79877   0.08477   0.00000  Uiso   1.00
O566   O     0.94356   0.76409   0.11990   0.00000  Uiso   1.00
O567   O     0.67468   0.78145   0.04061   0.00000  Uiso   1.00
O568   O     0.99002   0.83367   0.11783   0.00000  Uiso   1.00
H569   H     0.68824   0.82178   0.11905   0.00000  Uiso   1.00
F570   F     0.96480   0.76751   0.20948   0.00000  Uiso   1.00
F571   F     0.68505   0.87953   0.01114   0.00000  Uiso   1.00
S572   S     0.92714   0.95523   0.17062   0.00000  Uiso   1.00
O573   O     0.96062   0.93850   0.19943   0.00000  Uiso   1.00
O574   O     0.91064   0.92064   0.14233   0.00000  Uiso   1.00
O575   O     0.95791   0.98983   0.12692   0.00000  Uiso   1.00
H576   H     0.98585   0.97421   0.10382   0.00000  Uiso   1.00
C577   C     0.16731   0.24588   0.74780   0.00000  Uiso   1.00
C578   C     0.14847   0.18978   0.98779   0.00000  Uiso   1.00
C579   C     0.16338   0.18921   0.93258   0.00000  Uiso   1.00
C580   C     0.18429   0.18233   0.51404   0.00000  Uiso   1.00
C581   C     0.23380   0.17723   0.98443   0.00000  Uiso   1.00
C582   C     0.24840   0.18617   0.93173   0.00000  Uiso   1.00
C583   C     0.21363   0.19408   0.90676   0.00000  Uiso   1.00
C584   C     0.17256   0.17793   0.56819   0.00000  Uiso   1.00
C585   C     0.25600   0.15626   0.56079   0.00000  Uiso   1.00
C586   C     0.12757   0.18454   0.90551   0.00000  Uiso   1.00
C587   C     0.20925   0.31253   0.71549   0.00000  Uiso   1.00
C588   C     0.14108   0.17224   0.84951   0.00000  Uiso   1.00
C589   C     0.20867   0.02205   0.71878   0.00000  Uiso   1.00
C590   C     0.16701   0.04292   0.74868   0.00000  Uiso   1.00
C591   C     0.12536   0.02127   0.77585   0.00000  Uiso   1.00
C592   C     0.12601   0.31189   0.77471   0.00000  Uiso   1.00
C593   C     0.16791   0.29058   0.74546   0.00000  Uiso   1.00
C594   C     0.30278   0.19905   0.77083   0.00000  Uiso   1.00
C595   C     0.01885   0.19893   0.77113   0.00000  Uiso   1.00
C596   C     0.03077   0.13434   0.72920   0.00000  Uiso   1.00
C597   C     0.31462   0.13409   0.72971   0.00000  Uiso   1.00
C598   C     0.16667   0.08745   0.75001   0.00000  Uiso   1.00
C599   C     0.19286   0.16544   0.64977   0.00000  Uiso   1.00
C600   C     0.26844   0.16319   0.50742   0.00000  Uiso   1.00
C601   C     0.20803   0.16626   0.59226   0.00000  Uiso   1.00
C602   C     0.07834   0.19186   0.93292   0.00000  Uiso   1.00
C603   C     0.06479   0.20100   0.98604   0.00000  Uiso   1.00
C604   C     0.09871   0.19775   0.51382   0.00000  Uiso   1.00
Cu605  Cu    0.11978   0.16666   0.75000   0.00000  Uiso   1.00
Cu606  Cu    0.21355   0.16667   0.75000   0.00000  Uiso   1.00
H607   H     0.24012   0.03936   0.69668   0.00000  Uiso   1.00
H608   H     0.09284   0.03738   0.79884   0.00000  Uiso   1.00
H609   H     0.09398   0.29543   0.79739   0.00000  Uiso   1.00
H610   H     0.27979   0.22520   0.78735   0.00000  Uiso   1.00
H611   H     0.03249   0.22478   0.78834   0.00000  Uiso   1.00
H612   H     0.05411   0.10848   0.71215   0.00000  Uiso   1.00
H613   H     0.28678   0.18671   0.90961   0.00000  Uiso   1.00
H614   H     0.30515   0.15644   0.98302   0.00000  Uiso   1.00
H615   H     0.13570   0.18309   0.59243   0.00000  Uiso   1.00
H616   H     0.05050   0.19158   0.91302   0.00000  Uiso   1.00
H617   H     0.08531   0.20318   0.55521   0.00000  Uiso   1.00
H618   H     0.22708   0.20496   0.86755   0.00000  Uiso   1.00
N619   N     0.04931   0.16666   0.74998   0.00000  Uiso   1.00
N620   N     0.28402   0.16669   0.74999   0.00000  Uiso   1.00
O621   O     0.12708   0.22678   0.75000   0.00000  Uiso   1.00
O622   O     0.20627   0.22679   0.75000   0.00000  Uiso   1.00
O623   O     0.10775   0.16665   0.82549   0.00000  Uiso   1.00
O624   O     0.18694   0.16666   0.82549   0.00000  Uiso   1.00
O625   O     0.12706   0.10654   0.74999   0.00000  Uiso   1.00
O626   O     0.20625   0.10655   0.74999   0.00000  Uiso   1.00
O627   O     0.14640   0.16667   0.67451   0.00000  Uiso   1.00
O628   O     0.22559   0.16668   0.67451   0.00000  Uiso   1.00
S629   S     0.30042   0.13210   0.58477   0.00000  Uiso   1.00
O630   O     0.27689   0.09743   0.61990   0.00000  Uiso   1.00
O631   O     0.00801   0.11478   0.54061   0.00000  Uiso   1.00
O632   O     0.32336   0.16700   0.61783   0.00000  Uiso   1.00
H633   H     0.02157   0.15511   0.61905   0.00000  Uiso   1.00
F634   F     0.29813   0.10084   0.70948   0.00000  Uiso   1.00
F635   F     0.01838   0.21286   0.51114   0.00000  Uiso   1.00
S636   S     0.26048   0.28856   0.67062   0.00000  Uiso   1.00
O637   O     0.29395   0.27183   0.69943   0.00000  Uiso   1.00
O638   O     0.24398   0.25397   0.64233   0.00000  Uiso   1.00
O639   O     0.29124   0.32317   0.62692   0.00000  Uiso   1.00
H640   H     0.31918   0.30754   0.60382   0.00000  Uiso   1.00
C641   C     0.50064   0.24588   0.74780   0.00000  Uiso   1.00
C642   C     0.48180   0.18978   0.98779   0.00000  Uiso   1.00
C643   C     0.49671   0.18921   0.93258   0.00000  Uiso   1.00
C644   C     0.51763   0.18233   0.51404   0.00000  Uiso   1.00
C645   C     0.56714   0.17723   0.98443   0.00000  Uiso   1.00
C646   C     0.58173   0.18617   0.93173   0.00000  Uiso   1.00
C647   C     0.54696   0.19408   0.90676   0.00000  Uiso   1.00
C648   C     0.50590   0.17793   0.56819   0.00000  Uiso   1.00
C649   C     0.58933   0.15626   0.56079   0.00000  Uiso   1.00
C650   C     0.46091   0.18454   0.90551   0.00000  Uiso   1.00
C651   C     0.54258   0.31253   0.71549   0.00000  Uiso   1.00
C652   C     0.47442   0.17224   0.84951   0.00000  Uiso   1.00
C653   C     0.54200   0.02205   0.71878   0.00000  Uiso   1.00
C654   C     0.50034   0.04292   0.74868   0.00000  Uiso   1.00
C655   C     0.45869   0.02127   0.77585   0.00000  Uiso   1.00
C656   C     0.45935   0.31189   0.77471   0.00000  Uiso   1.00
C657   C     0.50124   0.29058   0.74546   0.00000  Uiso   1.00
C658   C     0.63611   0.19905   0.77083   0.00000  Uiso   1.00
C659   C     0.35218   0.19893   0.77113   0.00000  Uiso   1.00
C660   C     0.36410   0.13434   0.72920   0.00000  Uiso   1.00
C661   C     0.64795   0.13409   0.72971   0.00000  Uiso   1.00
C662   C     0.50000   0.08745   0.75001   0.00000  Uiso   1.00
C663   C     0.52620   0.16544   0.64977   0.00000  Uiso   1.00
C664   C     0.60177   0.16319   0.50742   0.00000  Uiso   1.00
C665   C     0.54136   0.16626   0.59226   0.00000  Uiso   1.00
C666   C     0.41167   0.19186   0.93292   0.00000  Uiso   1.00
C667   C     0.39813   0.20100   0.98604   0.00000  Uiso   1.00
C668   C     0.43204   0.19775   0.51382   0.00000  Uiso   1.00
Cu669  Cu    0.45311   0.16666   0.75000   0.00000  Uiso   1.00
Cu670  Cu    0.54689   0.16667   0.75000   0.00000  Uiso   1.00
H671   H     0.57345   0.03936   0.69668   0.00000  Uiso   1.00
H672   H     0.42617   0.03738   0.79884   0.00000  Uiso   1.00
H673   H     0.42732   0.29543   0.79739   0.00000  Uiso   1.00
H674   H     0.61313   0.22520   0.78735   0.00000  Uiso   1.00
H675   H     0.36583   0.22478   0.78834   0.00000  Uiso   1.00
H676   H     0.38745   0.10848   0.71215   0.00000  Uiso   1.00
H677   H     0.62012   0.18671   0.90961   0.00000  Uiso   1.00
H678   H     0.63848   0.15644   0.98302   0.00000  Uiso   1.00
H679   H     0.46903   0.18309   0.59243   0.00000  Uiso   1.00
H680   H     0.38383   0.19158   0.91302   0.00000  Uiso   1.00
H681   H     0.41865   0.20318   0.55521   0.00000  Uiso   1.00
H682   H     0.56042   0.20496   0.86755   0.00000  Uiso   1.00
N683   N     0.38265   0.16666   0.74998   0.00000  Uiso   1.00
N684   N     0.61735   0.16669   0.74999   0.00000  Uiso   1.00
O685   O     0.46042   0.22678   0.75000   0.00000  Uiso   1.00
O686   O     0.53961   0.22679   0.75000   0.00000  Uiso   1.00
O687   O     0.44108   0.16665   0.82549   0.00000  Uiso   1.00
O688   O     0.52027   0.16666   0.82549   0.00000  Uiso   1.00
O689   O     0.46039   0.10654   0.74999   0.00000  Uiso   1.00
O690   O     0.53958   0.10655   0.74999   0.00000  Uiso   1.00
O691   O     0.47973   0.16667   0.67451   0.00000  Uiso   1.00
O692   O     0.55892   0.16668   0.67451   0.00000  Uiso   1.00
S693   S     0.63375   0.13210   0.58477   0.00000  Uiso   1.00
O694   O     0.61023   0.09743   0.61990   0.00000  Uiso   1.00
O695   O     0.34134   0.11478   0.54061   0.00000  Uiso   1.00
O696   O     0.65669   0.16700   0.61783   0.00000  Uiso   1.00
H697   H     0.35491   0.15511   0.61905   0.00000  Uiso   1.00
F698   F     0.63146   0.10084   0.70948   0.00000  Uiso   1.00
F699   F     0.35171   0.21286   0.51114   0.00000  Uiso   1.00
S700   S     0.59381   0.28856   0.67062   0.00000  Uiso   1.00
O701   O     0.62729   0.27183   0.69943   0.00000  Uiso   1.00
O702   O     0.57731   0.25397   0.64233   0.00000  Uiso   1.00
O703   O     0.62457   0.32317   0.62692   0.00000  Uiso   1.00
H704   H     0.65251   0.30754   0.60382   0.00000  Uiso   1.00
C705   C     0.83397   0.24588   0.74780   0.00000  Uiso   1.00
C706   C     0.81513   0.18978   0.98779   0.00000  Uiso   1.00
C707   C     0.83004   0.18921   0.93258   0.00000  Uiso   1.00
C708   C     0.85096   0.18233   0.51404   0.00000  Uiso   1.00
C709   C     0.90047   0.17723   0.98443   0.00000  Uiso   1.00
C710   C     0.91507   0.18617   0.93173   0.00000  Uiso   1.00
C711   C     0.88029   0.19408   0.90676   0.00000  Uiso   1.00
C712   C     0.83923   0.17793   0.56819   0.00000  Uiso   1.00
C713   C     0.92266   0.15626   0.56079   0.00000  Uiso   1.00
C714   C     0.79424   0.18454   0.90551   0.00000  Uiso   1.00
C715   C     0.87591   0.31253   0.71549   0.00000  Uiso   1.00
C716   C     0.80775   0.17224   0.84951   0.00000  Uiso   1.00
C717   C     0.87534   0.02205   0.71878   0.00000  Uiso   1.00
C718   C     0.83368   0.04292   0.74868   0.00000  Uiso   1.00
C719   C     0.79203   0.02127   0.77585   0.00000  Uiso   1.00
C720   C     0.79268   0.31189   0.77471   0.00000  Uiso   1.00
C721   C     0.83458   0.29058   0.74546   0.00000  Uiso   1.00
C722   C     0.96944   0.19905   0.77083   0.00000  Uiso   1.00
C723   C     0.68551   0.19893   0.77113   0.00000  Uiso   1.00
C724   C     0.69744   0.13434   0.72920   0.00000  Uiso   1.00
C725   C     0.98128   0.13409   0.72971   0.00000  Uiso   1.00
C726   C     0.83333   0.08745   0.75001   0.00000  Uiso   1.00
C727   C     0.85953   0.16544   0.64977   0.00000  Uiso   1.00
C728   C     0.93511   0.16319   0.50742   0.00000  Uiso   1.00
C729   C     0.87470   0.16626   0.59226   0.00000  Uiso   1.00
C730   C     0.74501   0.19186   0.93292   0.00000  Uiso   1.00
C731   C     0.73146   0.20100   0.98604   0.00000  Uiso   1.00
C732   C     0.76538   0.19775   0.51382   0.00000  Uiso   1.00
Cu733  Cu    0.78645   0.16666   0.75000   0.00000  Uiso   1.00
Cu734  Cu    0.88022   0.16667   0.75000   0.00000  Uiso   1.00
H735   H     0.90679   0.03936   0.69668   0.00000  Uiso   1.00
H736   H     0.75950   0.03738   0.79884   0.00000  Uiso   1.00
H737   H     0.76065   0.29543   0.79739   0.00000  Uiso   1.00
H738   H     0.94646   0.22520   0.78735   0.00000  Uiso   1.00
H739   H     0.69916   0.22478   0.78834   0.00000  Uiso   1.00
H740   H     0.72078   0.10848   0.71215   0.00000  Uiso   1.00
H741   H     0.95345   0.18671   0.90961   0.00000  Uiso   1.00
H742   H     0.97182   0.15644   0.98302   0.00000  Uiso   1.00
H743   H     0.80236   0.18309   0.59243   0.00000  Uiso   1.00
H744   H     0.71716   0.19158   0.91302   0.00000  Uiso   1.00
H745   H     0.75198   0.20318   0.55521   0.00000  Uiso   1.00
H746   H     0.89375   0.20496   0.86755   0.00000  Uiso   1.00
N747   N     0.71598   0.16666   0.74998   0.00000  Uiso   1.00
N748   N     0.95069   0.16669   0.74999   0.00000  Uiso   1.00
O749   O     0.79375   0.22678   0.75000   0.00000  Uiso   1.00
O750   O     0.87294   0.22679   0.75000   0.00000  Uiso   1.00
O751   O     0.77441   0.16665   0.82549   0.00000  Uiso   1.00
O752   O     0.85360   0.16666   0.82549   0.00000  Uiso   1.00
O753   O     0.79373   0.10654   0.74999   0.00000  Uiso   1.00
O754   O     0.87292   0.10655   0.74999   0.00000  Uiso   1.00
O755   O     0.81306   0.16667   0.67451   0.00000  Uiso   1.00
O756   O     0.89225   0.16668   0.67451   0.00000  Uiso   1.00
S757   S     0.96708   0.13210   0.58477   0.00000  Uiso   1.00
O758   O     0.94356   0.09743   0.61990   0.00000  Uiso   1.00
O759   O     0.67468   0.11478   0.54061   0.00000  Uiso   1.00
O760   O     0.99002   0.16700   0.61783   0.00000  Uiso   1.00
H761   H     0.68824   0.15511   0.61905   0.00000  Uiso   1.00
F762   F     0.96480   0.10084   0.70948   0.00000  Uiso   1.00
F763   F     0.68505   0.21286   0.51114   0.00000  Uiso   1.00
S764   S     0.92714   0.28856   0.67062   0.00000  Uiso   1.00
O765   O     0.96062   0.27183   0.69943   0.00000  Uiso   1.00
O766   O     0.91064   0.25397   0.64233   0.00000  Uiso   1.00
O767   O     0.95791   0.32317   0.62692   0.00000  Uiso   1.00
H768   H     0.98585   0.30754   0.60382   0.00000  Uiso   1.00
C769   C     0.16731   0.57922   0.74780   0.00000  Uiso   1.00
C770   C     0.14847   0.52311   0.98779   0.00000  Uiso   1.00
C771   C     0.16338   0.52254   0.93258   0.00000  Uiso   1.00
C772   C     0.18429   0.51567   0.51404   0.00000  Uiso   1.00
C773   C     0.23380   0.51056   0.98443   0.00000  Uiso   1.00
C774   C     0.24840   0.51950   0.93173   0.00000  Uiso   1.00
C775   C     0.21363   0.52741   0.90676   0.00000  Uiso   1.00
C776   C     0.17256   0.51127   0.56819   0.00000  Uiso   1.00
C777   C     0.25600   0.48959   0.56079   0.00000  Uiso   1.00
C778   C     0.12757   0.51787   0.90551   0.00000  Uiso   1.00
C779   C     0.20925   0.64586   0.71549   0.00000  Uiso   1.00
C780   C     0.14108   0.50558   0.84951   0.00000  Uiso   1.00
C781   C     0.20867   0.35539   0.71878   0.00000  Uiso   1.00
C782   C     0.16701   0.37625   0.74868   0.00000  Uiso   1.00
C783   C     0.12536   0.35460   0.77585   0.00000  Uiso   1.00
C784   C     0.12601   0.64522   0.77471   0.00000  Uiso   1.00
C785   C     0.16791   0.62391   0.74546   0.00000  Uiso   1.00
C786   C     0.30278   0.53238   0.77083   0.00000  Uiso   1.00
C787   C     0.01885   0.53226   0.77113   0.00000  Uiso   1.00
C788   C     0.03077   0.46768   0.72920   0.00000  Uiso   1.00
C789   C     0.31462   0.46742   0.72971   0.00000  Uiso   1.00
C790   C     0.16667   0.42079   0.75001   0.00000  Uiso   1.00
C791   C     0.19286   0.49877   0.64977   0.00000  Uiso   1.00
C792   C     0.26844   0.49652   0.50742   0.00000  Uiso   1.00
C793   C     0.20803   0.49959   0.59226   0.00000  Uiso   1.00
C794   C     0.07834   0.52519   0.93292   0.00000  Uiso   1.00
C795   C     0.06479   0.53434   0.98604   0.00000  Uiso   1.00
C796   C     0.09871   0.53109   0.51382   0.00000  Uiso   1.00
Cu797  Cu    0.11978   0.49999   0.75000   0.00000  Uiso   1.00
Cu798  Cu    0.21355   0.50001   0.75000   0.00000  Uiso   1.00
H799   H     0.24012   0.37270   0.69668   0.00000  Uiso   1.00
H800   H     0.09284   0.37071   0.79884   0.00000  Uiso   1.00
H801   H     0.09398   0.62876   0.79739   0.00000  Uiso   1.00
H802   H     0.27979   0.55853   0.78735   0.00000  Uiso   1.00
H803   H     0.03249   0.55811   0.78834   0.00000  Uiso   1.00
H804   H     0.05411   0.44181   0.71215   0.00000  Uiso   1.00
H805   H     0.28678   0.52004   0.90961   0.00000  Uiso   1.00
H806   H     0.30515   0.48977   0.98302   0.00000  Uiso   1.00
H807   H     0.13570   0.51642   0.59243   0.00000  Uiso   1.00
H808   H     0.05050   0.52492   0.91302   0.00000  Uiso   1.00
H809   H     0.08531   0.53651   0.55521   0.00000  Uiso   1.00
H810   H     0.22708   0.53830   0.86755   0.00000  Uiso   1.00
N811   N     0.04931   0.49999   0.74998   0.00000  Uiso   1.00
N812   N     0.28402   0.50002   0.74999   0.00000  Uiso   1.00
O813   O     0.12708   0.56011   0.75000   0.00000  Uiso   1.00
O814   O     0.20627   0.56012   0.75000   0.00000  Uiso   1.00
O815   O     0.10775   0.49998   0.82549   0.00000  Uiso   1.00
O816   O     0.18694   0.49999   0.82549   0.00000  Uiso   1.00
O817   O     0.12706   0.43988   0.74999   0.00000  Uiso   1.00
O818   O     0.20625   0.43989   0.74999   0.00000  Uiso   1.00
O819   O     0.14640   0.50001   0.67451   0.00000  Uiso   1.00
O820   O     0.22559   0.50002   0.67451   0.00000  Uiso   1.00
S821   S     0.30042   0.46543   0.58477   0.00000  Uiso   1.00
O822   O     0.27689   0.43076   0.61990   0.00000  Uiso   1.00
O823   O     0.00801   0.44812   0.54061   0.00000  Uiso   1.00
O824   O     0.32336   0.50033   0.61783   0.00000  Uiso   1.00
H825   H     0.02157   0.48844   0.61905   0.00000  Uiso   1.00
F826   F     0.29813   0.43417   0.70948   0.00000  Uiso   1.00
F827   F     0.01838   0.54620   0.51114   0.00000  Uiso   1.00
S828   S     0.26048   0.62190   0.67062   0.00000  Uiso   1.00
O829   O     0.29395   0.60517   0.69943   0.00000  Uiso   1.00
O830   O     0.24398   0.58731   0.64233   0.00000  Uiso   1.00
O831   O     0.29124   0.65650   0.62692   0.00000  Uiso   1.00
H832   H     0.31918   0.64087   0.60382   0.00000  Uiso   1.00
C833   C     0.50064   0.57922   0.74780   0.00000  Uiso   1.00
C834   C     0.48180   0.52311   0.98779   0.00000  Uiso   1.00
C835   C     0.49671   0.52254   0.93258   0.00000  Uiso   1.00
C836   C     0.51763   0.51567   0.51404   0.00000  Uiso   1.00
C837   C     0.56714   0.51056   0.98443   0.00000  Uiso   1.00
C838   C     0.58173   0.51950   0.93173   0.00000  Uiso   1.00
C839   C     0.54696   0.52741   0.90676   0.00000  Uiso   1.00
C840   C     0.50590   0.51127   0.56819   0.00000  Uiso   1.00
C841   C     0.58933   0.48959   0.56079   0.00000  Uiso   1.00
C842   C     0.46091   0.51787   0.90551   0.00000  Uiso   1.00
C843   C     0.54258   0.64586   0.71549   0.00000  Uiso   1.00
C844   C     0.47442   0.50558   0.84951   0.00000  Uiso   1.00
C845   C     0.54200   0.35539   0.71878   0.00000  Uiso   1.00
C846   C     0.50034   0.37625   0.74868   0.00000  Uiso   1.00
C847   C     0.45869   0.35460   0.77585   0.00000  Uiso   1.00
C848   C     0.45935   0.64522   0.77471   0.00000  Uiso   1.00
C849   C     0.50124   0.62391   0.74546   0.00000  Uiso   1.00
C850   C     0.63611   0.53238   0.77083   0.00000  Uiso   1.00
C851   C     0.35218   0.53226   0.77113   0.00000  Uiso   1.00
C852   C     0.36410   0.46768   0.72920   0.00000  Uiso   1.00
C853   C     0.64795   0.46742   0.72971   0.00000  Uiso   1.00
C854   C     0.50000   0.42079   0.75001   0.00000  Uiso   1.00
C855   C     0.52620   0.49877   0.64977   0.00000  Uiso   1.00
C856   C     0.60177   0.49652   0.50742   0.00000  Uiso   1.00
C857   C     0.54136   0.49959   0.59226   0.00000  Uiso   1.00
C858   C     0.41167   0.52519   0.93292   0.00000  Uiso   1.00
C859   C     0.39813   0.53434   0.98604   0.00000  Uiso   1.00
C860   C     0.43204   0.53109   0.51382   0.00000  Uiso   1.00
Cu861  Cu    0.45311   0.49999   0.75000   0.00000  Uiso   1.00
Cu862  Cu    0.54689   0.50001   0.75000   0.00000  Uiso   1.00
H863   H     0.57345   0.37270   0.69668   0.00000  Uiso   1.00
H864   H     0.42617   0.37071   0.79884   0.00000  Uiso   1.00
H865   H     0.42732   0.62876   0.79739   0.00000  Uiso   1.00
H866   H     0.61313   0.55853   0.78735   0.00000  Uiso   1.00
H867   H     0.36583   0.55811   0.78834   0.00000  Uiso   1.00
H868   H     0.38745   0.44181   0.71215   0.00000  Uiso   1.00
H869   H     0.62012   0.52004   0.90961   0.00000  Uiso   1.00
H870   H     0.63848   0.48977   0.98302   0.00000  Uiso   1.00
H871   H     0.46903   0.51642   0.59243   0.00000  Uiso   1.00
H872   H     0.38383   0.52492   0.91302   0.00000  Uiso   1.00
H873   H     0.41865   0.53651   0.55521   0.00000  Uiso   1.00
H874   H     0.56042   0.53830   0.86755   0.00000  Uiso   1.00
N875   N     0.38265   0.49999   0.74998   0.00000  Uiso   1.00
N876   N     0.61735   0.50002   0.74999   0.00000  Uiso   1.00
O877   O     0.46042   0.56011   0.75000   0.00000  Uiso   1.00
O878   O     0.53961   0.56012   0.75000   0.00000  Uiso   1.00
O879   O     0.44108   0.49998   0.82549   0.00000  Uiso   1.00
O880   O     0.52027   0.49999   0.82549   0.00000  Uiso   1.00
O881   O     0.46039   0.43988   0.74999   0.00000  Uiso   1.00
O882   O     0.53958   0.43989   0.74999   0.00000  Uiso   1.00
O883   O     0.47973   0.50001   0.67451   0.00000  Uiso   1.00
O884   O     0.55892   0.50002   0.67451   0.00000  Uiso   1.00
S885   S     0.63375   0.46543   0.58477   0.00000  Uiso   1.00
O886   O     0.61023   0.43076   0.61990   0.00000  Uiso   1.00
O887   O     0.34134   0.44812   0.54061   0.00000  Uiso   1.00
O888   O     0.65669   0.50033   0.61783   0.00000  Uiso   1.00
H889   H     0.35491   0.48844   0.61905   0.00000  Uiso   1.00
F890   F     0.63146   0.43417   0.70948   0.00000  Uiso   1.00
F891   F     0.35171   0.54620   0.51114   0.00000  Uiso   1.00
S892   S     0.59381   0.62190   0.67062   0.00000  Uiso   1.00
O893   O     0.62729   0.60517   0.69943   0.00000  Uiso   1.00
O894   O     0.57731   0.58731   0.64233   0.00000  Uiso   1.00
O895   O     0.62457   0.65650   0.62692   0.00000  Uiso   1.00
H896   H     0.65251   0.64087   0.60382   0.00000  Uiso   1.00
C897   C     0.83397   0.57922   0.74780   0.00000  Uiso   1.00
C898   C     0.81513   0.52311   0.98779   0.00000  Uiso   1.00
C899   C     0.83004   0.52254   0.93258   0.00000  Uiso   1.00
C900   C     0.85096   0.51567   0.51404   0.00000  Uiso   1.00
C901   C     0.90047   0.51056   0.98443   0.00000  Uiso   1.00
C902   C     0.91507   0.51950   0.93173   0.00000  Uiso   1.00
C903   C     0.88029   0.52741   0.90676   0.00000  Uiso   1.00
C904   C     0.83923   0.51127   0.56819   0.00000  Uiso   1.00
C905   C     0.92266   0.48959   0.56079   0.00000  Uiso   1.00
C906   C     0.79424   0.51787   0.90551   0.00000  Uiso   1.00
C907   C     0.87591   0.64586   0.71549   0.00000  Uiso   1.00
C908   C     0.80775   0.50558   0.84951   0.00000  Uiso   1.00
C909   C     0.87534   0.35539   0.71878   0.00000  Uiso   1.00
C910   C     0.83368   0.37625   0.74868   0.00000  Uiso   1.00
C911   C     0.79203   0.35460   0.77585   0.00000  Uiso   1.00
C912   C     0.79268   0.64522   0.77471   0.00000  Uiso   1.00
C913   C     0.83458   0.62391   0.74546   0.00000  Uiso   1.00
C914   C     0.96944   0.53238   0.77083   0.00000  Uiso   1.00
C915   C     0.68551   0.53226   0.77113   0.00000  Uiso   1.00
C916   C     0.69744   0.46768   0.72920   0.00000  Uiso   1.00
C917   C     0.98128   0.46742   0.72971   0.00000  Uiso   1.00
C918   C     0.83333   0.42079   0.75001   0.00000  Uiso   1.00
C919   C     0.85953   0.49877   0.64977   0.00000  Uiso   1.00
C920   C     0.93511   0.49652   0.50742   0.00000  Uiso   1.00
C921   C     0.87470   0.49959   0.59226   0.00000  Uiso   1.00
C922   C     0.74501   0.52519   0.93292   0.00000  Uiso   1.00
C923   C     0.73146   0.53434   0.98604   0.00000  Uiso   1.00
C924   C     0.76538   0.53109   0.51382   0.00000  Uiso   1.00
Cu925  Cu    0.78645   0.49999   0.75000   0.00000  Uiso   1.00
Cu926  Cu    0.88022   0.50001   0.75000   0.00000  Uiso   1.00
H927   H     0.90679   0.37270   0.69668   0.00000  Uiso   1.00
H928   H     0.75950   0.37071   0.79884   0.00000  Uiso   1.00
H929   H     0.76065   0.62876   0.79739   0.00000  Uiso   1.00
H930   H     0.94646   0.55853   0.78735   0.00000  Uiso   1.00
H931   H     0.69916   0.55811   0.78834   0.00000  Uiso   1.00
H932   H     0.72078   0.44181   0.71215   0.00000  Uiso   1.00
H933   H     0.95345   0.52004   0.90961   0.00000  Uiso   1.00
H934   H     0.97182   0.48977   0.98302   0.00000  Uiso   1.00
H935   H     0.80236   0.51642   0.59243   0.00000  Uiso   1.00
H936   H     0.71716   0.52492   0.91302   0.00000  Uiso   1.00
H937   H     0.75198   0.53651   0.55521   0.00000  Uiso   1.00
H938   H     0.89375   0.53830   0.86755   0.00000  Uiso   1.00
N939   N     0.71598   0.49999   0.74998   0.00000  Uiso   1.00
N940   N     0.95069   0.50002   0.74999   0.00000  Uiso   1.00
O941   O     0.79375   0.56011   0.75000   0.00000  Uiso   1.00
O942   O     0.87294   0.56012   0.75000   0.00000  Uiso   1.00
O943   O     0.77441   0.49998   0.82549   0.00000  Uiso   1.00
O944   O     0.85360   0.49999   0.82549   0.00000  Uiso   1.00
O945   O     0.79373   0.43988   0.74999   0.00000  Uiso   1.00
O946   O     0.87292   0.43989   0.74999   0.00000  Uiso   1.00
O947   O     0.81306   0.50001   0.67451   0.00000  Uiso   1.00
O948   O     0.89225   0.50002   0.67451   0.00000  Uiso   1.00
S949   S     0.96708   0.46543   0.58477   0.00000  Uiso   1.00
O950   O     0.94356   0.43076   0.61990   0.00000  Uiso   1.00
O951   O     0.67468   0.44812   0.54061   0.00000  Uiso   1.00
O952   O     0.99002   0.50033   0.61783   0.00000  Uiso   1.00
H953   H     0.68824   0.48844   0.61905   0.00000  Uiso   1.00
F954   F     0.96480   0.43417   0.70948   0.00000  Uiso   1.00
F955   F     0.68505   0.54620   0.51114   0.00000  Uiso   1.00
S956   S     0.92714   0.62190   0.67062   0.00000  Uiso   1.00
O957   O     0.96062   0.60517   0.69943   0.00000  Uiso   1.00
O958   O     0.91064   0.58731   0.64233   0.00000  Uiso   1.00
O959   O     0.95791   0.65650   0.62692   0.00000  Uiso   1.00
H960   H     0.98585   0.64087   0.60382   0.00000  Uiso   1.00
C961   C     0.16731   0.91255   0.74780   0.00000  Uiso   1.00
C962   C     0.14847   0.85645   0.98779   0.00000  Uiso   1.00
C963   C     0.16338   0.85588   0.93258   0.00000  Uiso   1.00
C964   C     0.18429   0.84900   0.51404   0.00000  Uiso   1.00
C965   C     0.23380   0.84390   0.98443   0.00000  Uiso   1.00
C966   C     0.24840   0.85284   0.93173   0.00000  Uiso   1.00
C967   C     0.21363   0.86074   0.90676   0.00000  Uiso   1.00
C968   C     0.17256   0.84460   0.56819   0.00000  Uiso   1.00
C969   C     0.25600   0.82293   0.56079   0.00000  Uiso   1.00
C970   C     0.12757   0.85121   0.90551   0.00000  Uiso   1.00
C971   C     0.20925   0.97920   0.71549   0.00000  Uiso   1.00
C972   C     0.14108   0.83891   0.84951   0.00000  Uiso   1.00
C973   C     0.20867   0.68872   0.71878   0.00000  Uiso   1.00
C974   C     0.16701   0.70959   0.74868   0.00000  Uiso   1.00
C975   C     0.12536   0.68793   0.77585   0.00000  Uiso   1.00
C976   C     0.12601   0.97855   0.77471   0.00000  Uiso   1.00
C977   C     0.16791   0.95724   0.74546   0.00000  Uiso   1.00
C978   C     0.30278   0.86572   0.77083   0.00000  Uiso   1.00
C979   C     0.01885   0.86560   0.77113   0.00000  Uiso   1.00
C980   C     0.03077   0.80101   0.72920   0.00000  Uiso   1.00
C981   C     0.31462   0.80076   0.72971   0.00000  Uiso   1.00
C982   C     0.16667   0.75412   0.75001   0.00000  Uiso   1.00
C983   C     0.19286   0.83211   0.64977   0.00000  Uiso   1.00
C984   C     0.26844   0.82985   0.50742   0.00000  Uiso   1.00
C985   C     0.20803   0.83292   0.59226   0.00000  Uiso   1.00
C986   C     0.07834   0.85853   0.93292   0.00000  Uiso   1.00
C987   C     0.06479   0.86767   0.98604   0.00000  Uiso   1.00
C988   C     0.09871   0.86442   0.51382   0.00000  Uiso   1.00
Cu989  Cu    0.11978   0.83333   0.75000   0.00000  Uiso   1.00
Cu990  Cu    0.21355   0.83334   0.75000   0.00000  Uiso   1.00
H991   H     0.24012   0.70603   0.69668   0.00000  Uiso   1.00
H992   H     0.09284   0.70404   0.79884   0.00000  Uiso   1.00
H993   H     0.09398   0.96210   0.79739   0.00000  Uiso   1.00
H994   H     0.27979   0.89187   0.78735   0.00000  Uiso   1.00
H995   H     0.03249   0.89144   0.78834   0.00000  Uiso   1.00
H996   H     0.05411   0.77514   0.71215   0.00000  Uiso   1.00
H997   H     0.28678   0.85338   0.90961   0.00000  Uiso   1.00
H998   H     0.30515   0.82310   0.98302   0.00000  Uiso   1.00
H999   H     0.13570   0.84975   0.59243   0.00000  Uiso   1.00
H1000  H     0.05050   0.85825   0.91302   0.00000  Uiso   1.00
H1001  H     0.08531   0.86984   0.55521   0.00000  Uiso   1.00
H1002  H     0.22708   0.87163   0.86755   0.00000  Uiso   1.00
N1003  N     0.04931   0.83332   0.74998   0.00000  Uiso   1.00
N1004  N     0.28402   0.83335   0.74999   0.00000  Uiso   1.00
O1005  O     0.12708   0.89345   0.75000   0.00000  Uiso   1.00
O1006  O     0.20627   0.89346   0.75000   0.00000  Uiso   1.00
O1007  O     0.10775   0.83332   0.82549   0.00000  Uiso   1.00
O1008  O     0.18694   0.83333   0.82549   0.00000  Uiso   1.00
O1009  O     0.12706   0.77321   0.74999   0.00000  Uiso   1.00
O1010  O     0.20625   0.77322   0.74999   0.00000  Uiso   1.00
O1011  O     0.14640   0.83334   0.67451   0.00000  Uiso   1.00
O1012  O     0.22559   0.83335   0.67451   0.00000  Uiso   1.00
S1013  S     0.30042   0.79877   0.58477   0.00000  Uiso   1.00
O1014  O     0.27689   0.76409   0.61990   0.00000  Uiso   1.00
O1015  O     0.00801   0.78145   0.54061   0.00000  Uiso   1.00
O1016  O     0.32336   0.83367   0.61783   0.00000  Uiso   1.00
H1017  H     0.02157   0.82178   0.61905   0.00000  Uiso   1.00
F1018  F     0.29813   0.76751   0.70948   0.00000  Uiso   1.00
F1019  F     0.01838   0.87953   0.51114   0.00000  Uiso   1.00
S1020  S     0.26048   0.95523   0.67062   0.00000  Uiso   1.00
O1021  O     0.29395   0.93850   0.69943   0.00000  Uiso   1.00
O1022  O     0.24398   0.92064   0.64233   0.00000  Uiso   1.00
O1023  O     0.29124   0.98983   0.62692   0.00000  Uiso   1.00
H1024  H     0.31918   0.97421   0.60382   0.00000  Uiso   1.00
C1025  C     0.50064   0.91255   0.74780   0.00000  Uiso   1.00
C1026  C     0.48180   0.85645   0.98779   0.00000  Uiso   1.00
C1027  C     0.49671   0.85588   0.93258   0.00000  Uiso   1.00
C1028  C     0.51763   0.84900   0.51404   0.00000  Uiso   1.00
C1029  C     0.56714   0.84390   0.98443   0.00000  Uiso   1.00
C1030  C     0.58173   0.85284   0.93173   0.00000  Uiso   1.00
C1031  C     0.54696   0.86074   0.90676   0.00000  Uiso   1.00
C1032  C     0.50590   0.84460   0.56819   0.00000  Uiso   1.00
C1033  C     0.58933   0.82293   0.56079   0.00000  Uiso   1.00
C1034  C     0.46091   0.85121   0.90551   0.00000  Uiso   1.00
C1035  C     0.54258   0.97920   0.71549   0.00000  Uiso   1.00
C1036  C     0.47442   0.83891   0.84951   0.00000  Uiso   1.00
C1037  C     0.54200   0.68872   0.71878   0.00000  Uiso   1.00
C1038  C     0.50034   0.70959   0.74868   0.00000  Uiso   1.00
C1039  C     0.45869   0.68793   0.77585   0.00000  Uiso   1.00
C1040  C     0.45935   0.97855   0.77471   0.00000  Uiso   1.00
C1041  C     0.50124   0.95724   0.74546   0.00000  Uiso   1.00
C1042  C     0.63611   0.86572   0.77083   0.00000  Uiso   1.00
C1043  C     0.35218   0.86560   0.77113   0.00000  Uiso   1.00
C1044  C     0.36410   0.80101   0.72920   0.00000  Uiso   1.00
C1045  C     0.64795   0.80076   0.72971   0.00000  Uiso   1.00
C1046  C     0.50000   0.75412   0.75001   0.00000  Uiso   1.00
C1047  C     0.52620   0.83211   0.64977   0.00000  Uiso   1.00
C1048  C     0.60177   0.82985   0.50742   0.00000  Uiso   1.00
C1049  C     0.54136   0.83292   0.59226   0.00000  Uiso   1.00
C1050  C     0.41167   0.85853   0.93292   0.00000  Uiso   1.00
C1051  C     0.39813   0.86767   0.98604   0.00000  Uiso   1.00
C1052  C     0.43204   0.86442   0.51382   0.00000  Uiso   1.00
Cu1053 Cu    0.45311   0.83333   0.75000   0.00000  Uiso   1.00
Cu1054 Cu    0.54689   0.83334   0.75000   0.00000  Uiso   1.00
H1055  H     0.57345   0.70603   0.69668   0.00000  Uiso   1.00
H1056  H     0.42617   0.70404   0.79884   0.00000  Uiso   1.00
H1057  H     0.42732   0.96210   0.79739   0.00000  Uiso   1.00
H1058  H     0.61313   0.89187   0.78735   0.00000  Uiso   1.00
H1059  H     0.36583   0.89144   0.78834   0.00000  Uiso   1.00
H1060  H     0.38745   0.77514   0.71215   0.00000  Uiso   1.00
H1061  H     0.62012   0.85338   0.90961   0.00000  Uiso   1.00
H1062  H     0.63848   0.82310   0.98302   0.00000  Uiso   1.00
H1063  H     0.46903   0.84975   0.59243   0.00000  Uiso   1.00
H1064  H     0.38383   0.85825   0.91302   0.00000  Uiso   1.00
H1065  H     0.41865   0.86984   0.55521   0.00000  Uiso   1.00
H1066  H     0.56042   0.87163   0.86755   0.00000  Uiso   1.00
N1067  N     0.38265   0.83332   0.74998   0.00000  Uiso   1.00
N1068  N     0.61735   0.83335   0.74999   0.00000  Uiso   1.00
O1069  O     0.46042   0.89345   0.75000   0.00000  Uiso   1.00
O1070  O     0.53961   0.89346   0.75000   0.00000  Uiso   1.00
O1071  O     0.44108   0.83332   0.82549   0.00000  Uiso   1.00
O1072  O     0.52027   0.83333   0.82549   0.00000  Uiso   1.00
O1073  O     0.46039   0.77321   0.74999   0.00000  Uiso   1.00
O1074  O     0.53958   0.77322   0.74999   0.00000  Uiso   1.00
O1075  O     0.47973   0.83334   0.67451   0.00000  Uiso   1.00
O1076  O     0.55892   0.83335   0.67451   0.00000  Uiso   1.00
S1077  S     0.63375   0.79877   0.58477   0.00000  Uiso   1.00
O1078  O     0.61023   0.76409   0.61990   0.00000  Uiso   1.00
O1079  O     0.34134   0.78145   0.54061   0.00000  Uiso   1.00
O1080  O     0.65669   0.83367   0.61783   0.00000  Uiso   1.00
H1081  H     0.35491   0.82178   0.61905   0.00000  Uiso   1.00
F1082  F     0.63146   0.76751   0.70948   0.00000  Uiso   1.00
F1083  F     0.35171   0.87953   0.51114   0.00000  Uiso   1.00
S1084  S     0.59381   0.95523   0.67062   0.00000  Uiso   1.00
O1085  O     0.62729   0.93850   0.69943   0.00000  Uiso   1.00
O1086  O     0.57731   0.92064   0.64233   0.00000  Uiso   1.00
O1087  O     0.62457   0.98983   0.62692   0.00000  Uiso   1.00
H1088  H     0.65251   0.97421   0.60382   0.00000  Uiso   1.00
C1089  C     0.83397   0.91255   0.74780   0.00000  Uiso   1.00
C1090  C     0.81513   0.85645   0.98779   0.00000  Uiso   1.00
C1091  C     0.83004   0.85588   0.93258   0.00000  Uiso   1.00
C1092  C     0.85096   0.84900   0.51404   0.00000  Uiso   1.00
C1093  C     0.90047   0.84390   0.98443   0.00000  Uiso   1.00
C1094  C     0.91507   0.85284   0.93173   0.00000  Uiso   1.00
C1095  C     0.88029   0.86074   0.90676   0.00000  Uiso   1.00
C1096  C     0.83923   0.84460   0.56819   0.00000  Uiso   1.00
C1097  C     0.92266   0.82293   0.56079   0.00000  Uiso   1.00
C1098  C     0.79424   0.85121   0.90551   0.00000  Uiso   1.00
C1099  C     0.87591   0.97920   0.71549   0.00000  Uiso   1.00
C1100  C     0.80775   0.83891   0.84951   0.00000  Uiso   1.00
C1101  C     0.87534   0.68872   0.71878   0.00000  Uiso   1.00
C1102  C     0.83368   0.70959   0.74868   0.00000  Uiso   1.00
C1103  C     0.79203   0.68793   0.77585   0.00000  Uiso   1.00
C1104  C     0.79268   0.97855   0.77471   0.00000  Uiso   1.00
C1105  C     0.83458   0.95724   0.74546   0.00000  Uiso   1.00
C1106  C     0.96944   0.86572   0.77083   0.00000  Uiso   1.00
C1107  C     0.68551   0.86560   0.77113   0.00000  Uiso   1.00
C1108  C     0.69744   0.80101   0.72920   0.00000  Uiso   1.00
C1109  C     0.98128   0.80076   0.72971   0.00000  Uiso   1.00
C1110  C     0.83333   0.75412   0.75001   0.00000  Uiso   1.00
C1111  C     0.85953   0.83211   0.64977   0.00000  Uiso   1.00
C1112  C     0.93511   0.82985   0.50742   0.00000  Uiso   1.00
C1113  C     0.87470   0.83292   0.59226   0.00000  Uiso   1.00
C1114  C     0.74501   0.85853   0.93292   0.00000  Uiso   1.00
C1115  C     0.73146   0.86767   0.98604   0.00000  Uiso   1.00
C1116  C     0.76538   0.86442   0.51382   0.00000  Uiso   1.00
Cu1117 Cu    0.78645   0.83333   0.75000   0.00000  Uiso   1.00
Cu1118 Cu    0.88022   0.83334   0.75000   0.00000  Uiso   1.00
H1119  H     0.90679   0.70603   0.69668   0.00000  Uiso   1.00
H1120  H     0.75950   0.70404   0.79884   0.00000  Uiso   1.00
H1121  H     0.76065   0.96210   0.79739   0.00000  Uiso   1.00
H1122  H     0.94646   0.89187   0.78735   0.00000  Uiso   1.00
H1123  H     0.69916   0.89144   0.78834   0.00000  Uiso   1.00
H1124  H     0.72078   0.77514   0.71215   0.00000  Uiso   1.00
H1125  H     0.95345   0.85338   0.90961   0.00000  Uiso   1.00
H1126  H     0.97182   0.82310   0.98302   0.00000  Uiso   1.00
H1127  H     0.80236   0.84975   0.59243   0.00000  Uiso   1.00
H1128  H     0.71716   0.85825   0.91302   0.00000  Uiso   1.00
H1129  H     0.75198   0.86984   0.55521   0.00000  Uiso   1.00
H1130  H     0.89375   0.87163   0.86755   0.00000  Uiso   1.00
N1131  N     0.71598   0.83332   0.74998   0.00000  Uiso   1.00
N1132  N     0.95069   0.83335   0.74999   0.00000  Uiso   1.00
O1133  O     0.79375   0.89345   0.75000   0.00000  Uiso   1.00
O1134  O     0.87294   0.89346   0.75000   0.00000  Uiso   1.00
O1135  O     0.77441   0.83332   0.82549   0.00000  Uiso   1.00
O1136  O     0.85360   0.83333   0.82549   0.00000  Uiso   1.00
O1137  O     0.79373   0.77321   0.74999   0.00000  Uiso   1.00
O1138  O     0.87292   0.77322   0.74999   0.00000  Uiso   1.00
O1139  O     0.81306   0.83334   0.67451   0.00000  Uiso   1.00
O1140  O     0.89225   0.83335   0.67451   0.00000  Uiso   1.00
S1141  S     0.96708   0.79877   0.58477   0.00000  Uiso   1.00
O1142  O     0.94356   0.76409   0.61990   0.00000  Uiso   1.00
O1143  O     0.67468   0.78145   0.54061   0.00000  Uiso   1.00
O1144  O     0.99002   0.83367   0.61783   0.00000  Uiso   1.00
H1145  H     0.68824   0.82178   0.61905   0.00000  Uiso   1.00
F1146  F     0.96480   0.76751   0.70948   0.00000  Uiso   1.00
F1147  F     0.68505   0.87953   0.51114   0.00000  Uiso   1.00
S1148  S     0.92714   0.95523   0.67062   0.00000  Uiso   1.00
O1149  O     0.96062   0.93850   0.69943   0.00000  Uiso   1.00
O1150  O     0.91064   0.92064   0.64233   0.00000  Uiso   1.00
O1151  O     0.95791   0.98983   0.62692   0.00000  Uiso   1.00
H1152  H     0.98585   0.97421   0.60382   0.00000  Uiso   1.00
loop_
_geom_bond_atom_site_label_1
_geom_bond_atom_site_label_2
_geom_bond_distance
_geom_bond_site_symmetry_2
_ccdc_geom_bond_type
C1     C17     1.450   .     S
C1     O45     1.295   .     A
C1     O46     1.291   .     A
C2     C3      1.419   .     A
C2     C580    1.427   .     S
C2     C604    1.412   .     S
C3     C10     1.429   .     A
C3     C7      1.411   .     A
C4     C8      1.403   .     A
C4     C578    1.427   1_554 S
C4     C581    1.415   1_554 S
C5     C6      1.387   .     A
C5     C580    1.415   .     S
C5     C600    1.392   .     S
C6     C7      1.380   .     A
C6     H37     1.085   .     S
C7     H42     1.073   .     S
C8     H39     1.076   .     S
C8     C25     1.408   .     A
C9     C24     1.393   .     A
C9     C25     1.419   .     A
C9     S53     1.770   .     S
C10    C12     1.490   .     S
C10    C26     1.403   .     A
C11    S60     1.773   .     S
C11    C17     1.417   .     A
C11    C205    1.390   .     S
C12    O48     1.292   .     A
C12    O47     1.313   .     A
C13    C14     1.395   .     A
C13    H31     1.082   .     S
C13    C395    1.390   1_545 S
C14    C22     1.442   .     S
C14    C15     1.395   .     A
C15    H32     1.084   .     S
C15    C400    1.384   1_545 S
C16    H33     1.084   .     S
C16    C17     1.402   .     A
C16    C207    1.384   .     S
C18    N44     1.368   .     A
C18    H34     1.080   .     S
C18    C83     1.417   .     S
C19    N43     1.368   .     A
C19    H35     1.081   .     S
C19    C146    1.417   1_455 S
C20    H36     1.081   .     S
C20    N43     1.363   .     A
C20    C149    1.413   1_455 S
C21    N44     1.372   .     A
C21    F58     1.350   .     S
C21    C84     1.413   .     S
C22    O50     1.292   .     A
C22    O49     1.290   .     A
C23    O52     1.300   .     A
C23    C25     1.479   .     S
C23    O51     1.300   .     A
C24    C581    1.392   1_554 S
C24    H614    1.083   1_554 S
C26    H40     1.083   .     S
C26    C27     1.394   .     A
C27    C604    1.393   .     S
C27    F635    1.354   .     S
C28    H41     1.078   .     S
C28    C603    1.393   1_554 S
C28    C578    1.412   1_554 S
Cu29   O49     1.958   .     S
Cu29   Cu30    2.684   .     S
Cu29   O47     1.956   .     S
Cu29   O51     1.947   .     S
Cu29   N43     2.017   .     S
Cu29   O45     1.959   .     S
Cu30   N44     2.017   .     S
Cu30   O48     1.947   .     S
Cu30   O50     1.959   .     S
Cu30   O52     1.956   .     S
Cu30   O46     1.958   .     S
H38    C600    1.083   .     S
S53    O56     1.682   .     S
S53    O54     1.502   .     D
S53    O119    1.504   .     S
O55    S181    1.504   1_455 S
O56    H121    0.991   .     S
H57    O184    0.991   1_455 S
F59    C603    1.354   1_554 S
S60    O63     1.682   .     S
S60    O62     1.502   .     D
S60    O61     1.502   .     D
O63    H64     0.991   .     S
C65    C81     1.450   .     S
C65    O109    1.295   .     A
C65    O110    1.291   .     A
C66    C67     1.419   .     A
C66    C644    1.427   .     S
C66    C668    1.412   .     S
C67    C74     1.429   .     A
C67    C71     1.411   .     A
C68    C72     1.403   .     A
C68    C642    1.427   1_554 S
C68    C645    1.415   1_554 S
C69    C70     1.387   .     A
C69    C644    1.415   .     S
C69    C664    1.392   .     S
C70    C71     1.380   .     A
C70    H101    1.085   .     S
C71    H106    1.073   .     S
C72    H103    1.076   .     S
C72    C89     1.408   .     A
C73    C88     1.393   .     A
C73    C89     1.419   .     A
C73    S117    1.770   .     S
C74    C76     1.490   .     S
C74    C90     1.403   .     A
C75    S124    1.773   .     S
C75    C81     1.417   .     A
C75    C269    1.390   .     S
C76    O112    1.292   .     A
C76    O111    1.313   .     A
C77    C78     1.395   .     A
C77    H95     1.082   .     S
C77    C459    1.390   1_545 S
C78    C86     1.442   .     S
C78    C79     1.395   .     A
C79    H96     1.084   .     S
C79    C464    1.384   1_545 S
C80    H97     1.084   .     S
C80    C81     1.402   .     A
C80    C271    1.384   .     S
C82    N108    1.368   .     A
C82    H98     1.080   .     S
C82    C147    1.417   .     S
C83    N107    1.368   .     A
C83    H99     1.081   .     S
C84    H100    1.081   .     S
C84    N107    1.363   .     A
C85    N108    1.372   .     A
C85    F122    1.350   .     S
C85    C148    1.413   .     S
C86    O114    1.292   .     A
C86    O113    1.290   .     A
C87    O116    1.300   .     A
C87    C89     1.479   .     S
C87    O115    1.300   .     A
C88    C645    1.392   1_554 S
C88    H678    1.083   1_554 S
C90    H104    1.083   .     S
C90    C91     1.394   .     A
C91    C668    1.393   .     S
C91    F699    1.354   .     S
C92    H105    1.078   .     S
C92    C667    1.393   1_554 S
C92    C642    1.412   1_554 S
Cu93   O113    1.958   .     S
Cu93   Cu94    2.684   .     S
Cu93   O111    1.956   .     S
Cu93   O115    1.947   .     S
Cu93   N107    2.017   .     S
Cu93   O109    1.959   .     S
Cu94   N108    2.017   .     S
Cu94   O112    1.947   .     S
Cu94   O114    1.959   .     S
Cu94   O116    1.956   .     S
Cu94   O110    1.958   .     S
H102   C664    1.083   .     S
S117   O120    1.682   .     S
S117   O118    1.502   .     D
S117   O183    1.504   .     S
O120   H185    0.991   .     S
F123   C667    1.354   1_554 S
S124   O127    1.682   .     S
S124   O126    1.502   .     D
S124   O125    1.502   .     D
O127   H128    0.991   .     S
C129   C145    1.450   .     S
C129   O173    1.295   .     A
C129   O174    1.291   .     A
C130   C131    1.419   .     A
C130   C708    1.427   .     S
C130   C732    1.412   .     S
C131   C138    1.429   .     A
C131   C135    1.411   .     A
C132   C136    1.403   .     A
C132   C706    1.427   1_554 S
C132   C709    1.415   1_554 S
C133   C134    1.387   .     A
C133   C708    1.415   .     S
C133   C728    1.392   .     S
C134   C135    1.380   .     A
C134   H165    1.085   .     S
C135   H170    1.073   .     S
C136   H167    1.076   .     S
C136   C153    1.408   .     A
C137   C152    1.393   .     A
C137   C153    1.419   .     A
C137   S181    1.770   .     S
C138   C140    1.490   .     S
C138   C154    1.403   .     A
C139   S188    1.773   .     S
C139   C145    1.417   .     A
C139   C333    1.390   .     S
C140   O176    1.292   .     A
C140   O175    1.313   .     A
C141   C142    1.395   .     A
C141   H159    1.082   .     S
C141   C523    1.390   1_545 S
C142   C150    1.442   .     S
C142   C143    1.395   .     A
C143   H160    1.084   .     S
C143   C528    1.384   1_545 S
C144   H161    1.084   .     S
C144   C145    1.402   .     A
C144   C335    1.384   .     S
C146   N172    1.368   .     A
C146   H162    1.080   .     S
C146   C19     1.417   1_655 S
C147   N171    1.368   .     A
C147   H163    1.081   .     S
C148   H164    1.081   .     S
C148   N171    1.363   .     A
C149   N172    1.372   .     A
C149   F186    1.350   .     S
C149   C20     1.413   1_655 S
C150   O178    1.292   .     A
C150   O177    1.290   .     A
C151   O180    1.300   .     A
C151   C153    1.479   .     S
C151   O179    1.300   .     A
C152   C709    1.392   1_554 S
C152   H742    1.083   1_554 S
C154   H168    1.083   .     S
C154   C155    1.394   .     A
C155   C732    1.393   .     S
C155   F763    1.354   .     S
C156   H169    1.078   .     S
C156   C731    1.393   1_554 S
C156   C706    1.412   1_554 S
Cu157  O177    1.958   .     S
Cu157  Cu158   2.684   .     S
Cu157  O175    1.956   .     S
Cu157  O179    1.947   .     S
Cu157  N171    2.017   .     S
Cu157  O173    1.959   .     S
Cu158  N172    2.017   .     S
Cu158  O176    1.947   .     S
Cu158  O178    1.959   .     S
Cu158  O180    1.956   .     S
Cu158  O174    1.958   .     S
H166   C728    1.083   .     S
S181   O184    1.682   .     S
S181   O182    1.502   .     D
S181   O55     1.504   1_655 S
O184   H57     0.991   1_655 S
F187   C731    1.354   1_554 S
S188   O191    1.682   .     S
S188   O190    1.502   .     D
S188   O189    1.502   .     D
O191   H192    0.991   .     S
C193   C209    1.450   .     S
C193   O237    1.295   .     A
C193   O238    1.291   .     A
C194   C195    1.419   .     A
C194   C772    1.427   .     S
C194   C796    1.412   .     S
C195   C202    1.429   .     A
C195   C199    1.411   .     A
C196   C200    1.403   .     A
C196   C770    1.427   1_554 S
C196   C773    1.415   1_554 S
C197   C198    1.387   .     A
C197   C772    1.415   .     S
C197   C792    1.392   .     S
C198   C199    1.380   .     A
C198   H229    1.085   .     S
C199   H234    1.073   .     S
C200   H231    1.076   .     S
C200   C217    1.408   .     A
C201   C216    1.393   .     A
C201   C217    1.419   .     A
C201   S245    1.770   .     S
C202   C204    1.490   .     S
C202   C218    1.403   .     A
C203   S252    1.773   .     S
C203   C209    1.417   .     A
C203   C397    1.390   .     S
C204   O240    1.292   .     A
C204   O239    1.313   .     A
C205   C206    1.395   .     A
C205   H223    1.082   .     S
C206   C214    1.442   .     S
C206   C207    1.395   .     A
C207   H224    1.084   .     S
C208   H225    1.084   .     S
C208   C209    1.402   .     A
C208   C399    1.384   .     S
C210   N236    1.368   .     A
C210   H226    1.080   .     S
C210   C275    1.417   .     S
C211   N235    1.368   .     A
C211   H227    1.081   .     S
C211   C338    1.417   1_455 S
C212   H228    1.081   .     S
C212   N235    1.363   .     A
C212   C341    1.413   1_455 S
C213   N236    1.372   .     A
C213   F250    1.350   .     S
C213   C276    1.413   .     S
C214   O242    1.292   .     A
C214   O241    1.290   .     A
C215   O244    1.300   .     A
C215   C217    1.479   .     S
C215   O243    1.300   .     A
C216   C773    1.392   1_554 S
C216   H806    1.083   1_554 S
C218   H232    1.083   .     S
C218   C219    1.394   .     A
C219   C796    1.393   .     S
C219   F827    1.354   .     S
C220   H233    1.078   .     S
C220   C795    1.393   1_554 S
C220   C770    1.412   1_554 S
Cu221  O241    1.958   .     S
Cu221  Cu222   2.684   .     S
Cu221  O239    1.956   .     S
Cu221  O243    1.947   .     S
Cu221  N235    2.017   .     S
Cu221  O237    1.959   .     S
Cu222  N236    2.017   .     S
Cu222  O240    1.947   .     S
Cu222  O242    1.959   .     S
Cu222  O244    1.956   .     S
Cu222  O238    1.958   .     S
H230   C792    1.083   .     S
S245   O248    1.682   .     S
S245   O246    1.502   .     D
S245   O311    1.504   .     S
O247   S373    1.504   1_455 S
O248   H313    0.991   .     S
H249   O376    0.991   1_455 S
F251   C795    1.354   1_554 S
S252   O255    1.682   .     S
S252   O254    1.502   .     D
S252   O253    1.502   .     D
O255   H256    0.991   .     S
C257   C273    1.450   .     S
C257   O301    1.295   .     A
C257   O302    1.291   .     A
C258   C259    1.419   .     A
C258   C836    1.427   .     S
C258   C860    1.412   .     S
C259   C266    1.429   .     A
C259   C263    1.411   .     A
C260   C264    1.403   .     A
C260   C834    1.427   1_554 S
C260   C837    1.415   1_554 S
C261   C262    1.387   .     A
C261   C836    1.415   .     S
C261   C856    1.392   .     S
C262   C263    1.380   .     A
C262   H293    1.085   .     S
C263   H298    1.073   .     S
C264   H295    1.076   .     S
C264   C281    1.408   .     A
C265   C280    1.393   .     A
C265   C281    1.419   .     A
C265   S309    1.770   .     S
C266   C268    1.490   .     S
C266   C282    1.403   .     A
C267   S316    1.773   .     S
C267   C273    1.417   .     A
C267   C461    1.390   .     S
C268   O304    1.292   .     A
C268   O303    1.313   .     A
C269   C270    1.395   .     A
C269   H287    1.082   .     S
C270   C278    1.442   .     S
C270   C271    1.395   .     A
C271   H288    1.084   .     S
C272   H289    1.084   .     S
C272   C273    1.402   .     A
C272   C463    1.384   .     S
C274   N300    1.368   .     A
C274   H290    1.080   .     S
C274   C339    1.417   .     S
C275   N299    1.368   .     A
C275   H291    1.081   .     S
C276   H292    1.081   .     S
C276   N299    1.363   .     A
C277   N300    1.372   .     A
C277   F314    1.350   .     S
C277   C340    1.413   .     S
C278   O306    1.292   .     A
C278   O305    1.290   .     A
C279   O308    1.300   .     A
C279   C281    1.479   .     S
C279   O307    1.300   .     A
C280   C837    1.392   1_554 S
C280   H870    1.083   1_554 S
C282   H296    1.083   .     S
C282   C283    1.394   .     A
C283   C860    1.393   .     S
C283   F891    1.354   .     S
C284   H297    1.078   .     S
C284   C859    1.393   1_554 S
C284   C834    1.412   1_554 S
Cu285  O305    1.958   .     S
Cu285  Cu286   2.684   .     S
Cu285  O303    1.956   .     S
Cu285  O307    1.947   .     S
Cu285  N299    2.017   .     S
Cu285  O301    1.959   .     S
Cu286  N300    2.017   .     S
Cu286  O304    1.947   .     S
Cu286  O306    1.959   .     S
Cu286  O308    1.956   .     S
Cu286  O302    1.958   .     S
H294   C856    1.083   .     S
S309   O312    1.682   .     S
S309   O310    1.502   .     D
S309   O375    1.504   .     S
O312   H377    0.991   .     S
F315   C859    1.354   1_554 S
S316   O319    1.682   .     S
S316   O318    1.502   .     D
S316   O317    1.502   .     D
O319   H320    0.991   .     S
C321   C337    1.450   .     S
C321   O365    1.295   .     A
C321   O366    1.291   .     A
C322   C323    1.419   .     A
C322   C900    1.427   .     S
C322   C924    1.412   .     S
C323   C330    1.429   .     A
C323   C327    1.411   .     A
C324   C328    1.403   .     A
C324   C898    1.427   1_554 S
C324   C901    1.415   1_554 S
C325   C326    1.387   .     A
C325   C900    1.415   .     S
C325   C920    1.392   .     S
C326   C327    1.380   .     A
C326   H357    1.085   .     S
C327   H362    1.073   .     S
C328   H359    1.076   .     S
C328   C345    1.408   .     A
C329   C344    1.393   .     A
C329   C345    1.419   .     A
C329   S373    1.770   .     S
C330   C332    1.490   .     S
C330   C346    1.403   .     A
C331   S380    1.773   .     S
C331   C337    1.417   .     A
C331   C525    1.390   .     S
C332   O368    1.292   .     A
C332   O367    1.313   .     A
C333   C334    1.395   .     A
C333   H351    1.082   .     S
C334   C342    1.442   .     S
C334   C335    1.395   .     A
C335   H352    1.084   .     S
C336   H353    1.084   .     S
C336   C337    1.402   .     A
C336   C527    1.384   .     S
C338   N364    1.368   .     A
C338   H354    1.080   .     S
C338   C211    1.417   1_655 S
C339   N363    1.368   .     A
C339   H355    1.081   .     S
C340   H356    1.081   .     S
C340   N363    1.363   .     A
C341   N364    1.372   .     A
C341   F378    1.350   .     S
C341   C212    1.413   1_655 S
C342   O370    1.292   .     A
C342   O369    1.290   .     A
C343   O372    1.300   .     A
C343   C345    1.479   .     S
C343   O371    1.300   .     A
C344   C901    1.392   1_554 S
C344   H934    1.083   1_554 S
C346   H360    1.083   .     S
C346   C347    1.394   .     A
C347   C924    1.393   .     S
C347   F955    1.354   .     S
C348   H361    1.078   .     S
C348   C923    1.393   1_554 S
C348   C898    1.412   1_554 S
Cu349  O369    1.958   .     S
Cu349  Cu350   2.684   .     S
Cu349  O367    1.956   .     S
Cu349  O371    1.947   .     S
Cu349  N363    2.017   .     S
Cu349  O365    1.959   .     S
Cu350  N364    2.017   .     S
Cu350  O368    1.947   .     S
Cu350  O370    1.959   .     S
Cu350  O372    1.956   .     S
Cu350  O366    1.958   .     S
H358   C920    1.083   .     S
S373   O376    1.682   .     S
S373   O374    1.502   .     D
S373   O247    1.504   1_655 S
O376   H249    0.991   1_655 S
F379   C923    1.354   1_554 S
S380   O383    1.682   .     S
S380   O382    1.502   .     D
S380   O381    1.502   .     D
O383   H384    0.991   .     S
C385   C401    1.450   .     S
C385   O429    1.295   .     A
C385   O430    1.291   .     A
C386   C387    1.419   .     A
C386   C964    1.427   .     S
C386   C988    1.412   .     S
C387   C394    1.429   .     A
C387   C391    1.411   .     A
C388   C392    1.403   .     A
C388   C962    1.427   1_554 S
C388   C965    1.415   1_554 S
C389   C390    1.387   .     A
C389   C964    1.415   .     S
C389   C984    1.392   .     S
C390   C391    1.380   .     A
C390   H421    1.085   .     S
C391   H426    1.073   .     S
C392   H423    1.076   .     S
C392   C409    1.408   .     A
C393   C408    1.393   .     A
C393   C409    1.419   .     A
C393   S437    1.770   .     S
C394   C396    1.490   .     S
C394   C410    1.403   .     A
C395   S444    1.773   .     S
C395   C401    1.417   .     A
C395   C13     1.390   1_565 S
C396   O432    1.292   .     A
C396   O431    1.313   .     A
C397   C398    1.395   .     A
C397   H415    1.082   .     S
C398   C406    1.442   .     S
C398   C399    1.395   .     A
C399   H416    1.084   .     S
C400   H417    1.084   .     S
C400   C401    1.402   .     A
C400   C15     1.384   1_565 S
C402   N428    1.368   .     A
C402   H418    1.080   .     S
C402   C467    1.417   .     S
C403   N427    1.368   .     A
C403   H419    1.081   .     S
C403   C530    1.417   1_455 S
C404   H420    1.081   .     S
C404   N427    1.363   .     A
C404   C533    1.413   1_455 S
C405   N428    1.372   .     A
C405   F442    1.350   .     S
C405   C468    1.413   .     S
C406   O434    1.292   .     A
C406   O433    1.290   .     A
C407   O436    1.300   .     A
C407   C409    1.479   .     S
C407   O435    1.300   .     A
C408   C965    1.392   1_554 S
C408   H998    1.083   1_554 S
C410   H424    1.083   .     S
C410   C411    1.394   .     A
C411   C988    1.393   .     S
C411   F1019   1.354   .     S
C412   H425    1.078   .     S
C412   C987    1.393   1_554 S
C412   C962    1.412   1_554 S
Cu413  O433    1.958   .     S
Cu413  Cu414   2.684   .     S
Cu413  O431    1.956   .     S
Cu413  O435    1.947   .     S
Cu413  N427    2.017   .     S
Cu413  O429    1.959   .     S
Cu414  N428    2.017   .     S
Cu414  O432    1.947   .     S
Cu414  O434    1.959   .     S
Cu414  O436    1.956   .     S
Cu414  O430    1.958   .     S
H422   C984    1.083   .     S
S437   O440    1.682   .     S
S437   O438    1.502   .     D
S437   O503    1.504   .     S
O439   S565    1.504   1_455 S
O440   H505    0.991   .     S
H441   O568    0.991   1_455 S
F443   C987    1.354   1_554 S
S444   O447    1.682   .     S
S444   O446    1.502   .     D
S444   O445    1.502   .     D
O447   H448    0.991   .     S
C449   C465    1.450   .     S
C449   O493    1.295   .     A
C449   O494    1.291   .     A
C450   C451    1.419   .     A
C450   C1028   1.427   .     S
C450   C1052   1.412   .     S
C451   C458    1.429   .     A
C451   C455    1.411   .     A
C452   C456    1.403   .     A
C452   C1026   1.427   1_554 S
C452   C1029   1.415   1_554 S
C453   C454    1.387   .     A
C453   C1028   1.415   .     S
C453   C1048   1.392   .     S
C454   C455    1.380   .     A
C454   H485    1.085   .     S
C455   H490    1.073   .     S
C456   H487    1.076   .     S
C456   C473    1.408   .     A
C457   C472    1.393   .     A
C457   C473    1.419   .     A
C457   S501    1.770   .     S
C458   C460    1.490   .     S
C458   C474    1.403   .     A
C459   S508    1.773   .     S
C459   C465    1.417   .     A
C459   C77     1.390   1_565 S
C460   O496    1.292   .     A
C460   O495    1.313   .     A
C461   C462    1.395   .     A
C461   H479    1.082   .     S
C462   C470    1.442   .     S
C462   C463    1.395   .     A
C463   H480    1.084   .     S
C464   H481    1.084   .     S
C464   C465    1.402   .     A
C464   C79     1.384   1_565 S
C466   N492    1.368   .     A
C466   H482    1.080   .     S
C466   C531    1.417   .     S
C467   N491    1.368   .     A
C467   H483    1.081   .     S
C468   H484    1.081   .     S
C468   N491    1.363   .     A
C469   N492    1.372   .     A
C469   F506    1.350   .     S
C469   C532    1.413   .     S
C470   O498    1.292   .     A
C470   O497    1.290   .     A
C471   O500    1.300   .     A
C471   C473    1.479   .     S
C471   O499    1.300   .     A
C472   C1029   1.392   1_554 S
C472   H1062   1.083   1_554 S
C474   H488    1.083   .     S
C474   C475    1.394   .     A
C475   C1052   1.393   .     S
C475   F1083   1.354   .     S
C476   H489    1.078   .     S
C476   C1051   1.393   1_554 S
C476   C1026   1.412   1_554 S
Cu477  O497    1.958   .     S
Cu477  Cu478   2.684   .     S
Cu477  O495    1.956   .     S
Cu477  O499    1.947   .     S
Cu477  N491    2.017   .     S
Cu477  O493    1.959   .     S
Cu478  N492    2.017   .     S
Cu478  O496    1.947   .     S
Cu478  O498    1.959   .     S
Cu478  O500    1.956   .     S
Cu478  O494    1.958   .     S
H486   C1048   1.083   .     S
S501   O504    1.682   .     S
S501   O502    1.502   .     D
S501   O567    1.504   .     S
O504   H569    0.991   .     S
F507   C1051   1.354   1_554 S
S508   O511    1.682   .     S
S508   O510    1.502   .     D
S508   O509    1.502   .     D
O511   H512    0.991   .     S
C513   C529    1.450   .     S
C513   O557    1.295   .     A
C513   O558    1.291   .     A
C514   C515    1.419   .     A
C514   C1092   1.427   .     S
C514   C1116   1.412   .     S
C515   C522    1.429   .     A
C515   C519    1.411   .     A
C516   C520    1.403   .     A
C516   C1090   1.427   1_554 S
C516   C1093   1.415   1_554 S
C517   C518    1.387   .     A
C517   C1092   1.415   .     S
C517   C1112   1.392   .     S
C518   C519    1.380   .     A
C518   H549    1.085   .     S
C519   H554    1.073   .     S
C520   H551    1.076   .     S
C520   C537    1.408   .     A
C521   C536    1.393   .     A
C521   C537    1.419   .     A
C521   S565    1.770   .     S
C522   C524    1.490   .     S
C522   C538    1.403   .     A
C523   S572    1.773   .     S
C523   C529    1.417   .     A
C523   C141    1.390   1_565 S
C524   O560    1.292   .     A
C524   O559    1.313   .     A
C525   C526    1.395   .     A
C525   H543    1.082   .     S
C526   C534    1.442   .     S
C526   C527    1.395   .     A
C527   H544    1.084   .     S
C528   H545    1.084   .     S
C528   C529    1.402   .     A
C528   C143    1.384   1_565 S
C530   N556    1.368   .     A
C530   H546    1.080   .     S
C530   C403    1.417   1_655 S
C531   N555    1.368   .     A
C531   H547    1.081   .     S
C532   H548    1.081   .     S
C532   N555    1.363   .     A
C533   N556    1.372   .     A
C533   F570    1.350   .     S
C533   C404    1.413   1_655 S
C534   O562    1.292   .     A
C534   O561    1.290   .     A
C535   O564    1.300   .     A
C535   C537    1.479   .     S
C535   O563    1.300   .     A
C536   C1093   1.392   1_554 S
C536   H1126   1.083   1_554 S
C538   H552    1.083   .     S
C538   C539    1.394   .     A
C539   C1116   1.393   .     S
C539   F1147   1.354   .     S
C540   H553    1.078   .     S
C540   C1115   1.393   1_554 S
C540   C1090   1.412   1_554 S
Cu541  O561    1.958   .     S
Cu541  Cu542   2.684   .     S
Cu541  O559    1.956   .     S
Cu541  O563    1.947   .     S
Cu541  N555    2.017   .     S
Cu541  O557    1.959   .     S
Cu542  N556    2.017   .     S
Cu542  O560    1.947   .     S
Cu542  O562    1.959   .     S
Cu542  O564    1.956   .     S
Cu542  O558    1.958   .     S
H550   C1112   1.083   .     S
S565   O568    1.682   .     S
S565   O566    1.502   .     D
S565   O439    1.504   1_655 S
O568   H441    0.991   1_655 S
F571   C1115   1.354   1_554 S
S572   O575    1.682   .     S
S572   O574    1.502   .     D
S572   O573    1.502   .     D
O575   H576    0.991   .     S
C577   C593    1.450   .     S
C577   O621    1.295   .     A
C577   O622    1.291   .     A
C578   C579    1.419   .     A
C578   C4      1.427   1_556 S
C578   C28     1.412   1_556 S
C579   C586    1.429   .     A
C579   C583    1.411   .     A
C580   C584    1.403   .     A
C581   C582    1.387   .     A
C581   C4      1.415   1_556 S
C581   C24     1.392   1_556 S
C582   C583    1.380   .     A
C582   H613    1.085   .     S
C583   H618    1.073   .     S
C584   H615    1.076   .     S
C584   C601    1.408   .     A
C585   C600    1.393   .     A
C585   C601    1.419   .     A
C585   S629    1.770   .     S
C586   C588    1.490   .     S
C586   C602    1.403   .     A
C587   S636    1.773   .     S
C587   C593    1.417   .     A
C587   C781    1.390   .     S
C588   O624    1.292   .     A
C588   O623    1.313   .     A
C589   C590    1.395   .     A
C589   H607    1.082   .     S
C589   C971    1.390   1_545 S
C590   C598    1.442   .     S
C590   C591    1.395   .     A
C591   H608    1.084   .     S
C591   C976    1.384   1_545 S
C592   H609    1.084   .     S
C592   C593    1.402   .     A
C592   C783    1.384   .     S
C594   N620    1.368   .     A
C594   H610    1.080   .     S
C594   C659    1.417   .     S
C595   N619    1.368   .     A
C595   H611    1.081   .     S
C595   C722    1.417   1_455 S
C596   H612    1.081   .     S
C596   N619    1.363   .     A
C596   C725    1.413   1_455 S
C597   N620    1.372   .     A
C597   F634    1.350   .     S
C597   C660    1.413   .     S
C598   O626    1.292   .     A
C598   O625    1.290   .     A
C599   O628    1.300   .     A
C599   C601    1.479   .     S
C599   O627    1.300   .     A
C602   H616    1.083   .     S
C602   C603    1.394   .     A
C603   C28     1.393   1_556 S
C603   F59     1.354   1_556 S
C604   H617    1.078   .     S
Cu605  O625    1.958   .     S
Cu605  Cu606   2.684   .     S
Cu605  O623    1.956   .     S
Cu605  O627    1.947   .     S
Cu605  N619    2.017   .     S
Cu605  O621    1.959   .     S
Cu606  N620    2.017   .     S
Cu606  O624    1.947   .     S
Cu606  O626    1.959   .     S
Cu606  O628    1.956   .     S
Cu606  O622    1.958   .     S
H614   C24     1.083   1_556 S
S629   O632    1.682   .     S
S629   O630    1.502   .     D
S629   O695    1.504   .     S
O631   S757    1.504   1_455 S
O632   H697    0.991   .     S
H633   O760    0.991   1_455 S
S636   O639    1.682   .     S
S636   O638    1.502   .     D
S636   O637    1.502   .     D
O639   H640    0.991   .     S
C641   C657    1.450   .     S
C641   O685    1.295   .     A
C641   O686    1.291   .     A
C642   C643    1.419   .     A
C642   C68     1.427   1_556 S
C642   C92     1.412   1_556 S
C643   C650    1.429   .     A
C643   C647    1.411   .     A
C644   C648    1.403   .     A
C645   C646    1.387   .     A
C645   C68     1.415   1_556 S
C645   C88     1.392   1_556 S
C646   C647    1.380   .     A
C646   H677    1.085   .     S
C647   H682    1.073   .     S
C648   H679    1.076   .     S
C648   C665    1.408   .     A
C649   C664    1.393   .     A
C649   C665    1.419   .     A
C649   S693    1.770   .     S
C650   C652    1.490   .     S
C650   C666    1.403   .     A
C651   S700    1.773   .     S
C651   C657    1.417   .     A
C651   C845    1.390   .     S
C652   O688    1.292   .     A
C652   O687    1.313   .     A
C653   C654    1.395   .     A
C653   H671    1.082   .     S
C653   C1035   1.390   1_545 S
C654   C662    1.442   .     S
C654   C655    1.395   .     A
C655   H672    1.084   .     S
C655   C1040   1.384   1_545 S
C656   H673    1.084   .     S
C656   C657    1.402   .     A
C656   C847    1.384   .     S
C658   N684    1.368   .     A
C658   H674    1.080   .     S
C658   C723    1.417   .     S
C659   N683    1.368   .     A
C659   H675    1.081   .     S
C660   H676    1.081   .     S
C660   N683    1.363   .     A
C661   N684    1.372   .     A
C661   F698    1.350   .     S
C661   C724    1.413   .     S
C662   O690    1.292   .     A
C662   O689    1.290   .     A
C663   O692    1.300   .     A
C663   C665    1.479   .     S
C663   O691    1.300   .     A
C666   H680    1.083   .     S
C666   C667    1.394   .     A
C667   C92     1.393   1_556 S
C667   F123    1.354   1_556 S
C668   H681    1.078   .     S
Cu669  O689    1.958   .     S
Cu669  Cu670   2.684   .     S
Cu669  O687    1.956   .     S
Cu669  O691    1.947   .     S
Cu669  N683    2.017   .     S
Cu669  O685    1.959   .     S
Cu670  N684    2.017   .     S
Cu670  O688    1.947   .     S
Cu670  O690    1.959   .     S
Cu670  O692    1.956   .     S
Cu670  O686    1.958   .     S
H678   C88     1.083   1_556 S
S693   O696    1.682   .     S
S693   O694    1.502   .     D
S693   O759    1.504   .     S
O696   H761    0.991   .     S
S700   O703    1.682   .     S
S700   O702    1.502   .     D
S700   O701    1.502   .     D
O703   H704    0.991   .     S
C705   C721    1.450   .     S
C705   O749    1.295   .     A
C705   O750    1.291   .     A
C706   C707    1.419   .     A
C706   C132    1.427   1_556 S
C706   C156    1.412   1_556 S
C707   C714    1.429   .     A
C707   C711    1.411   .     A
C708   C712    1.403   .     A
C709   C710    1.387   .     A
C709   C132    1.415   1_556 S
C709   C152    1.392   1_556 S
C710   C711    1.380   .     A
C710   H741    1.085   .     S
C711   H746    1.073   .     S
C712   H743    1.076   .     S
C712   C729    1.408   .     A
C713   C728    1.393   .     A
C713   C729    1.419   .     A
C713   S757    1.770   .     S
C714   C716    1.490   .     S
C714   C730    1.403   .     A
C715   S764    1.773   .     S
C715   C721    1.417   .     A
C715   C909    1.390   .     S
C716   O752    1.292   .     A
C716   O751    1.313   .     A
C717   C718    1.395   .     A
C717   H735    1.082   .     S
C717   C1099   1.390   1_545 S
C718   C726    1.442   .     S
C718   C719    1.395   .     A
C719   H736    1.084   .     S
C719   C1104   1.384   1_545 S
C720   H737    1.084   .     S
C720   C721    1.402   .     A
C720   C911    1.384   .     S
C722   N748    1.368   .     A
C722   H738    1.080   .     S
C722   C595    1.417   1_655 S
C723   N747    1.368   .     A
C723   H739    1.081   .     S
C724   H740    1.081   .     S
C724   N747    1.363   .     A
C725   N748    1.372   .     A
C725   F762    1.350   .     S
C725   C596    1.413   1_655 S
C726   O754    1.292   .     A
C726   O753    1.290   .     A
C727   O756    1.300   .     A
C727   C729    1.479   .     S
C727   O755    1.300   .     A
C730   H744    1.083   .     S
C730   C731    1.394   .     A
C731   C156    1.393   1_556 S
C731   F187    1.354   1_556 S
C732   H745    1.078   .     S
Cu733  O753    1.958   .     S
Cu733  Cu734   2.684   .     S
Cu733  O751    1.956   .     S
Cu733  O755    1.947   .     S
Cu733  N747    2.017   .     S
Cu733  O749    1.959   .     S
Cu734  N748    2.017   .     S
Cu734  O752    1.947   .     S
Cu734  O754    1.959   .     S
Cu734  O756    1.956   .     S
Cu734  O750    1.958   .     S
H742   C152    1.083   1_556 S
S757   O760    1.682   .     S
S757   O758    1.502   .     D
S757   O631    1.504   1_655 S
O760   H633    0.991   1_655 S
S764   O767    1.682   .     S
S764   O766    1.502   .     D
S764   O765    1.502   .     D
O767   H768    0.991   .     S
C769   C785    1.450   .     S
C769   O813    1.295   .     A
C769   O814    1.291   .     A
C770   C771    1.419   .     A
C770   C196    1.427   1_556 S
C770   C220    1.412   1_556 S
C771   C778    1.429   .     A
C771   C775    1.411   .     A
C772   C776    1.403   .     A
C773   C774    1.387   .     A
C773   C196    1.415   1_556 S
C773   C216    1.392   1_556 S
C774   C775    1.380   .     A
C774   H805    1.085   .     S
C775   H810    1.073   .     S
C776   H807    1.076   .     S
C776   C793    1.408   .     A
C777   C792    1.393   .     A
C777   C793    1.419   .     A
C777   S821    1.770   .     S
C778   C780    1.490   .     S
C778   C794    1.403   .     A
C779   S828    1.773   .     S
C779   C785    1.417   .     A
C779   C973    1.390   .     S
C780   O816    1.292   .     A
C780   O815    1.313   .     A
C781   C782    1.395   .     A
C781   H799    1.082   .     S
C782   C790    1.442   .     S
C782   C783    1.395   .     A
C783   H800    1.084   .     S
C784   H801    1.084   .     S
C784   C785    1.402   .     A
C784   C975    1.384   .     S
C786   N812    1.368   .     A
C786   H802    1.080   .     S
C786   C851    1.417   .     S
C787   N811    1.368   .     A
C787   H803    1.081   .     S
C787   C914    1.417   1_455 S
C788   H804    1.081   .     S
C788   N811    1.363   .     A
C788   C917    1.413   1_455 S
C789   N812    1.372   .     A
C789   F826    1.350   .     S
C789   C852    1.413   .     S
C790   O818    1.292   .     A
C790   O817    1.290   .     A
C791   O820    1.300   .     A
C791   C793    1.479   .     S
C791   O819    1.300   .     A
C794   H808    1.083   .     S
C794   C795    1.394   .     A
C795   C220    1.393   1_556 S
C795   F251    1.354   1_556 S
C796   H809    1.078   .     S
Cu797  O817    1.958   .     S
Cu797  Cu798   2.684   .     S
Cu797  O815    1.956   .     S
Cu797  O819    1.947   .     S
Cu797  N811    2.017   .     S
Cu797  O813    1.959   .     S
Cu798  N812    2.017   .     S
Cu798  O816    1.947   .     S
Cu798  O818    1.959   .     S
Cu798  O820    1.956   .     S
Cu798  O814    1.958   .     S
H806   C216    1.083   1_556 S
S821   O824    1.682   .     S
S821   O822    1.502   .     D
S821   O887    1.504   .     S
O823   S949    1.504   1_455 S
O824   H889    0.991   .     S
H825   O952    0.991   1_455 S
S828   O831    1.682   .     S
S828   O830    1.502   .     D
S828   O829    1.502   .     D
O831   H832    0.991   .     S
C833   C849    1.450   .     S
C833   O877    1.295   .     A
C833   O878    1.291   .     A
C834   C835    1.419   .     A
C834   C260    1.427   1_556 S
C834   C284    1.412   1_556 S
C835   C842    1.429   .     A
C835   C839    1.411   .     A
C836   C840    1.403   .     A
C837   C838    1.387   .     A
C837   C260    1.415   1_556 S
C837   C280    1.392   1_556 S
C838   C839    1.380   .     A
C838   H869    1.085   .     S
C839   H874    1.073   .     S
C840   H871    1.076   .     S
C840   C857    1.408   .     A
C841   C856    1.393   .     A
C841   C857    1.419   .     A
C841   S885    1.770   .     S
C842   C844    1.490   .     S
C842   C858    1.403   .     A
C843   S892    1.773   .     S
C843   C849    1.417   .     A
C843   C1037   1.390   .     S
C844   O880    1.292   .     A
C844   O879    1.313   .     A
C845   C846    1.395   .     A
C845   H863    1.082   .     S
C846   C854    1.442   .     S
C846   C847    1.395   .     A
C847   H864    1.084   .     S
C848   H865    1.084   .     S
C848   C849    1.402   .     A
C848   C1039   1.384   .     S
C850   N876    1.368   .     A
C850   H866    1.080   .     S
C850   C915    1.417   .     S
C851   N875    1.368   .     A
C851   H867    1.081   .     S
C852   H868    1.081   .     S
C852   N875    1.363   .     A
C853   N876    1.372   .     A
C853   F890    1.350   .     S
C853   C916    1.413   .     S
C854   O882    1.292   .     A
C854   O881    1.290   .     A
C855   O884    1.300   .     A
C855   C857    1.479   .     S
C855   O883    1.300   .     A
C858   H872    1.083   .     S
C858   C859    1.394   .     A
C859   C284    1.393   1_556 S
C859   F315    1.354   1_556 S
C860   H873    1.078   .     S
Cu861  O881    1.958   .     S
Cu861  Cu862   2.684   .     S
Cu861  O879    1.956   .     S
Cu861  O883    1.947   .     S
Cu861  N875    2.017   .     S
Cu861  O877    1.959   .     S
Cu862  N876    2.017   .     S
Cu862  O880    1.947   .     S
Cu862  O882    1.959   .     S
Cu862  O884    1.956   .     S
Cu862  O878    1.958   .     S
H870   C280    1.083   1_556 S
S885   O888    1.682   .     S
S885   O886    1.502   .     D
S885   O951    1.504   .     S
O888   H953    0.991   .     S
S892   O895    1.682   .     S
S892   O894    1.502   .     D
S892   O893    1.502   .     D
O895   H896    0.991   .     S
C897   C913    1.450   .     S
C897   O941    1.295   .     A
C897   O942    1.291   .     A
C898   C899    1.419   .     A
C898   C324    1.427   1_556 S
C898   C348    1.412   1_556 S
C899   C906    1.429   .     A
C899   C903    1.411   .     A
C900   C904    1.403   .     A
C901   C902    1.387   .     A
C901   C324    1.415   1_556 S
C901   C344    1.392   1_556 S
C902   C903    1.380   .     A
C902   H933    1.085   .     S
C903   H938    1.073   .     S
C904   H935    1.076   .     S
C904   C921    1.408   .     A
C905   C920    1.393   .     A
C905   C921    1.419   .     A
C905   S949    1.770   .     S
C906   C908    1.490   .     S
C906   C922    1.403   .     A
C907   S956    1.773   .     S
C907   C913    1.417   .     A
C907   C1101   1.390   .     S
C908   O944    1.292   .     A
C908   O943    1.313   .     A
C909   C910    1.395   .     A
C909   H927    1.082   .     S
C910   C918    1.442   .     S
C910   C911    1.395   .     A
C911   H928    1.084   .     S
C912   H929    1.084   .     S
C912   C913    1.402   .     A
C912   C1103   1.384   .     S
C914   N940    1.368   .     A
C914   H930    1.080   .     S
C914   C787    1.417   1_655 S
C915   N939    1.368   .     A
C915   H931    1.081   .     S
C916   H932    1.081   .     S
C916   N939    1.363   .     A
C917   N940    1.372   .     A
C917   F954    1.350   .     S
C917   C788    1.413   1_655 S
C918   O946    1.292   .     A
C918   O945    1.290   .     A
C919   O948    1.300   .     A
C919   C921    1.479   .     S
C919   O947    1.300   .     A
C922   H936    1.083   .     S
C922   C923    1.394   .     A
C923   C348    1.393   1_556 S
C923   F379    1.354   1_556 S
C924   H937    1.078   .     S
Cu925  O945    1.958   .     S
Cu925  Cu926   2.684   .     S
Cu925  O943    1.956   .     S
Cu925  O947    1.947   .     S
Cu925  N939    2.017   .     S
Cu925  O941    1.959   .     S
Cu926  N940    2.017   .     S
Cu926  O944    1.947   .     S
Cu926  O946    1.959   .     S
Cu926  O948    1.956   .     S
Cu926  O942    1.958   .     S
H934   C344    1.083   1_556 S
S949   O952    1.682   .     S
S949   O950    1.502   .     D
S949   O823    1.504   1_655 S
O952   H825    0.991   1_655 S
S956   O959    1.682   .     S
S956   O958    1.502   .     D
S956   O957    1.502   .     D
O959   H960    0.991   .     S
C961   C977    1.450   .     S
C961   O1005   1.295   .     A
C961   O1006   1.291   .     A
C962   C963    1.419   .     A
C962   C388    1.427   1_556 S
C962   C412    1.412   1_556 S
C963   C970    1.429   .     A
C963   C967    1.411   .     A
C964   C968    1.403   .     A
C965   C966    1.387   .     A
C965   C388    1.415   1_556 S
C965   C408    1.392   1_556 S
C966   C967    1.380   .     A
C966   H997    1.085   .     S
C967   H1002   1.073   .     S
C968   H999    1.076   .     S
C968   C985    1.408   .     A
C969   C984    1.393   .     A
C969   C985    1.419   .     A
C969   S1013   1.770   .     S
C970   C972    1.490   .     S
C970   C986    1.403   .     A
C971   S1020   1.773   .     S
C971   C977    1.417   .     A
C971   C589    1.390   1_565 S
C972   O1008   1.292   .     A
C972   O1007   1.313   .     A
C973   C974    1.395   .     A
C973   H991    1.082   .     S
C974   C982    1.442   .     S
C974   C975    1.395   .     A
C975   H992    1.084   .     S
C976   H993    1.084   .     S
C976   C977    1.402   .     A
C976   C591    1.384   1_565 S
C978   N1004   1.368   .     A
C978   H994    1.080   .     S
C978   C1043   1.417   .     S
C979   N1003   1.368   .     A
C979   H995    1.081   .     S
C979   C1106   1.417   1_455 S
C980   H996    1.081   .     S
C980   N1003   1.363   .     A
C980   C1109   1.413   1_455 S
C981   N1004   1.372   .     A
C981   F1018   1.350   .     S
C981   C1044   1.413   .     S
C982   O1010   1.292   .     A
C982   O1009   1.290   .     A
C983   O1012   1.300   .     A
C983   C985    1.479   .     S
C983   O1011   1.300   .     A
C986   H1000   1.083   .     S
C986   C987    1.394   .     A
C987   C412    1.393   1_556 S
C987   F443    1.354   1_556 S
C988   H1001   1.078   .     S
Cu989  O1009   1.958   .     S
Cu989  Cu990   2.684   .     S
Cu989  O1007   1.956   .     S
Cu989  O1011   1.947   .     S
Cu989  N1003   2.017   .     S
Cu989  O1005   1.959   .     S
Cu990  N1004   2.017   .     S
Cu990  O1008   1.947   .     S
Cu990  O1010   1.959   .     S
Cu990  O1012   1.956   .     S
Cu990  O1006   1.958   .     S
H998   C408    1.083   1_556 S
S1013  O1016   1.682   .     S
S1013  O1014   1.502   .     D
S1013  O1079   1.504   .     S
O1015  S1141   1.504   1_455 S
O1016  H1081   0.991   .     S
H1017  O1144   0.991   1_455 S
S1020  O1023   1.682   .     S
S1020  O1022   1.502   .     D
S1020  O1021   1.502   .     D
O1023  H1024   0.991   .     S
C1025  C1041   1.450   .     S
C1025  O1069   1.295   .     A
C1025  O1070   1.291   .     A
C1026  C1027   1.419   .     A
C1026  C452    1.427   1_556 S
C1026  C476    1.412   1_556 S
C1027  C1034   1.429   .     A
C1027  C1031   1.411   .     A
C1028  C1032   1.403   .     A
C1029  C1030   1.387   .     A
C1029  C452    1.415   1_556 S
C1029  C472    1.392   1_556 S
C1030  C1031   1.380   .     A
C1030  H1061   1.085   .     S
C1031  H1066   1.073   .     S
C1032  H1063   1.076   .     S
C1032  C1049   1.408   .     A
C1033  C1048   1.393   .     A
C1033  C1049   1.419   .     A
C1033  S1077   1.770   .     S
C1034  C1036   1.490   .     S
C1034  C1050   1.403   .     A
C1035  S1084   1.773   .     S
C1035  C1041   1.417   .     A
C1035  C653    1.390   1_565 S
C1036  O1072   1.292   .     A
C1036  O1071   1.313   .     A
C1037  C1038   1.395   .     A
C1037  H1055   1.082   .     S
C1038  C1046   1.442   .     S
C1038  C1039   1.395   .     A
C1039  H1056   1.084   .     S
C1040  H1057   1.084   .     S
C1040  C1041   1.402   .     A
C1040  C655    1.384   1_565 S
C1042  N1068   1.368   .     A
C1042  H1058   1.080   .     S
C1042  C1107   1.417   .     S
C1043  N1067   1.368   .     A
C1043  H1059   1.081   .     S
C1044  H1060   1.081   .     S
C1044  N1067   1.363   .     A
C1045  N1068   1.372   .     A
C1045  F1082   1.350   .     S
C1045  C1108   1.413   .     S
C1046  O1074   1.292   .     A
C1046  O1073   1.290   .     A
C1047  O1076   1.300   .     A
C1047  C1049   1.479   .     S
C1047  O1075   1.300   .     A
C1050  H1064   1.083   .     S
C1050  C1051   1.394   .     A
C1051  C476    1.393   1_556 S
C1051  F507    1.354   1_556 S
C1052  H1065   1.078   .     S
Cu1053 O1073   1.958   .     S
Cu1053 Cu1054  2.684   .     S
Cu1053 O1071   1.956   .     S
Cu1053 O1075   1.947   .     S
Cu1053 N1067   2.017   .     S
Cu1053 O1069   1.959   .     S
Cu1054 N1068   2.017   .     S
Cu1054 O1072   1.947   .     S
Cu1054 O1074   1.959   .     S
Cu1054 O1076   1.956   .     S
Cu1054 O1070   1.958   .     S
H1062  C472    1.083   1_556 S
S1077  O1080   1.682   .     S
S1077  O1078   1.502   .     D
S1077  O1143   1.504   .     S
O1080  H1145   0.991   .     S
S1084  O1087   1.682   .     S
S1084  O1086   1.502   .     D
S1084  O1085   1.502   .     D
O1087  H1088   0.991   .     S
C1089  C1105   1.450   .     S
C1089  O1133   1.295   .     A
C1089  O1134   1.291   .     A
C1090  C1091   1.419   .     A
C1090  C516    1.427   1_556 S
C1090  C540    1.412   1_556 S
C1091  C1098   1.429   .     A
C1091  C1095   1.411   .     A
C1092  C1096   1.403   .     A
C1093  C1094   1.387   .     A
C1093  C516    1.415   1_556 S
C1093  C536    1.392   1_556 S
C1094  C1095   1.380   .     A
C1094  H1125   1.085   .     S
C1095  H1130   1.073   .     S
C1096  H1127   1.076   .     S
C1096  C1113   1.408   .     A
C1097  C1112   1.393   .     A
C1097  C1113   1.419   .     A
C1097  S1141   1.770   .     S
C1098  C1100   1.490   .     S
C1098  C1114   1.403   .     A
C1099  S1148   1.773   .     S
C1099  C1105   1.417   .     A
C1099  C717    1.390   1_565 S
C1100  O1136   1.292   .     A
C1100  O1135   1.313   .     A
C1101  C1102   1.395   .     A
C1101  H1119   1.082   .     S
C1102  C1110   1.442   .     S
C1102  C1103   1.395   .     A
C1103  H1120   1.084   .     S
C1104  H1121   1.084   .     S
C1104  C1105   1.402   .     A
C1104  C719    1.384   1_565 S
C1106  N1132   1.368   .     A
C1106  H1122   1.080   .     S
C1106  C979    1.417   1_655 S
C1107  N1131   1.368   .     A
C1107  H1123   1.081   .     S
C1108  H1124   1.081   .     S
C1108  N1131   1.363   .     A
C1109  N1132   1.372   .     A
C1109  F1146   1.350   .     S
C1109  C980    1.413   1_655 S
C1110  O1138   1.292   .     A
C1110  O1137   1.290   .     A
C1111  O1140   1.300   .     A
C1111  C1113   1.479   .     S
C1111  O1139   1.300   .     A
C1114  H1128   1.083   .     S
C1114  C1115   1.394   .     A
C1115  C540    1.393   1_556 S
C1115  F571    1.354   1_556 S
C1116  H1129   1.078   .     S
Cu1117 O1137   1.958   .     S
Cu1117 Cu1118  2.684   .     S
Cu1117 O1135   1.956   .     S
Cu1117 O1139   1.947   .     S
Cu1117 N1131   2.017   .     S
Cu1117 O1133   1.959   .     S
Cu1118 N1132   2.017   .     S
Cu1118 O1136   1.947   .     S
Cu1118 O1138   1.959   .     S
Cu1118 O1140   1.956   .     S
Cu1118 O1134   1.958   .     S
H1126  C536    1.083   1_556 S
S1141  O1144   1.682   .     S
S1141  O1142   1.502   .     D
S1141  O1015   1.504   1_655 S
O1144  H1017   0.991   1_655 S
S1148  O1151   1.682   .     S
S1148  O1150   1.502   .     D
S1148  O1149   1.502   .     D
O1151  H1152   0.991   .     S
