data_str_m2_o1_o16_pcu_sym.33
_audit_creation_date              2020-01-03
_audit_creation_method            'Materials Studio'
_symmetry_space_group_name_H-M    'P1'
_symmetry_Int_Tables_number       1
_symmetry_cell_setting            triclinic
loop_
_symmetry_equiv_pos_as_xyz
  x,y,z
_cell_length_a                    28.6359
_cell_length_b                    32.5060
_cell_length_c                    27.0227
_cell_angle_alpha                 91.4232
_cell_angle_beta                  72.6308
_cell_angle_gamma                 89.9150
loop_
_atom_site_label
_atom_site_type_symbol
_atom_site_fract_x
_atom_site_fract_y
_atom_site_fract_z
_atom_site_U_iso_or_equiv
_atom_site_adp_type
_atom_site_occupancy
C1     C     0.16728   0.24590   0.24717   0.00000  Uiso   1.00
C2     C     0.12448   0.16329   0.40684   0.00000  Uiso   1.00
C3     C     0.20286   0.31217   0.26088   0.00000  Uiso   1.00
C4     C     0.14053   0.16409   0.34977   0.00000  Uiso   1.00
C5     C     0.20282   0.02134   0.26260   0.00000  Uiso   1.00
C6     C     0.16757   0.04301   0.24736   0.00000  Uiso   1.00
C7     C     0.13374   0.02216   0.22830   0.00000  Uiso   1.00
C8     C     0.13418   0.31278   0.22482   0.00000  Uiso   1.00
C9     C     0.16788   0.29067   0.24372   0.00000  Uiso   1.00
C10    C     0.30013   0.19132   0.28508   0.00000  Uiso   1.00
C11    C     0.01593   0.18980   0.28506   0.00000  Uiso   1.00
C12    C     0.14546   0.16797   0.48855   0.00000  Uiso   1.00
C13    C     0.03475   0.14313   0.21473   0.00000  Uiso   1.00
C14    C     0.31791   0.14199   0.21537   0.00000  Uiso   1.00
C15    C     0.16685   0.08747   0.24956   0.00000  Uiso   1.00
C16    C     0.19275   0.16610   0.15010   0.00000  Uiso   1.00
C17    C     0.26586   0.14442   0.01137   0.00000  Uiso   1.00
C18    C     0.20725   0.16312   0.09339   0.00000  Uiso   1.00
C19    C     0.07664   0.17603   0.43296   0.00000  Uiso   1.00
C20    C     0.06387   0.18739   0.48485   0.00000  Uiso   1.00
C21    C     0.09912   0.18815   0.01141   0.00000  Uiso   1.00
C22    C     0.32115   0.07882   0.17120   0.00000  Uiso   1.00
C23    C     0.15743   0.15487   0.43550   0.00000  Uiso   1.00
C24    C     0.02177   0.07243   0.11615   0.00000  Uiso   1.00
C25    C     0.07588   0.25038   0.05629   0.00000  Uiso   1.00
C26    C     0.02468   0.25957   0.09249   0.00000  Uiso   1.00
C27    C     0.18132   0.16159   0.01499   0.00000  Uiso   1.00
C28    C     0.22889   0.14682   0.48714   0.00000  Uiso   1.00
C29    C     0.23818   0.13199   0.43648   0.00000  Uiso   1.00
C30    C     0.20209   0.13387   0.41213   0.00000  Uiso   1.00
C31    C     0.17080   0.16647   0.06878   0.00000  Uiso   1.00
C32    C     0.25537   0.15365   0.06414   0.00000  Uiso   1.00
Cu33   Cu    0.11978   0.16666   0.25000   0.00000  Uiso   1.00
Cu34   Cu    0.21355   0.16667   0.25000   0.00000  Uiso   1.00
H35    H     0.28403   0.15077   0.08248   0.00000  Uiso   1.00
H36    H     0.02735   0.19932   0.00333   0.00000  Uiso   1.00
H37    H     0.20991   0.11848   0.37462   0.00000  Uiso   1.00
H38    H     0.23003   0.29623   0.27376   0.00000  Uiso   1.00
H39    H     0.09724   0.22992   0.15560   0.00000  Uiso   1.00
H40    H     0.25730   0.23769   0.41453   0.00000  Uiso   1.00
H41    H     0.28946   0.05802   0.17601   0.00000  Uiso   1.00
H42    H     0.00640   0.06895   0.19987   0.00000  Uiso   1.00
H43    H     0.05424   0.09252   0.10952   0.00000  Uiso   1.00
H44    H     0.03422   0.03985   0.10975   0.00000  Uiso   1.00
H45    H     0.00207   0.07989   0.08773   0.00000  Uiso   1.00
H46    H     0.22976   0.03720   0.27672   0.00000  Uiso   1.00
H47    H     0.07825   0.26077   0.01656   0.00000  Uiso   1.00
H48    H     0.10243   0.26937   0.06921   0.00000  Uiso   1.00
H49    H     0.02216   0.25085   0.13266   0.00000  Uiso   1.00
H50    H     0.01640   0.29295   0.09241   0.00000  Uiso   1.00
H51    H     0.33034   0.24202   0.07958   0.00000  Uiso   1.00
H52    H     0.10763   0.03939   0.21491   0.00000  Uiso   1.00
H53    H     0.02823   0.20837   0.31252   0.00000  Uiso   1.00
H54    H     0.06212   0.12529   0.18600   0.00000  Uiso   1.00
H55    H     0.27311   0.11778   0.41599   0.00000  Uiso   1.00
H56    H     0.30250   0.13422   0.48980   0.00000  Uiso   1.00
H57    H     0.13363   0.16948   0.09289   0.00000  Uiso   1.00
H58    H     0.04979   0.18033   0.41249   0.00000  Uiso   1.00
N59    N     0.04931   0.16666   0.24998   0.00000  Uiso   1.00
N60    N     0.28402   0.16669   0.24999   0.00000  Uiso   1.00
O61    O     0.12708   0.22678   0.25000   0.00000  Uiso   1.00
O62    O     0.07801   0.32024   0.16130   0.00000  Uiso   1.00
O63    O     0.12314   0.25027   0.15472   0.00000  Uiso   1.00
O64    O     0.29255   0.26901   0.32008   0.00000  Uiso   1.00
O65    O     0.21357   0.23623   0.33879   0.00000  Uiso   1.00
O66    O     0.27148   0.21449   0.39018   0.00000  Uiso   1.00
O67    O     0.30311   0.11982   0.17821   0.00000  Uiso   1.00
O68    O     0.08773   0.20829   0.05940   0.00000  Uiso   1.00
O69    O     0.20627   0.22679   0.25000   0.00000  Uiso   1.00
O70    O     0.10775   0.16665   0.32549   0.00000  Uiso   1.00
O71    O     0.18694   0.16666   0.32549   0.00000  Uiso   1.00
O72    O     0.12706   0.10654   0.24999   0.00000  Uiso   1.00
O73    O     0.20625   0.10655   0.24999   0.00000  Uiso   1.00
O74    O     0.14640   0.16667   0.17451   0.00000  Uiso   1.00
O75    O     0.22559   0.16668   0.17451   0.00000  Uiso   1.00
O76    O     0.05005   0.27397   0.23395   0.00000  Uiso   1.00
S77    S     0.09428   0.28950   0.19353   0.00000  Uiso   1.00
S78    S     0.26657   0.22869   0.33253   0.00000  Uiso   1.00
C79    C     0.50061   0.24590   0.24717   0.00000  Uiso   1.00
C80    C     0.45782   0.16329   0.40684   0.00000  Uiso   1.00
C81    C     0.53619   0.31217   0.26088   0.00000  Uiso   1.00
C82    C     0.47386   0.16409   0.34977   0.00000  Uiso   1.00
C83    C     0.53615   0.02134   0.26260   0.00000  Uiso   1.00
C84    C     0.50091   0.04301   0.24736   0.00000  Uiso   1.00
C85    C     0.46707   0.02216   0.22830   0.00000  Uiso   1.00
C86    C     0.46751   0.31278   0.22482   0.00000  Uiso   1.00
C87    C     0.50122   0.29067   0.24372   0.00000  Uiso   1.00
C88    C     0.63347   0.19132   0.28508   0.00000  Uiso   1.00
C89    C     0.34926   0.18980   0.28506   0.00000  Uiso   1.00
C90    C     0.47879   0.16797   0.48855   0.00000  Uiso   1.00
C91    C     0.36808   0.14313   0.21473   0.00000  Uiso   1.00
C92    C     0.65124   0.14199   0.21537   0.00000  Uiso   1.00
C93    C     0.50018   0.08747   0.24956   0.00000  Uiso   1.00
C94    C     0.52608   0.16610   0.15010   0.00000  Uiso   1.00
C95    C     0.59919   0.14442   0.01137   0.00000  Uiso   1.00
C96    C     0.54058   0.16312   0.09339   0.00000  Uiso   1.00
C97    C     0.40997   0.17603   0.43296   0.00000  Uiso   1.00
C98    C     0.39720   0.18739   0.48485   0.00000  Uiso   1.00
C99    C     0.43246   0.18815   0.01141   0.00000  Uiso   1.00
C100   C     0.65448   0.07882   0.17120   0.00000  Uiso   1.00
C101   C     0.49076   0.15487   0.43550   0.00000  Uiso   1.00
C102   C     0.35510   0.07243   0.11615   0.00000  Uiso   1.00
C103   C     0.40921   0.25038   0.05629   0.00000  Uiso   1.00
C104   C     0.35801   0.25957   0.09249   0.00000  Uiso   1.00
C105   C     0.51465   0.16159   0.01499   0.00000  Uiso   1.00
C106   C     0.56222   0.14682   0.48714   0.00000  Uiso   1.00
C107   C     0.57151   0.13199   0.43648   0.00000  Uiso   1.00
C108   C     0.53543   0.13387   0.41213   0.00000  Uiso   1.00
C109   C     0.50413   0.16647   0.06878   0.00000  Uiso   1.00
C110   C     0.58870   0.15365   0.06414   0.00000  Uiso   1.00
Cu111  Cu    0.45311   0.16666   0.25000   0.00000  Uiso   1.00
Cu112  Cu    0.54689   0.16667   0.25000   0.00000  Uiso   1.00
H113   H     0.61737   0.15077   0.08248   0.00000  Uiso   1.00
H114   H     0.36069   0.19932   0.00333   0.00000  Uiso   1.00
H115   H     0.54324   0.11848   0.37462   0.00000  Uiso   1.00
H116   H     0.56337   0.29623   0.27376   0.00000  Uiso   1.00
H117   H     0.43057   0.22992   0.15560   0.00000  Uiso   1.00
H118   H     0.59063   0.23769   0.41453   0.00000  Uiso   1.00
H119   H     0.62280   0.05802   0.17601   0.00000  Uiso   1.00
H120   H     0.33973   0.06895   0.19987   0.00000  Uiso   1.00
H121   H     0.38757   0.09252   0.10952   0.00000  Uiso   1.00
H122   H     0.36755   0.03985   0.10975   0.00000  Uiso   1.00
H123   H     0.33540   0.07989   0.08773   0.00000  Uiso   1.00
H124   H     0.56310   0.03720   0.27672   0.00000  Uiso   1.00
H125   H     0.41158   0.26077   0.01656   0.00000  Uiso   1.00
H126   H     0.43577   0.26937   0.06921   0.00000  Uiso   1.00
H127   H     0.35549   0.25085   0.13266   0.00000  Uiso   1.00
H128   H     0.34974   0.29295   0.09241   0.00000  Uiso   1.00
H129   H     0.66368   0.24202   0.07958   0.00000  Uiso   1.00
H130   H     0.44096   0.03939   0.21491   0.00000  Uiso   1.00
H131   H     0.36156   0.20837   0.31252   0.00000  Uiso   1.00
H132   H     0.39545   0.12529   0.18600   0.00000  Uiso   1.00
H133   H     0.60645   0.11778   0.41599   0.00000  Uiso   1.00
H134   H     0.63583   0.13422   0.48980   0.00000  Uiso   1.00
H135   H     0.46696   0.16948   0.09289   0.00000  Uiso   1.00
H136   H     0.38312   0.18033   0.41249   0.00000  Uiso   1.00
N137   N     0.38265   0.16666   0.24998   0.00000  Uiso   1.00
N138   N     0.61735   0.16669   0.24999   0.00000  Uiso   1.00
O139   O     0.46042   0.22678   0.25000   0.00000  Uiso   1.00
O140   O     0.41134   0.32024   0.16130   0.00000  Uiso   1.00
O141   O     0.45647   0.25027   0.15472   0.00000  Uiso   1.00
O142   O     0.62589   0.26901   0.32008   0.00000  Uiso   1.00
O143   O     0.54690   0.23623   0.33879   0.00000  Uiso   1.00
O144   O     0.60481   0.21449   0.39018   0.00000  Uiso   1.00
O145   O     0.63644   0.11982   0.17821   0.00000  Uiso   1.00
O146   O     0.42106   0.20829   0.05940   0.00000  Uiso   1.00
O147   O     0.53961   0.22679   0.25000   0.00000  Uiso   1.00
O148   O     0.44108   0.16665   0.32549   0.00000  Uiso   1.00
O149   O     0.52027   0.16666   0.32549   0.00000  Uiso   1.00
O150   O     0.46039   0.10654   0.24999   0.00000  Uiso   1.00
O151   O     0.53958   0.10655   0.24999   0.00000  Uiso   1.00
O152   O     0.47973   0.16667   0.17451   0.00000  Uiso   1.00
O153   O     0.55892   0.16668   0.17451   0.00000  Uiso   1.00
O154   O     0.38338   0.27397   0.23395   0.00000  Uiso   1.00
S155   S     0.42762   0.28950   0.19353   0.00000  Uiso   1.00
S156   S     0.59990   0.22869   0.33253   0.00000  Uiso   1.00
C157   C     0.83395   0.24590   0.24717   0.00000  Uiso   1.00
C158   C     0.79115   0.16329   0.40684   0.00000  Uiso   1.00
C159   C     0.86953   0.31217   0.26088   0.00000  Uiso   1.00
C160   C     0.80719   0.16409   0.34977   0.00000  Uiso   1.00
C161   C     0.86948   0.02134   0.26260   0.00000  Uiso   1.00
C162   C     0.83424   0.04301   0.24736   0.00000  Uiso   1.00
C163   C     0.80041   0.02216   0.22830   0.00000  Uiso   1.00
C164   C     0.80085   0.31278   0.22482   0.00000  Uiso   1.00
C165   C     0.83455   0.29067   0.24372   0.00000  Uiso   1.00
C166   C     0.96680   0.19132   0.28508   0.00000  Uiso   1.00
C167   C     0.68260   0.18980   0.28506   0.00000  Uiso   1.00
C168   C     0.81213   0.16797   0.48855   0.00000  Uiso   1.00
C169   C     0.70141   0.14313   0.21473   0.00000  Uiso   1.00
C170   C     0.98457   0.14199   0.21537   0.00000  Uiso   1.00
C171   C     0.83352   0.08747   0.24956   0.00000  Uiso   1.00
C172   C     0.85942   0.16610   0.15010   0.00000  Uiso   1.00
C173   C     0.93253   0.14442   0.01137   0.00000  Uiso   1.00
C174   C     0.87392   0.16312   0.09339   0.00000  Uiso   1.00
C175   C     0.74330   0.17603   0.43296   0.00000  Uiso   1.00
C176   C     0.73054   0.18739   0.48485   0.00000  Uiso   1.00
C177   C     0.76579   0.18815   0.01141   0.00000  Uiso   1.00
C178   C     0.98782   0.07882   0.17120   0.00000  Uiso   1.00
C179   C     0.82409   0.15487   0.43550   0.00000  Uiso   1.00
C180   C     0.68844   0.07243   0.11615   0.00000  Uiso   1.00
C181   C     0.74255   0.25038   0.05629   0.00000  Uiso   1.00
C182   C     0.69135   0.25957   0.09249   0.00000  Uiso   1.00
C183   C     0.84799   0.16159   0.01499   0.00000  Uiso   1.00
C184   C     0.89555   0.14682   0.48714   0.00000  Uiso   1.00
C185   C     0.90485   0.13199   0.43648   0.00000  Uiso   1.00
C186   C     0.86876   0.13387   0.41213   0.00000  Uiso   1.00
C187   C     0.83746   0.16647   0.06878   0.00000  Uiso   1.00
C188   C     0.92203   0.15365   0.06414   0.00000  Uiso   1.00
Cu189  Cu    0.78645   0.16666   0.25000   0.00000  Uiso   1.00
Cu190  Cu    0.88022   0.16667   0.25000   0.00000  Uiso   1.00
H191   H     0.95070   0.15077   0.08248   0.00000  Uiso   1.00
H192   H     0.69402   0.19932   0.00333   0.00000  Uiso   1.00
H193   H     0.87658   0.11848   0.37462   0.00000  Uiso   1.00
H194   H     0.89670   0.29623   0.27376   0.00000  Uiso   1.00
H195   H     0.76391   0.22992   0.15560   0.00000  Uiso   1.00
H196   H     0.92397   0.23769   0.41453   0.00000  Uiso   1.00
H197   H     0.95613   0.05802   0.17601   0.00000  Uiso   1.00
H198   H     0.67306   0.06895   0.19987   0.00000  Uiso   1.00
H199   H     0.72090   0.09252   0.10952   0.00000  Uiso   1.00
H200   H     0.70089   0.03985   0.10975   0.00000  Uiso   1.00
H201   H     0.66874   0.07989   0.08773   0.00000  Uiso   1.00
H202   H     0.89643   0.03720   0.27672   0.00000  Uiso   1.00
H203   H     0.74492   0.26077   0.01656   0.00000  Uiso   1.00
H204   H     0.76910   0.26937   0.06921   0.00000  Uiso   1.00
H205   H     0.68882   0.25085   0.13266   0.00000  Uiso   1.00
H206   H     0.68307   0.29295   0.09241   0.00000  Uiso   1.00
H207   H     0.99701   0.24202   0.07958   0.00000  Uiso   1.00
H208   H     0.77429   0.03939   0.21491   0.00000  Uiso   1.00
H209   H     0.69490   0.20837   0.31252   0.00000  Uiso   1.00
H210   H     0.72879   0.12529   0.18600   0.00000  Uiso   1.00
H211   H     0.93978   0.11778   0.41599   0.00000  Uiso   1.00
H212   H     0.96917   0.13422   0.48980   0.00000  Uiso   1.00
H213   H     0.80030   0.16948   0.09289   0.00000  Uiso   1.00
H214   H     0.71646   0.18033   0.41249   0.00000  Uiso   1.00
N215   N     0.71598   0.16666   0.24998   0.00000  Uiso   1.00
N216   N     0.95069   0.16669   0.24999   0.00000  Uiso   1.00
O217   O     0.79375   0.22678   0.25000   0.00000  Uiso   1.00
O218   O     0.74468   0.32024   0.16130   0.00000  Uiso   1.00
O219   O     0.78981   0.25027   0.15472   0.00000  Uiso   1.00
O220   O     0.95922   0.26901   0.32008   0.00000  Uiso   1.00
O221   O     0.88023   0.23623   0.33879   0.00000  Uiso   1.00
O222   O     0.93815   0.21449   0.39018   0.00000  Uiso   1.00
O223   O     0.96977   0.11982   0.17821   0.00000  Uiso   1.00
O224   O     0.75439   0.20829   0.05940   0.00000  Uiso   1.00
O225   O     0.87294   0.22679   0.25000   0.00000  Uiso   1.00
O226   O     0.77441   0.16665   0.32549   0.00000  Uiso   1.00
O227   O     0.85360   0.16666   0.32549   0.00000  Uiso   1.00
O228   O     0.79373   0.10654   0.24999   0.00000  Uiso   1.00
O229   O     0.87292   0.10655   0.24999   0.00000  Uiso   1.00
O230   O     0.81306   0.16667   0.17451   0.00000  Uiso   1.00
O231   O     0.89225   0.16668   0.17451   0.00000  Uiso   1.00
O232   O     0.71671   0.27397   0.23395   0.00000  Uiso   1.00
S233   S     0.76095   0.28950   0.19353   0.00000  Uiso   1.00
S234   S     0.93323   0.22869   0.33253   0.00000  Uiso   1.00
C235   C     0.16728   0.57924   0.24717   0.00000  Uiso   1.00
C236   C     0.12448   0.49662   0.40684   0.00000  Uiso   1.00
C237   C     0.20286   0.64551   0.26088   0.00000  Uiso   1.00
C238   C     0.14053   0.49742   0.34977   0.00000  Uiso   1.00
C239   C     0.20282   0.35468   0.26260   0.00000  Uiso   1.00
C240   C     0.16757   0.37634   0.24736   0.00000  Uiso   1.00
C241   C     0.13374   0.35549   0.22830   0.00000  Uiso   1.00
C242   C     0.13418   0.64611   0.22482   0.00000  Uiso   1.00
C243   C     0.16788   0.62401   0.24372   0.00000  Uiso   1.00
C244   C     0.30013   0.52465   0.28508   0.00000  Uiso   1.00
C245   C     0.01593   0.52314   0.28506   0.00000  Uiso   1.00
C246   C     0.14546   0.50130   0.48855   0.00000  Uiso   1.00
C247   C     0.03475   0.47647   0.21473   0.00000  Uiso   1.00
C248   C     0.31791   0.47533   0.21537   0.00000  Uiso   1.00
C249   C     0.16685   0.42081   0.24956   0.00000  Uiso   1.00
C250   C     0.19275   0.49943   0.15010   0.00000  Uiso   1.00
C251   C     0.26586   0.47776   0.01137   0.00000  Uiso   1.00
C252   C     0.20725   0.49646   0.09339   0.00000  Uiso   1.00
C253   C     0.07664   0.50936   0.43296   0.00000  Uiso   1.00
C254   C     0.06387   0.52072   0.48485   0.00000  Uiso   1.00
C255   C     0.09912   0.52148   0.01141   0.00000  Uiso   1.00
C256   C     0.32115   0.41216   0.17120   0.00000  Uiso   1.00
C257   C     0.15743   0.48821   0.43550   0.00000  Uiso   1.00
C258   C     0.02177   0.40576   0.11615   0.00000  Uiso   1.00
C259   C     0.07588   0.58371   0.05629   0.00000  Uiso   1.00
C260   C     0.02468   0.59291   0.09249   0.00000  Uiso   1.00
C261   C     0.18132   0.49492   0.01499   0.00000  Uiso   1.00
C262   C     0.22889   0.48015   0.48714   0.00000  Uiso   1.00
C263   C     0.23818   0.46532   0.43648   0.00000  Uiso   1.00
C264   C     0.20209   0.46720   0.41213   0.00000  Uiso   1.00
C265   C     0.17080   0.49980   0.06878   0.00000  Uiso   1.00
C266   C     0.25537   0.48699   0.06414   0.00000  Uiso   1.00
Cu267  Cu    0.11978   0.49999   0.25000   0.00000  Uiso   1.00
Cu268  Cu    0.21355   0.50001   0.25000   0.00000  Uiso   1.00
H269   H     0.28403   0.48411   0.08248   0.00000  Uiso   1.00
H270   H     0.02735   0.53265   0.00333   0.00000  Uiso   1.00
H271   H     0.20991   0.45181   0.37462   0.00000  Uiso   1.00
H272   H     0.23003   0.62956   0.27376   0.00000  Uiso   1.00
H273   H     0.09724   0.56325   0.15560   0.00000  Uiso   1.00
H274   H     0.25730   0.57102   0.41453   0.00000  Uiso   1.00
H275   H     0.28946   0.39135   0.17601   0.00000  Uiso   1.00
H276   H     0.00640   0.40228   0.19987   0.00000  Uiso   1.00
H277   H     0.05424   0.42586   0.10952   0.00000  Uiso   1.00
H278   H     0.03422   0.37318   0.10975   0.00000  Uiso   1.00
H279   H     0.00207   0.41322   0.08773   0.00000  Uiso   1.00
H280   H     0.22976   0.37054   0.27672   0.00000  Uiso   1.00
H281   H     0.07825   0.59410   0.01656   0.00000  Uiso   1.00
H282   H     0.10243   0.60270   0.06921   0.00000  Uiso   1.00
H283   H     0.02216   0.58418   0.13266   0.00000  Uiso   1.00
H284   H     0.01640   0.62628   0.09241   0.00000  Uiso   1.00
H285   H     0.33034   0.57535   0.07958   0.00000  Uiso   1.00
H286   H     0.10763   0.37272   0.21491   0.00000  Uiso   1.00
H287   H     0.02823   0.54170   0.31252   0.00000  Uiso   1.00
H288   H     0.06212   0.45862   0.18600   0.00000  Uiso   1.00
H289   H     0.27311   0.45112   0.41599   0.00000  Uiso   1.00
H290   H     0.30250   0.46755   0.48980   0.00000  Uiso   1.00
H291   H     0.13363   0.50281   0.09289   0.00000  Uiso   1.00
H292   H     0.04979   0.51366   0.41249   0.00000  Uiso   1.00
N293   N     0.04931   0.49999   0.24998   0.00000  Uiso   1.00
N294   N     0.28402   0.50002   0.24999   0.00000  Uiso   1.00
O295   O     0.12708   0.56011   0.25000   0.00000  Uiso   1.00
O296   O     0.07801   0.65357   0.16130   0.00000  Uiso   1.00
O297   O     0.12314   0.58360   0.15472   0.00000  Uiso   1.00
O298   O     0.29255   0.60234   0.32008   0.00000  Uiso   1.00
O299   O     0.21357   0.56956   0.33879   0.00000  Uiso   1.00
O300   O     0.27148   0.54782   0.39018   0.00000  Uiso   1.00
O301   O     0.30311   0.45316   0.17821   0.00000  Uiso   1.00
O302   O     0.08773   0.54162   0.05940   0.00000  Uiso   1.00
O303   O     0.20627   0.56012   0.25000   0.00000  Uiso   1.00
O304   O     0.10775   0.49998   0.32549   0.00000  Uiso   1.00
O305   O     0.18694   0.49999   0.32549   0.00000  Uiso   1.00
O306   O     0.12706   0.43988   0.24999   0.00000  Uiso   1.00
O307   O     0.20625   0.43989   0.24999   0.00000  Uiso   1.00
O308   O     0.14640   0.50001   0.17451   0.00000  Uiso   1.00
O309   O     0.22559   0.50002   0.17451   0.00000  Uiso   1.00
O310   O     0.05005   0.60730   0.23395   0.00000  Uiso   1.00
S311   S     0.09428   0.62283   0.19353   0.00000  Uiso   1.00
S312   S     0.26657   0.56203   0.33253   0.00000  Uiso   1.00
C313   C     0.50061   0.57924   0.24717   0.00000  Uiso   1.00
C314   C     0.45782   0.49662   0.40684   0.00000  Uiso   1.00
C315   C     0.53619   0.64551   0.26088   0.00000  Uiso   1.00
C316   C     0.47386   0.49742   0.34977   0.00000  Uiso   1.00
C317   C     0.53615   0.35468   0.26260   0.00000  Uiso   1.00
C318   C     0.50091   0.37634   0.24736   0.00000  Uiso   1.00
C319   C     0.46707   0.35549   0.22830   0.00000  Uiso   1.00
C320   C     0.46751   0.64611   0.22482   0.00000  Uiso   1.00
C321   C     0.50122   0.62401   0.24372   0.00000  Uiso   1.00
C322   C     0.63347   0.52465   0.28508   0.00000  Uiso   1.00
C323   C     0.34926   0.52314   0.28506   0.00000  Uiso   1.00
C324   C     0.47879   0.50130   0.48855   0.00000  Uiso   1.00
C325   C     0.36808   0.47647   0.21473   0.00000  Uiso   1.00
C326   C     0.65124   0.47533   0.21537   0.00000  Uiso   1.00
C327   C     0.50018   0.42081   0.24956   0.00000  Uiso   1.00
C328   C     0.52608   0.49943   0.15010   0.00000  Uiso   1.00
C329   C     0.59919   0.47776   0.01137   0.00000  Uiso   1.00
C330   C     0.54058   0.49646   0.09339   0.00000  Uiso   1.00
C331   C     0.40997   0.50936   0.43296   0.00000  Uiso   1.00
C332   C     0.39720   0.52072   0.48485   0.00000  Uiso   1.00
C333   C     0.43246   0.52148   0.01141   0.00000  Uiso   1.00
C334   C     0.65448   0.41216   0.17120   0.00000  Uiso   1.00
C335   C     0.49076   0.48821   0.43550   0.00000  Uiso   1.00
C336   C     0.35510   0.40576   0.11615   0.00000  Uiso   1.00
C337   C     0.40921   0.58371   0.05629   0.00000  Uiso   1.00
C338   C     0.35801   0.59291   0.09249   0.00000  Uiso   1.00
C339   C     0.51465   0.49492   0.01499   0.00000  Uiso   1.00
C340   C     0.56222   0.48015   0.48714   0.00000  Uiso   1.00
C341   C     0.57151   0.46532   0.43648   0.00000  Uiso   1.00
C342   C     0.53543   0.46720   0.41213   0.00000  Uiso   1.00
C343   C     0.50413   0.49980   0.06878   0.00000  Uiso   1.00
C344   C     0.58870   0.48699   0.06414   0.00000  Uiso   1.00
Cu345  Cu    0.45311   0.49999   0.25000   0.00000  Uiso   1.00
Cu346  Cu    0.54689   0.50001   0.25000   0.00000  Uiso   1.00
H347   H     0.61737   0.48411   0.08248   0.00000  Uiso   1.00
H348   H     0.36069   0.53265   0.00333   0.00000  Uiso   1.00
H349   H     0.54324   0.45181   0.37462   0.00000  Uiso   1.00
H350   H     0.56337   0.62956   0.27376   0.00000  Uiso   1.00
H351   H     0.43057   0.56325   0.15560   0.00000  Uiso   1.00
H352   H     0.59063   0.57102   0.41453   0.00000  Uiso   1.00
H353   H     0.62280   0.39135   0.17601   0.00000  Uiso   1.00
H354   H     0.33973   0.40228   0.19987   0.00000  Uiso   1.00
H355   H     0.38757   0.42586   0.10952   0.00000  Uiso   1.00
H356   H     0.36755   0.37318   0.10975   0.00000  Uiso   1.00
H357   H     0.33540   0.41322   0.08773   0.00000  Uiso   1.00
H358   H     0.56310   0.37054   0.27672   0.00000  Uiso   1.00
H359   H     0.41158   0.59410   0.01656   0.00000  Uiso   1.00
H360   H     0.43577   0.60270   0.06921   0.00000  Uiso   1.00
H361   H     0.35549   0.58418   0.13266   0.00000  Uiso   1.00
H362   H     0.34974   0.62628   0.09241   0.00000  Uiso   1.00
H363   H     0.66368   0.57535   0.07958   0.00000  Uiso   1.00
H364   H     0.44096   0.37272   0.21491   0.00000  Uiso   1.00
H365   H     0.36156   0.54170   0.31252   0.00000  Uiso   1.00
H366   H     0.39545   0.45862   0.18600   0.00000  Uiso   1.00
H367   H     0.60645   0.45112   0.41599   0.00000  Uiso   1.00
H368   H     0.63583   0.46755   0.48980   0.00000  Uiso   1.00
H369   H     0.46696   0.50281   0.09289   0.00000  Uiso   1.00
H370   H     0.38312   0.51366   0.41249   0.00000  Uiso   1.00
N371   N     0.38265   0.49999   0.24998   0.00000  Uiso   1.00
N372   N     0.61735   0.50002   0.24999   0.00000  Uiso   1.00
O373   O     0.46042   0.56011   0.25000   0.00000  Uiso   1.00
O374   O     0.41134   0.65357   0.16130   0.00000  Uiso   1.00
O375   O     0.45647   0.58360   0.15472   0.00000  Uiso   1.00
O376   O     0.62589   0.60234   0.32008   0.00000  Uiso   1.00
O377   O     0.54690   0.56956   0.33879   0.00000  Uiso   1.00
O378   O     0.60481   0.54782   0.39018   0.00000  Uiso   1.00
O379   O     0.63644   0.45316   0.17821   0.00000  Uiso   1.00
O380   O     0.42106   0.54162   0.05940   0.00000  Uiso   1.00
O381   O     0.53961   0.56012   0.25000   0.00000  Uiso   1.00
O382   O     0.44108   0.49998   0.32549   0.00000  Uiso   1.00
O383   O     0.52027   0.49999   0.32549   0.00000  Uiso   1.00
O384   O     0.46039   0.43988   0.24999   0.00000  Uiso   1.00
O385   O     0.53958   0.43989   0.24999   0.00000  Uiso   1.00
O386   O     0.47973   0.50001   0.17451   0.00000  Uiso   1.00
O387   O     0.55892   0.50002   0.17451   0.00000  Uiso   1.00
O388   O     0.38338   0.60730   0.23395   0.00000  Uiso   1.00
S389   S     0.42762   0.62283   0.19353   0.00000  Uiso   1.00
S390   S     0.59990   0.56203   0.33253   0.00000  Uiso   1.00
C391   C     0.83395   0.57924   0.24717   0.00000  Uiso   1.00
C392   C     0.79115   0.49662   0.40684   0.00000  Uiso   1.00
C393   C     0.86953   0.64551   0.26088   0.00000  Uiso   1.00
C394   C     0.80719   0.49742   0.34977   0.00000  Uiso   1.00
C395   C     0.86948   0.35468   0.26260   0.00000  Uiso   1.00
C396   C     0.83424   0.37634   0.24736   0.00000  Uiso   1.00
C397   C     0.80041   0.35549   0.22830   0.00000  Uiso   1.00
C398   C     0.80085   0.64611   0.22482   0.00000  Uiso   1.00
C399   C     0.83455   0.62401   0.24372   0.00000  Uiso   1.00
C400   C     0.96680   0.52465   0.28508   0.00000  Uiso   1.00
C401   C     0.68260   0.52314   0.28506   0.00000  Uiso   1.00
C402   C     0.81213   0.50130   0.48855   0.00000  Uiso   1.00
C403   C     0.70141   0.47647   0.21473   0.00000  Uiso   1.00
C404   C     0.98457   0.47533   0.21537   0.00000  Uiso   1.00
C405   C     0.83352   0.42081   0.24956   0.00000  Uiso   1.00
C406   C     0.85942   0.49943   0.15010   0.00000  Uiso   1.00
C407   C     0.93253   0.47776   0.01137   0.00000  Uiso   1.00
C408   C     0.87392   0.49646   0.09339   0.00000  Uiso   1.00
C409   C     0.74330   0.50936   0.43296   0.00000  Uiso   1.00
C410   C     0.73054   0.52072   0.48485   0.00000  Uiso   1.00
C411   C     0.76579   0.52148   0.01141   0.00000  Uiso   1.00
C412   C     0.98782   0.41216   0.17120   0.00000  Uiso   1.00
C413   C     0.82409   0.48821   0.43550   0.00000  Uiso   1.00
C414   C     0.68844   0.40576   0.11615   0.00000  Uiso   1.00
C415   C     0.74255   0.58371   0.05629   0.00000  Uiso   1.00
C416   C     0.69135   0.59291   0.09249   0.00000  Uiso   1.00
C417   C     0.84799   0.49492   0.01499   0.00000  Uiso   1.00
C418   C     0.89555   0.48015   0.48714   0.00000  Uiso   1.00
C419   C     0.90485   0.46532   0.43648   0.00000  Uiso   1.00
C420   C     0.86876   0.46720   0.41213   0.00000  Uiso   1.00
C421   C     0.83746   0.49980   0.06878   0.00000  Uiso   1.00
C422   C     0.92203   0.48699   0.06414   0.00000  Uiso   1.00
Cu423  Cu    0.78645   0.49999   0.25000   0.00000  Uiso   1.00
Cu424  Cu    0.88022   0.50001   0.25000   0.00000  Uiso   1.00
H425   H     0.95070   0.48411   0.08248   0.00000  Uiso   1.00
H426   H     0.69402   0.53265   0.00333   0.00000  Uiso   1.00
H427   H     0.87658   0.45181   0.37462   0.00000  Uiso   1.00
H428   H     0.89670   0.62956   0.27376   0.00000  Uiso   1.00
H429   H     0.76391   0.56325   0.15560   0.00000  Uiso   1.00
H430   H     0.92397   0.57102   0.41453   0.00000  Uiso   1.00
H431   H     0.95613   0.39135   0.17601   0.00000  Uiso   1.00
H432   H     0.67306   0.40228   0.19987   0.00000  Uiso   1.00
H433   H     0.72090   0.42586   0.10952   0.00000  Uiso   1.00
H434   H     0.70089   0.37318   0.10975   0.00000  Uiso   1.00
H435   H     0.66874   0.41322   0.08773   0.00000  Uiso   1.00
H436   H     0.89643   0.37054   0.27672   0.00000  Uiso   1.00
H437   H     0.74492   0.59410   0.01656   0.00000  Uiso   1.00
H438   H     0.76910   0.60270   0.06921   0.00000  Uiso   1.00
H439   H     0.68882   0.58418   0.13266   0.00000  Uiso   1.00
H440   H     0.68307   0.62628   0.09241   0.00000  Uiso   1.00
H441   H     0.99701   0.57535   0.07958   0.00000  Uiso   1.00
H442   H     0.77429   0.37272   0.21491   0.00000  Uiso   1.00
H443   H     0.69490   0.54170   0.31252   0.00000  Uiso   1.00
H444   H     0.72879   0.45862   0.18600   0.00000  Uiso   1.00
H445   H     0.93978   0.45112   0.41599   0.00000  Uiso   1.00
H446   H     0.96917   0.46755   0.48980   0.00000  Uiso   1.00
H447   H     0.80030   0.50281   0.09289   0.00000  Uiso   1.00
H448   H     0.71646   0.51366   0.41249   0.00000  Uiso   1.00
N449   N     0.71598   0.49999   0.24998   0.00000  Uiso   1.00
N450   N     0.95069   0.50002   0.24999   0.00000  Uiso   1.00
O451   O     0.79375   0.56011   0.25000   0.00000  Uiso   1.00
O452   O     0.74468   0.65357   0.16130   0.00000  Uiso   1.00
O453   O     0.78981   0.58360   0.15472   0.00000  Uiso   1.00
O454   O     0.95922   0.60234   0.32008   0.00000  Uiso   1.00
O455   O     0.88023   0.56956   0.33879   0.00000  Uiso   1.00
O456   O     0.93815   0.54782   0.39018   0.00000  Uiso   1.00
O457   O     0.96977   0.45316   0.17821   0.00000  Uiso   1.00
O458   O     0.75439   0.54162   0.05940   0.00000  Uiso   1.00
O459   O     0.87294   0.56012   0.25000   0.00000  Uiso   1.00
O460   O     0.77441   0.49998   0.32549   0.00000  Uiso   1.00
O461   O     0.85360   0.49999   0.32549   0.00000  Uiso   1.00
O462   O     0.79373   0.43988   0.24999   0.00000  Uiso   1.00
O463   O     0.87292   0.43989   0.24999   0.00000  Uiso   1.00
O464   O     0.81306   0.50001   0.17451   0.00000  Uiso   1.00
O465   O     0.89225   0.50002   0.17451   0.00000  Uiso   1.00
O466   O     0.71671   0.60730   0.23395   0.00000  Uiso   1.00
S467   S     0.76095   0.62283   0.19353   0.00000  Uiso   1.00
S468   S     0.93323   0.56203   0.33253   0.00000  Uiso   1.00
C469   C     0.16728   0.91257   0.24717   0.00000  Uiso   1.00
C470   C     0.12448   0.82996   0.40684   0.00000  Uiso   1.00
C471   C     0.20286   0.97884   0.26088   0.00000  Uiso   1.00
C472   C     0.14053   0.83075   0.34977   0.00000  Uiso   1.00
C473   C     0.20282   0.68801   0.26260   0.00000  Uiso   1.00
C474   C     0.16757   0.70967   0.24736   0.00000  Uiso   1.00
C475   C     0.13374   0.68883   0.22830   0.00000  Uiso   1.00
C476   C     0.13418   0.97944   0.22482   0.00000  Uiso   1.00
C477   C     0.16788   0.95734   0.24372   0.00000  Uiso   1.00
C478   C     0.30013   0.85798   0.28508   0.00000  Uiso   1.00
C479   C     0.01593   0.85647   0.28506   0.00000  Uiso   1.00
C480   C     0.14546   0.83463   0.48855   0.00000  Uiso   1.00
C481   C     0.03475   0.80980   0.21473   0.00000  Uiso   1.00
C482   C     0.31791   0.80866   0.21537   0.00000  Uiso   1.00
C483   C     0.16685   0.75414   0.24956   0.00000  Uiso   1.00
C484   C     0.19275   0.83276   0.15010   0.00000  Uiso   1.00
C485   C     0.26586   0.81109   0.01137   0.00000  Uiso   1.00
C486   C     0.20725   0.82979   0.09339   0.00000  Uiso   1.00
C487   C     0.07664   0.84270   0.43296   0.00000  Uiso   1.00
C488   C     0.06387   0.85406   0.48485   0.00000  Uiso   1.00
C489   C     0.09912   0.85481   0.01141   0.00000  Uiso   1.00
C490   C     0.32115   0.74549   0.17120   0.00000  Uiso   1.00
C491   C     0.15743   0.82154   0.43550   0.00000  Uiso   1.00
C492   C     0.02177   0.73910   0.11615   0.00000  Uiso   1.00
C493   C     0.07588   0.91704   0.05629   0.00000  Uiso   1.00
C494   C     0.02468   0.92624   0.09249   0.00000  Uiso   1.00
C495   C     0.18132   0.82825   0.01499   0.00000  Uiso   1.00
C496   C     0.22889   0.81348   0.48714   0.00000  Uiso   1.00
C497   C     0.23818   0.79865   0.43648   0.00000  Uiso   1.00
C498   C     0.20209   0.80053   0.41213   0.00000  Uiso   1.00
C499   C     0.17080   0.83314   0.06878   0.00000  Uiso   1.00
C500   C     0.25537   0.82032   0.06414   0.00000  Uiso   1.00
Cu501  Cu    0.11978   0.83333   0.25000   0.00000  Uiso   1.00
Cu502  Cu    0.21355   0.83334   0.25000   0.00000  Uiso   1.00
H503   H     0.28403   0.81744   0.08248   0.00000  Uiso   1.00
H504   H     0.02735   0.86598   0.00333   0.00000  Uiso   1.00
H505   H     0.20991   0.78515   0.37462   0.00000  Uiso   1.00
H506   H     0.23003   0.96289   0.27376   0.00000  Uiso   1.00
H507   H     0.09724   0.89658   0.15560   0.00000  Uiso   1.00
H508   H     0.25730   0.90436   0.41453   0.00000  Uiso   1.00
H509   H     0.28946   0.72469   0.17601   0.00000  Uiso   1.00
H510   H     0.00640   0.73562   0.19987   0.00000  Uiso   1.00
H511   H     0.05424   0.75919   0.10952   0.00000  Uiso   1.00
H512   H     0.03422   0.70652   0.10975   0.00000  Uiso   1.00
H513   H     0.00207   0.74655   0.08773   0.00000  Uiso   1.00
H514   H     0.22976   0.70387   0.27672   0.00000  Uiso   1.00
H515   H     0.07825   0.92743   0.01656   0.00000  Uiso   1.00
H516   H     0.10243   0.93604   0.06921   0.00000  Uiso   1.00
H517   H     0.02216   0.91752   0.13266   0.00000  Uiso   1.00
H518   H     0.01640   0.95961   0.09241   0.00000  Uiso   1.00
H519   H     0.33034   0.90868   0.07958   0.00000  Uiso   1.00
H520   H     0.10763   0.70605   0.21491   0.00000  Uiso   1.00
H521   H     0.02823   0.87504   0.31252   0.00000  Uiso   1.00
H522   H     0.06212   0.79195   0.18600   0.00000  Uiso   1.00
H523   H     0.27311   0.78445   0.41599   0.00000  Uiso   1.00
H524   H     0.30250   0.80088   0.48980   0.00000  Uiso   1.00
H525   H     0.13363   0.83614   0.09289   0.00000  Uiso   1.00
H526   H     0.04979   0.84699   0.41249   0.00000  Uiso   1.00
N527   N     0.04931   0.83332   0.24998   0.00000  Uiso   1.00
N528   N     0.28402   0.83335   0.24999   0.00000  Uiso   1.00
O529   O     0.12708   0.89345   0.25000   0.00000  Uiso   1.00
O530   O     0.07801   0.98690   0.16130   0.00000  Uiso   1.00
O531   O     0.12314   0.91693   0.15472   0.00000  Uiso   1.00
O532   O     0.29255   0.93567   0.32008   0.00000  Uiso   1.00
O533   O     0.21357   0.90289   0.33879   0.00000  Uiso   1.00
O534   O     0.27148   0.88116   0.39018   0.00000  Uiso   1.00
O535   O     0.30311   0.78649   0.17821   0.00000  Uiso   1.00
O536   O     0.08773   0.87496   0.05940   0.00000  Uiso   1.00
O537   O     0.20627   0.89346   0.25000   0.00000  Uiso   1.00
O538   O     0.10775   0.83332   0.32549   0.00000  Uiso   1.00
O539   O     0.18694   0.83333   0.32549   0.00000  Uiso   1.00
O540   O     0.12706   0.77321   0.24999   0.00000  Uiso   1.00
O541   O     0.20625   0.77322   0.24999   0.00000  Uiso   1.00
O542   O     0.14640   0.83334   0.17451   0.00000  Uiso   1.00
O543   O     0.22559   0.83335   0.17451   0.00000  Uiso   1.00
O544   O     0.05005   0.94064   0.23395   0.00000  Uiso   1.00
S545   S     0.09428   0.95617   0.19353   0.00000  Uiso   1.00
S546   S     0.26657   0.89536   0.33253   0.00000  Uiso   1.00
C547   C     0.50061   0.91257   0.24717   0.00000  Uiso   1.00
C548   C     0.45782   0.82996   0.40684   0.00000  Uiso   1.00
C549   C     0.53619   0.97884   0.26088   0.00000  Uiso   1.00
C550   C     0.47386   0.83075   0.34977   0.00000  Uiso   1.00
C551   C     0.53615   0.68801   0.26260   0.00000  Uiso   1.00
C552   C     0.50091   0.70967   0.24736   0.00000  Uiso   1.00
C553   C     0.46707   0.68883   0.22830   0.00000  Uiso   1.00
C554   C     0.46751   0.97944   0.22482   0.00000  Uiso   1.00
C555   C     0.50122   0.95734   0.24372   0.00000  Uiso   1.00
C556   C     0.63347   0.85798   0.28508   0.00000  Uiso   1.00
C557   C     0.34926   0.85647   0.28506   0.00000  Uiso   1.00
C558   C     0.47879   0.83463   0.48855   0.00000  Uiso   1.00
C559   C     0.36808   0.80980   0.21473   0.00000  Uiso   1.00
C560   C     0.65124   0.80866   0.21537   0.00000  Uiso   1.00
C561   C     0.50018   0.75414   0.24956   0.00000  Uiso   1.00
C562   C     0.52608   0.83276   0.15010   0.00000  Uiso   1.00
C563   C     0.59919   0.81109   0.01137   0.00000  Uiso   1.00
C564   C     0.54058   0.82979   0.09339   0.00000  Uiso   1.00
C565   C     0.40997   0.84270   0.43296   0.00000  Uiso   1.00
C566   C     0.39720   0.85406   0.48485   0.00000  Uiso   1.00
C567   C     0.43246   0.85481   0.01141   0.00000  Uiso   1.00
C568   C     0.65448   0.74549   0.17120   0.00000  Uiso   1.00
C569   C     0.49076   0.82154   0.43550   0.00000  Uiso   1.00
C570   C     0.35510   0.73910   0.11615   0.00000  Uiso   1.00
C571   C     0.40921   0.91704   0.05629   0.00000  Uiso   1.00
C572   C     0.35801   0.92624   0.09249   0.00000  Uiso   1.00
C573   C     0.51465   0.82825   0.01499   0.00000  Uiso   1.00
C574   C     0.56222   0.81348   0.48714   0.00000  Uiso   1.00
C575   C     0.57151   0.79865   0.43648   0.00000  Uiso   1.00
C576   C     0.53543   0.80053   0.41213   0.00000  Uiso   1.00
C577   C     0.50413   0.83314   0.06878   0.00000  Uiso   1.00
C578   C     0.58870   0.82032   0.06414   0.00000  Uiso   1.00
Cu579  Cu    0.45311   0.83333   0.25000   0.00000  Uiso   1.00
Cu580  Cu    0.54689   0.83334   0.25000   0.00000  Uiso   1.00
H581   H     0.61737   0.81744   0.08248   0.00000  Uiso   1.00
H582   H     0.36069   0.86598   0.00333   0.00000  Uiso   1.00
H583   H     0.54324   0.78515   0.37462   0.00000  Uiso   1.00
H584   H     0.56337   0.96289   0.27376   0.00000  Uiso   1.00
H585   H     0.43057   0.89658   0.15560   0.00000  Uiso   1.00
H586   H     0.59063   0.90436   0.41453   0.00000  Uiso   1.00
H587   H     0.62280   0.72469   0.17601   0.00000  Uiso   1.00
H588   H     0.33973   0.73562   0.19987   0.00000  Uiso   1.00
H589   H     0.38757   0.75919   0.10952   0.00000  Uiso   1.00
H590   H     0.36755   0.70652   0.10975   0.00000  Uiso   1.00
H591   H     0.33540   0.74655   0.08773   0.00000  Uiso   1.00
H592   H     0.56310   0.70387   0.27672   0.00000  Uiso   1.00
H593   H     0.41158   0.92743   0.01656   0.00000  Uiso   1.00
H594   H     0.43577   0.93604   0.06921   0.00000  Uiso   1.00
H595   H     0.35549   0.91752   0.13266   0.00000  Uiso   1.00
H596   H     0.34974   0.95961   0.09241   0.00000  Uiso   1.00
H597   H     0.66368   0.90868   0.07958   0.00000  Uiso   1.00
H598   H     0.44096   0.70605   0.21491   0.00000  Uiso   1.00
H599   H     0.36156   0.87504   0.31252   0.00000  Uiso   1.00
H600   H     0.39545   0.79195   0.18600   0.00000  Uiso   1.00
H601   H     0.60645   0.78445   0.41599   0.00000  Uiso   1.00
H602   H     0.63583   0.80088   0.48980   0.00000  Uiso   1.00
H603   H     0.46696   0.83614   0.09289   0.00000  Uiso   1.00
H604   H     0.38312   0.84699   0.41249   0.00000  Uiso   1.00
N605   N     0.38265   0.83332   0.24998   0.00000  Uiso   1.00
N606   N     0.61735   0.83335   0.24999   0.00000  Uiso   1.00
O607   O     0.46042   0.89345   0.25000   0.00000  Uiso   1.00
O608   O     0.41134   0.98690   0.16130   0.00000  Uiso   1.00
O609   O     0.45647   0.91693   0.15472   0.00000  Uiso   1.00
O610   O     0.62589   0.93567   0.32008   0.00000  Uiso   1.00
O611   O     0.54690   0.90289   0.33879   0.00000  Uiso   1.00
O612   O     0.60481   0.88116   0.39018   0.00000  Uiso   1.00
O613   O     0.63644   0.78649   0.17821   0.00000  Uiso   1.00
O614   O     0.42106   0.87496   0.05940   0.00000  Uiso   1.00
O615   O     0.53961   0.89346   0.25000   0.00000  Uiso   1.00
O616   O     0.44108   0.83332   0.32549   0.00000  Uiso   1.00
O617   O     0.52027   0.83333   0.32549   0.00000  Uiso   1.00
O618   O     0.46039   0.77321   0.24999   0.00000  Uiso   1.00
O619   O     0.53958   0.77322   0.24999   0.00000  Uiso   1.00
O620   O     0.47973   0.83334   0.17451   0.00000  Uiso   1.00
O621   O     0.55892   0.83335   0.17451   0.00000  Uiso   1.00
O622   O     0.38338   0.94064   0.23395   0.00000  Uiso   1.00
S623   S     0.42762   0.95617   0.19353   0.00000  Uiso   1.00
S624   S     0.59990   0.89536   0.33253   0.00000  Uiso   1.00
C625   C     0.83395   0.91257   0.24717   0.00000  Uiso   1.00
C626   C     0.79115   0.82996   0.40684   0.00000  Uiso   1.00
C627   C     0.86953   0.97884   0.26088   0.00000  Uiso   1.00
C628   C     0.80719   0.83075   0.34977   0.00000  Uiso   1.00
C629   C     0.86948   0.68801   0.26260   0.00000  Uiso   1.00
C630   C     0.83424   0.70967   0.24736   0.00000  Uiso   1.00
C631   C     0.80041   0.68883   0.22830   0.00000  Uiso   1.00
C632   C     0.80085   0.97944   0.22482   0.00000  Uiso   1.00
C633   C     0.83455   0.95734   0.24372   0.00000  Uiso   1.00
C634   C     0.96680   0.85798   0.28508   0.00000  Uiso   1.00
C635   C     0.68260   0.85647   0.28506   0.00000  Uiso   1.00
C636   C     0.81213   0.83463   0.48855   0.00000  Uiso   1.00
C637   C     0.70141   0.80980   0.21473   0.00000  Uiso   1.00
C638   C     0.98457   0.80866   0.21537   0.00000  Uiso   1.00
C639   C     0.83352   0.75414   0.24956   0.00000  Uiso   1.00
C640   C     0.85942   0.83276   0.15010   0.00000  Uiso   1.00
C641   C     0.93253   0.81109   0.01137   0.00000  Uiso   1.00
C642   C     0.87392   0.82979   0.09339   0.00000  Uiso   1.00
C643   C     0.74330   0.84270   0.43296   0.00000  Uiso   1.00
C644   C     0.73054   0.85406   0.48485   0.00000  Uiso   1.00
C645   C     0.76579   0.85481   0.01141   0.00000  Uiso   1.00
C646   C     0.98782   0.74549   0.17120   0.00000  Uiso   1.00
C647   C     0.82409   0.82154   0.43550   0.00000  Uiso   1.00
C648   C     0.68844   0.73910   0.11615   0.00000  Uiso   1.00
C649   C     0.74255   0.91704   0.05629   0.00000  Uiso   1.00
C650   C     0.69135   0.92624   0.09249   0.00000  Uiso   1.00
C651   C     0.84799   0.82825   0.01499   0.00000  Uiso   1.00
C652   C     0.89555   0.81348   0.48714   0.00000  Uiso   1.00
C653   C     0.90485   0.79865   0.43648   0.00000  Uiso   1.00
C654   C     0.86876   0.80053   0.41213   0.00000  Uiso   1.00
C655   C     0.83746   0.83314   0.06878   0.00000  Uiso   1.00
C656   C     0.92203   0.82032   0.06414   0.00000  Uiso   1.00
Cu657  Cu    0.78645   0.83333   0.25000   0.00000  Uiso   1.00
Cu658  Cu    0.88022   0.83334   0.25000   0.00000  Uiso   1.00
H659   H     0.95070   0.81744   0.08248   0.00000  Uiso   1.00
H660   H     0.69402   0.86598   0.00333   0.00000  Uiso   1.00
H661   H     0.87658   0.78515   0.37462   0.00000  Uiso   1.00
H662   H     0.89670   0.96289   0.27376   0.00000  Uiso   1.00
H663   H     0.76391   0.89658   0.15560   0.00000  Uiso   1.00
H664   H     0.92397   0.90436   0.41453   0.00000  Uiso   1.00
H665   H     0.95613   0.72469   0.17601   0.00000  Uiso   1.00
H666   H     0.67306   0.73562   0.19987   0.00000  Uiso   1.00
H667   H     0.72090   0.75919   0.10952   0.00000  Uiso   1.00
H668   H     0.70089   0.70652   0.10975   0.00000  Uiso   1.00
H669   H     0.66874   0.74655   0.08773   0.00000  Uiso   1.00
H670   H     0.89643   0.70387   0.27672   0.00000  Uiso   1.00
H671   H     0.74492   0.92743   0.01656   0.00000  Uiso   1.00
H672   H     0.76910   0.93604   0.06921   0.00000  Uiso   1.00
H673   H     0.68882   0.91752   0.13266   0.00000  Uiso   1.00
H674   H     0.68307   0.95961   0.09241   0.00000  Uiso   1.00
H675   H     0.99701   0.90868   0.07958   0.00000  Uiso   1.00
H676   H     0.77429   0.70605   0.21491   0.00000  Uiso   1.00
H677   H     0.69490   0.87504   0.31252   0.00000  Uiso   1.00
H678   H     0.72879   0.79195   0.18600   0.00000  Uiso   1.00
H679   H     0.93978   0.78445   0.41599   0.00000  Uiso   1.00
H680   H     0.96917   0.80088   0.48980   0.00000  Uiso   1.00
H681   H     0.80030   0.83614   0.09289   0.00000  Uiso   1.00
H682   H     0.71646   0.84699   0.41249   0.00000  Uiso   1.00
N683   N     0.71598   0.83332   0.24998   0.00000  Uiso   1.00
N684   N     0.95069   0.83335   0.24999   0.00000  Uiso   1.00
O685   O     0.79375   0.89345   0.25000   0.00000  Uiso   1.00
O686   O     0.74468   0.98690   0.16130   0.00000  Uiso   1.00
O687   O     0.78981   0.91693   0.15472   0.00000  Uiso   1.00
O688   O     0.95922   0.93567   0.32008   0.00000  Uiso   1.00
O689   O     0.88023   0.90289   0.33879   0.00000  Uiso   1.00
O690   O     0.93815   0.88116   0.39018   0.00000  Uiso   1.00
O691   O     0.96977   0.78649   0.17821   0.00000  Uiso   1.00
O692   O     0.75439   0.87496   0.05940   0.00000  Uiso   1.00
O693   O     0.87294   0.89346   0.25000   0.00000  Uiso   1.00
O694   O     0.77441   0.83332   0.32549   0.00000  Uiso   1.00
O695   O     0.85360   0.83333   0.32549   0.00000  Uiso   1.00
O696   O     0.79373   0.77321   0.24999   0.00000  Uiso   1.00
O697   O     0.87292   0.77322   0.24999   0.00000  Uiso   1.00
O698   O     0.81306   0.83334   0.17451   0.00000  Uiso   1.00
O699   O     0.89225   0.83335   0.17451   0.00000  Uiso   1.00
O700   O     0.71671   0.94064   0.23395   0.00000  Uiso   1.00
S701   S     0.76095   0.95617   0.19353   0.00000  Uiso   1.00
S702   S     0.93323   0.89536   0.33253   0.00000  Uiso   1.00
C703   C     0.16728   0.24590   0.74717   0.00000  Uiso   1.00
C704   C     0.12448   0.16329   0.90684   0.00000  Uiso   1.00
C705   C     0.20286   0.31217   0.76088   0.00000  Uiso   1.00
C706   C     0.14053   0.16409   0.84977   0.00000  Uiso   1.00
C707   C     0.20282   0.02134   0.76260   0.00000  Uiso   1.00
C708   C     0.16757   0.04301   0.74736   0.00000  Uiso   1.00
C709   C     0.13374   0.02216   0.72830   0.00000  Uiso   1.00
C710   C     0.13418   0.31278   0.72482   0.00000  Uiso   1.00
C711   C     0.16788   0.29067   0.74372   0.00000  Uiso   1.00
C712   C     0.30013   0.19132   0.78508   0.00000  Uiso   1.00
C713   C     0.01593   0.18980   0.78506   0.00000  Uiso   1.00
C714   C     0.14546   0.16797   0.98855   0.00000  Uiso   1.00
C715   C     0.03475   0.14313   0.71473   0.00000  Uiso   1.00
C716   C     0.31791   0.14199   0.71537   0.00000  Uiso   1.00
C717   C     0.16685   0.08747   0.74956   0.00000  Uiso   1.00
C718   C     0.19275   0.16610   0.65010   0.00000  Uiso   1.00
C719   C     0.26586   0.14442   0.51137   0.00000  Uiso   1.00
C720   C     0.20725   0.16312   0.59339   0.00000  Uiso   1.00
C721   C     0.07664   0.17603   0.93296   0.00000  Uiso   1.00
C722   C     0.06387   0.18739   0.98485   0.00000  Uiso   1.00
C723   C     0.09912   0.18815   0.51141   0.00000  Uiso   1.00
C724   C     0.32115   0.07882   0.67120   0.00000  Uiso   1.00
C725   C     0.15743   0.15487   0.93550   0.00000  Uiso   1.00
C726   C     0.02177   0.07243   0.61615   0.00000  Uiso   1.00
C727   C     0.07588   0.25038   0.55629   0.00000  Uiso   1.00
C728   C     0.02468   0.25957   0.59249   0.00000  Uiso   1.00
C729   C     0.18132   0.16159   0.51499   0.00000  Uiso   1.00
C730   C     0.22889   0.14682   0.98714   0.00000  Uiso   1.00
C731   C     0.23818   0.13199   0.93648   0.00000  Uiso   1.00
C732   C     0.20209   0.13387   0.91213   0.00000  Uiso   1.00
C733   C     0.17080   0.16647   0.56878   0.00000  Uiso   1.00
C734   C     0.25537   0.15365   0.56414   0.00000  Uiso   1.00
Cu735  Cu    0.11978   0.16666   0.75000   0.00000  Uiso   1.00
Cu736  Cu    0.21355   0.16667   0.75000   0.00000  Uiso   1.00
H737   H     0.28403   0.15077   0.58248   0.00000  Uiso   1.00
H738   H     0.02735   0.19932   0.50333   0.00000  Uiso   1.00
H739   H     0.20991   0.11848   0.87462   0.00000  Uiso   1.00
H740   H     0.23003   0.29623   0.77376   0.00000  Uiso   1.00
H741   H     0.09724   0.22992   0.65560   0.00000  Uiso   1.00
H742   H     0.25730   0.23769   0.91453   0.00000  Uiso   1.00
H743   H     0.28946   0.05802   0.67601   0.00000  Uiso   1.00
H744   H     0.00640   0.06895   0.69987   0.00000  Uiso   1.00
H745   H     0.05424   0.09252   0.60952   0.00000  Uiso   1.00
H746   H     0.03422   0.03985   0.60975   0.00000  Uiso   1.00
H747   H     0.00207   0.07989   0.58773   0.00000  Uiso   1.00
H748   H     0.22976   0.03720   0.77672   0.00000  Uiso   1.00
H749   H     0.07825   0.26077   0.51656   0.00000  Uiso   1.00
H750   H     0.10243   0.26937   0.56921   0.00000  Uiso   1.00
H751   H     0.02216   0.25085   0.63266   0.00000  Uiso   1.00
H752   H     0.01640   0.29295   0.59241   0.00000  Uiso   1.00
H753   H     0.33034   0.24202   0.57958   0.00000  Uiso   1.00
H754   H     0.10763   0.03939   0.71491   0.00000  Uiso   1.00
H755   H     0.02823   0.20837   0.81252   0.00000  Uiso   1.00
H756   H     0.06212   0.12529   0.68600   0.00000  Uiso   1.00
H757   H     0.27311   0.11778   0.91599   0.00000  Uiso   1.00
H758   H     0.30250   0.13422   0.98980   0.00000  Uiso   1.00
H759   H     0.13363   0.16948   0.59289   0.00000  Uiso   1.00
H760   H     0.04979   0.18033   0.91249   0.00000  Uiso   1.00
N761   N     0.04931   0.16666   0.74998   0.00000  Uiso   1.00
N762   N     0.28402   0.16669   0.74999   0.00000  Uiso   1.00
O763   O     0.12708   0.22678   0.75000   0.00000  Uiso   1.00
O764   O     0.07801   0.32024   0.66130   0.00000  Uiso   1.00
O765   O     0.12314   0.25027   0.65472   0.00000  Uiso   1.00
O766   O     0.29255   0.26901   0.82008   0.00000  Uiso   1.00
O767   O     0.21357   0.23623   0.83879   0.00000  Uiso   1.00
O768   O     0.27148   0.21449   0.89018   0.00000  Uiso   1.00
O769   O     0.30311   0.11982   0.67821   0.00000  Uiso   1.00
O770   O     0.08773   0.20829   0.55940   0.00000  Uiso   1.00
O771   O     0.20627   0.22679   0.75000   0.00000  Uiso   1.00
O772   O     0.10775   0.16665   0.82549   0.00000  Uiso   1.00
O773   O     0.18694   0.16666   0.82549   0.00000  Uiso   1.00
O774   O     0.12706   0.10654   0.74999   0.00000  Uiso   1.00
O775   O     0.20625   0.10655   0.74999   0.00000  Uiso   1.00
O776   O     0.14640   0.16667   0.67451   0.00000  Uiso   1.00
O777   O     0.22559   0.16668   0.67451   0.00000  Uiso   1.00
O778   O     0.05005   0.27397   0.73395   0.00000  Uiso   1.00
S779   S     0.09428   0.28950   0.69353   0.00000  Uiso   1.00
S780   S     0.26657   0.22869   0.83253   0.00000  Uiso   1.00
C781   C     0.50061   0.24590   0.74717   0.00000  Uiso   1.00
C782   C     0.45782   0.16329   0.90684   0.00000  Uiso   1.00
C783   C     0.53619   0.31217   0.76088   0.00000  Uiso   1.00
C784   C     0.47386   0.16409   0.84977   0.00000  Uiso   1.00
C785   C     0.53615   0.02134   0.76260   0.00000  Uiso   1.00
C786   C     0.50091   0.04301   0.74736   0.00000  Uiso   1.00
C787   C     0.46707   0.02216   0.72830   0.00000  Uiso   1.00
C788   C     0.46751   0.31278   0.72482   0.00000  Uiso   1.00
C789   C     0.50122   0.29067   0.74372   0.00000  Uiso   1.00
C790   C     0.63347   0.19132   0.78508   0.00000  Uiso   1.00
C791   C     0.34926   0.18980   0.78506   0.00000  Uiso   1.00
C792   C     0.47879   0.16797   0.98855   0.00000  Uiso   1.00
C793   C     0.36808   0.14313   0.71473   0.00000  Uiso   1.00
C794   C     0.65124   0.14199   0.71537   0.00000  Uiso   1.00
C795   C     0.50018   0.08747   0.74956   0.00000  Uiso   1.00
C796   C     0.52608   0.16610   0.65010   0.00000  Uiso   1.00
C797   C     0.59919   0.14442   0.51137   0.00000  Uiso   1.00
C798   C     0.54058   0.16312   0.59339   0.00000  Uiso   1.00
C799   C     0.40997   0.17603   0.93296   0.00000  Uiso   1.00
C800   C     0.39720   0.18739   0.98485   0.00000  Uiso   1.00
C801   C     0.43246   0.18815   0.51141   0.00000  Uiso   1.00
C802   C     0.65448   0.07882   0.67120   0.00000  Uiso   1.00
C803   C     0.49076   0.15487   0.93550   0.00000  Uiso   1.00
C804   C     0.35510   0.07243   0.61615   0.00000  Uiso   1.00
C805   C     0.40921   0.25038   0.55629   0.00000  Uiso   1.00
C806   C     0.35801   0.25957   0.59249   0.00000  Uiso   1.00
C807   C     0.51465   0.16159   0.51499   0.00000  Uiso   1.00
C808   C     0.56222   0.14682   0.98714   0.00000  Uiso   1.00
C809   C     0.57151   0.13199   0.93648   0.00000  Uiso   1.00
C810   C     0.53543   0.13387   0.91213   0.00000  Uiso   1.00
C811   C     0.50413   0.16647   0.56878   0.00000  Uiso   1.00
C812   C     0.58870   0.15365   0.56414   0.00000  Uiso   1.00
Cu813  Cu    0.45311   0.16666   0.75000   0.00000  Uiso   1.00
Cu814  Cu    0.54689   0.16667   0.75000   0.00000  Uiso   1.00
H815   H     0.61737   0.15077   0.58248   0.00000  Uiso   1.00
H816   H     0.36069   0.19932   0.50333   0.00000  Uiso   1.00
H817   H     0.54324   0.11848   0.87462   0.00000  Uiso   1.00
H818   H     0.56337   0.29623   0.77376   0.00000  Uiso   1.00
H819   H     0.43057   0.22992   0.65560   0.00000  Uiso   1.00
H820   H     0.59063   0.23769   0.91453   0.00000  Uiso   1.00
H821   H     0.62280   0.05802   0.67601   0.00000  Uiso   1.00
H822   H     0.33973   0.06895   0.69987   0.00000  Uiso   1.00
H823   H     0.38757   0.09252   0.60952   0.00000  Uiso   1.00
H824   H     0.36755   0.03985   0.60975   0.00000  Uiso   1.00
H825   H     0.33540   0.07989   0.58773   0.00000  Uiso   1.00
H826   H     0.56310   0.03720   0.77672   0.00000  Uiso   1.00
H827   H     0.41158   0.26077   0.51656   0.00000  Uiso   1.00
H828   H     0.43577   0.26937   0.56921   0.00000  Uiso   1.00
H829   H     0.35549   0.25085   0.63266   0.00000  Uiso   1.00
H830   H     0.34974   0.29295   0.59241   0.00000  Uiso   1.00
H831   H     0.66368   0.24202   0.57958   0.00000  Uiso   1.00
H832   H     0.44096   0.03939   0.71491   0.00000  Uiso   1.00
H833   H     0.36156   0.20837   0.81252   0.00000  Uiso   1.00
H834   H     0.39545   0.12529   0.68600   0.00000  Uiso   1.00
H835   H     0.60645   0.11778   0.91599   0.00000  Uiso   1.00
H836   H     0.63583   0.13422   0.98980   0.00000  Uiso   1.00
H837   H     0.46696   0.16948   0.59289   0.00000  Uiso   1.00
H838   H     0.38312   0.18033   0.91249   0.00000  Uiso   1.00
N839   N     0.38265   0.16666   0.74998   0.00000  Uiso   1.00
N840   N     0.61735   0.16669   0.74999   0.00000  Uiso   1.00
O841   O     0.46042   0.22678   0.75000   0.00000  Uiso   1.00
O842   O     0.41134   0.32024   0.66130   0.00000  Uiso   1.00
O843   O     0.45647   0.25027   0.65472   0.00000  Uiso   1.00
O844   O     0.62589   0.26901   0.82008   0.00000  Uiso   1.00
O845   O     0.54690   0.23623   0.83879   0.00000  Uiso   1.00
O846   O     0.60481   0.21449   0.89018   0.00000  Uiso   1.00
O847   O     0.63644   0.11982   0.67821   0.00000  Uiso   1.00
O848   O     0.42106   0.20829   0.55940   0.00000  Uiso   1.00
O849   O     0.53961   0.22679   0.75000   0.00000  Uiso   1.00
O850   O     0.44108   0.16665   0.82549   0.00000  Uiso   1.00
O851   O     0.52027   0.16666   0.82549   0.00000  Uiso   1.00
O852   O     0.46039   0.10654   0.74999   0.00000  Uiso   1.00
O853   O     0.53958   0.10655   0.74999   0.00000  Uiso   1.00
O854   O     0.47973   0.16667   0.67451   0.00000  Uiso   1.00
O855   O     0.55892   0.16668   0.67451   0.00000  Uiso   1.00
O856   O     0.38338   0.27397   0.73395   0.00000  Uiso   1.00
S857   S     0.42762   0.28950   0.69353   0.00000  Uiso   1.00
S858   S     0.59990   0.22869   0.83253   0.00000  Uiso   1.00
C859   C     0.83395   0.24590   0.74717   0.00000  Uiso   1.00
C860   C     0.79115   0.16329   0.90684   0.00000  Uiso   1.00
C861   C     0.86953   0.31217   0.76088   0.00000  Uiso   1.00
C862   C     0.80719   0.16409   0.84977   0.00000  Uiso   1.00
C863   C     0.86948   0.02134   0.76260   0.00000  Uiso   1.00
C864   C     0.83424   0.04301   0.74736   0.00000  Uiso   1.00
C865   C     0.80041   0.02216   0.72830   0.00000  Uiso   1.00
C866   C     0.80085   0.31278   0.72482   0.00000  Uiso   1.00
C867   C     0.83455   0.29067   0.74372   0.00000  Uiso   1.00
C868   C     0.96680   0.19132   0.78508   0.00000  Uiso   1.00
C869   C     0.68260   0.18980   0.78506   0.00000  Uiso   1.00
C870   C     0.81213   0.16797   0.98855   0.00000  Uiso   1.00
C871   C     0.70141   0.14313   0.71473   0.00000  Uiso   1.00
C872   C     0.98457   0.14199   0.71537   0.00000  Uiso   1.00
C873   C     0.83352   0.08747   0.74956   0.00000  Uiso   1.00
C874   C     0.85942   0.16610   0.65010   0.00000  Uiso   1.00
C875   C     0.93253   0.14442   0.51137   0.00000  Uiso   1.00
C876   C     0.87392   0.16312   0.59339   0.00000  Uiso   1.00
C877   C     0.74330   0.17603   0.93296   0.00000  Uiso   1.00
C878   C     0.73054   0.18739   0.98485   0.00000  Uiso   1.00
C879   C     0.76579   0.18815   0.51141   0.00000  Uiso   1.00
C880   C     0.98782   0.07882   0.67120   0.00000  Uiso   1.00
C881   C     0.82409   0.15487   0.93550   0.00000  Uiso   1.00
C882   C     0.68844   0.07243   0.61615   0.00000  Uiso   1.00
C883   C     0.74255   0.25038   0.55629   0.00000  Uiso   1.00
C884   C     0.69135   0.25957   0.59249   0.00000  Uiso   1.00
C885   C     0.84799   0.16159   0.51499   0.00000  Uiso   1.00
C886   C     0.89555   0.14682   0.98714   0.00000  Uiso   1.00
C887   C     0.90485   0.13199   0.93648   0.00000  Uiso   1.00
C888   C     0.86876   0.13387   0.91213   0.00000  Uiso   1.00
C889   C     0.83746   0.16647   0.56878   0.00000  Uiso   1.00
C890   C     0.92203   0.15365   0.56414   0.00000  Uiso   1.00
Cu891  Cu    0.78645   0.16666   0.75000   0.00000  Uiso   1.00
Cu892  Cu    0.88022   0.16667   0.75000   0.00000  Uiso   1.00
H893   H     0.95070   0.15077   0.58248   0.00000  Uiso   1.00
H894   H     0.69402   0.19932   0.50333   0.00000  Uiso   1.00
H895   H     0.87658   0.11848   0.87462   0.00000  Uiso   1.00
H896   H     0.89670   0.29623   0.77376   0.00000  Uiso   1.00
H897   H     0.76391   0.22992   0.65560   0.00000  Uiso   1.00
H898   H     0.92397   0.23769   0.91453   0.00000  Uiso   1.00
H899   H     0.95613   0.05802   0.67601   0.00000  Uiso   1.00
H900   H     0.67306   0.06895   0.69987   0.00000  Uiso   1.00
H901   H     0.72090   0.09252   0.60952   0.00000  Uiso   1.00
H902   H     0.70089   0.03985   0.60975   0.00000  Uiso   1.00
H903   H     0.66874   0.07989   0.58773   0.00000  Uiso   1.00
H904   H     0.89643   0.03720   0.77672   0.00000  Uiso   1.00
H905   H     0.74492   0.26077   0.51656   0.00000  Uiso   1.00
H906   H     0.76910   0.26937   0.56921   0.00000  Uiso   1.00
H907   H     0.68882   0.25085   0.63266   0.00000  Uiso   1.00
H908   H     0.68307   0.29295   0.59241   0.00000  Uiso   1.00
H909   H     0.99701   0.24202   0.57958   0.00000  Uiso   1.00
H910   H     0.77429   0.03939   0.71491   0.00000  Uiso   1.00
H911   H     0.69490   0.20837   0.81252   0.00000  Uiso   1.00
H912   H     0.72879   0.12529   0.68600   0.00000  Uiso   1.00
H913   H     0.93978   0.11778   0.91599   0.00000  Uiso   1.00
H914   H     0.96917   0.13422   0.98980   0.00000  Uiso   1.00
H915   H     0.80030   0.16948   0.59289   0.00000  Uiso   1.00
H916   H     0.71646   0.18033   0.91249   0.00000  Uiso   1.00
N917   N     0.71598   0.16666   0.74998   0.00000  Uiso   1.00
N918   N     0.95069   0.16669   0.74999   0.00000  Uiso   1.00
O919   O     0.79375   0.22678   0.75000   0.00000  Uiso   1.00
O920   O     0.74468   0.32024   0.66130   0.00000  Uiso   1.00
O921   O     0.78981   0.25027   0.65472   0.00000  Uiso   1.00
O922   O     0.95922   0.26901   0.82008   0.00000  Uiso   1.00
O923   O     0.88023   0.23623   0.83879   0.00000  Uiso   1.00
O924   O     0.93815   0.21449   0.89018   0.00000  Uiso   1.00
O925   O     0.96977   0.11982   0.67821   0.00000  Uiso   1.00
O926   O     0.75439   0.20829   0.55940   0.00000  Uiso   1.00
O927   O     0.87294   0.22679   0.75000   0.00000  Uiso   1.00
O928   O     0.77441   0.16665   0.82549   0.00000  Uiso   1.00
O929   O     0.85360   0.16666   0.82549   0.00000  Uiso   1.00
O930   O     0.79373   0.10654   0.74999   0.00000  Uiso   1.00
O931   O     0.87292   0.10655   0.74999   0.00000  Uiso   1.00
O932   O     0.81306   0.16667   0.67451   0.00000  Uiso   1.00
O933   O     0.89225   0.16668   0.67451   0.00000  Uiso   1.00
O934   O     0.71671   0.27397   0.73395   0.00000  Uiso   1.00
S935   S     0.76095   0.28950   0.69353   0.00000  Uiso   1.00
S936   S     0.93323   0.22869   0.83253   0.00000  Uiso   1.00
C937   C     0.16728   0.57924   0.74717   0.00000  Uiso   1.00
C938   C     0.12448   0.49662   0.90684   0.00000  Uiso   1.00
C939   C     0.20286   0.64551   0.76088   0.00000  Uiso   1.00
C940   C     0.14053   0.49742   0.84977   0.00000  Uiso   1.00
C941   C     0.20282   0.35468   0.76260   0.00000  Uiso   1.00
C942   C     0.16757   0.37634   0.74736   0.00000  Uiso   1.00
C943   C     0.13374   0.35549   0.72830   0.00000  Uiso   1.00
C944   C     0.13418   0.64611   0.72482   0.00000  Uiso   1.00
C945   C     0.16788   0.62401   0.74372   0.00000  Uiso   1.00
C946   C     0.30013   0.52465   0.78508   0.00000  Uiso   1.00
C947   C     0.01593   0.52314   0.78506   0.00000  Uiso   1.00
C948   C     0.14546   0.50130   0.98855   0.00000  Uiso   1.00
C949   C     0.03475   0.47647   0.71473   0.00000  Uiso   1.00
C950   C     0.31791   0.47533   0.71537   0.00000  Uiso   1.00
C951   C     0.16685   0.42081   0.74956   0.00000  Uiso   1.00
C952   C     0.19275   0.49943   0.65010   0.00000  Uiso   1.00
C953   C     0.26586   0.47776   0.51137   0.00000  Uiso   1.00
C954   C     0.20725   0.49646   0.59339   0.00000  Uiso   1.00
C955   C     0.07664   0.50936   0.93296   0.00000  Uiso   1.00
C956   C     0.06387   0.52072   0.98485   0.00000  Uiso   1.00
C957   C     0.09912   0.52148   0.51141   0.00000  Uiso   1.00
C958   C     0.32115   0.41216   0.67120   0.00000  Uiso   1.00
C959   C     0.15743   0.48821   0.93550   0.00000  Uiso   1.00
C960   C     0.02177   0.40576   0.61615   0.00000  Uiso   1.00
C961   C     0.07588   0.58371   0.55629   0.00000  Uiso   1.00
C962   C     0.02468   0.59291   0.59249   0.00000  Uiso   1.00
C963   C     0.18132   0.49492   0.51499   0.00000  Uiso   1.00
C964   C     0.22889   0.48015   0.98714   0.00000  Uiso   1.00
C965   C     0.23818   0.46532   0.93648   0.00000  Uiso   1.00
C966   C     0.20209   0.46720   0.91213   0.00000  Uiso   1.00
C967   C     0.17080   0.49980   0.56878   0.00000  Uiso   1.00
C968   C     0.25537   0.48699   0.56414   0.00000  Uiso   1.00
Cu969  Cu    0.11978   0.49999   0.75000   0.00000  Uiso   1.00
Cu970  Cu    0.21355   0.50001   0.75000   0.00000  Uiso   1.00
H971   H     0.28403   0.48411   0.58248   0.00000  Uiso   1.00
H972   H     0.02735   0.53265   0.50333   0.00000  Uiso   1.00
H973   H     0.20991   0.45181   0.87462   0.00000  Uiso   1.00
H974   H     0.23003   0.62956   0.77376   0.00000  Uiso   1.00
H975   H     0.09724   0.56325   0.65560   0.00000  Uiso   1.00
H976   H     0.25730   0.57102   0.91453   0.00000  Uiso   1.00
H977   H     0.28946   0.39135   0.67601   0.00000  Uiso   1.00
H978   H     0.00640   0.40228   0.69987   0.00000  Uiso   1.00
H979   H     0.05424   0.42586   0.60952   0.00000  Uiso   1.00
H980   H     0.03422   0.37318   0.60975   0.00000  Uiso   1.00
H981   H     0.00207   0.41322   0.58773   0.00000  Uiso   1.00
H982   H     0.22976   0.37054   0.77672   0.00000  Uiso   1.00
H983   H     0.07825   0.59410   0.51656   0.00000  Uiso   1.00
H984   H     0.10243   0.60270   0.56921   0.00000  Uiso   1.00
H985   H     0.02216   0.58418   0.63266   0.00000  Uiso   1.00
H986   H     0.01640   0.62628   0.59241   0.00000  Uiso   1.00
H987   H     0.33034   0.57535   0.57958   0.00000  Uiso   1.00
H988   H     0.10763   0.37272   0.71491   0.00000  Uiso   1.00
H989   H     0.02823   0.54170   0.81252   0.00000  Uiso   1.00
H990   H     0.06212   0.45862   0.68600   0.00000  Uiso   1.00
H991   H     0.27311   0.45112   0.91599   0.00000  Uiso   1.00
H992   H     0.30250   0.46755   0.98980   0.00000  Uiso   1.00
H993   H     0.13363   0.50281   0.59289   0.00000  Uiso   1.00
H994   H     0.04979   0.51366   0.91249   0.00000  Uiso   1.00
N995   N     0.04931   0.49999   0.74998   0.00000  Uiso   1.00
N996   N     0.28402   0.50002   0.74999   0.00000  Uiso   1.00
O997   O     0.12708   0.56011   0.75000   0.00000  Uiso   1.00
O998   O     0.07801   0.65357   0.66130   0.00000  Uiso   1.00
O999   O     0.12314   0.58360   0.65472   0.00000  Uiso   1.00
O1000  O     0.29255   0.60234   0.82008   0.00000  Uiso   1.00
O1001  O     0.21357   0.56956   0.83879   0.00000  Uiso   1.00
O1002  O     0.27148   0.54782   0.89018   0.00000  Uiso   1.00
O1003  O     0.30311   0.45316   0.67821   0.00000  Uiso   1.00
O1004  O     0.08773   0.54162   0.55940   0.00000  Uiso   1.00
O1005  O     0.20627   0.56012   0.75000   0.00000  Uiso   1.00
O1006  O     0.10775   0.49998   0.82549   0.00000  Uiso   1.00
O1007  O     0.18694   0.49999   0.82549   0.00000  Uiso   1.00
O1008  O     0.12706   0.43988   0.74999   0.00000  Uiso   1.00
O1009  O     0.20625   0.43989   0.74999   0.00000  Uiso   1.00
O1010  O     0.14640   0.50001   0.67451   0.00000  Uiso   1.00
O1011  O     0.22559   0.50002   0.67451   0.00000  Uiso   1.00
O1012  O     0.05005   0.60730   0.73395   0.00000  Uiso   1.00
S1013  S     0.09428   0.62283   0.69353   0.00000  Uiso   1.00
S1014  S     0.26657   0.56203   0.83253   0.00000  Uiso   1.00
C1015  C     0.50061   0.57924   0.74717   0.00000  Uiso   1.00
C1016  C     0.45782   0.49662   0.90684   0.00000  Uiso   1.00
C1017  C     0.53619   0.64551   0.76088   0.00000  Uiso   1.00
C1018  C     0.47386   0.49742   0.84977   0.00000  Uiso   1.00
C1019  C     0.53615   0.35468   0.76260   0.00000  Uiso   1.00
C1020  C     0.50091   0.37634   0.74736   0.00000  Uiso   1.00
C1021  C     0.46707   0.35549   0.72830   0.00000  Uiso   1.00
C1022  C     0.46751   0.64611   0.72482   0.00000  Uiso   1.00
C1023  C     0.50122   0.62401   0.74372   0.00000  Uiso   1.00
C1024  C     0.63347   0.52465   0.78508   0.00000  Uiso   1.00
C1025  C     0.34926   0.52314   0.78506   0.00000  Uiso   1.00
C1026  C     0.47879   0.50130   0.98855   0.00000  Uiso   1.00
C1027  C     0.36808   0.47647   0.71473   0.00000  Uiso   1.00
C1028  C     0.65124   0.47533   0.71537   0.00000  Uiso   1.00
C1029  C     0.50018   0.42081   0.74956   0.00000  Uiso   1.00
C1030  C     0.52608   0.49943   0.65010   0.00000  Uiso   1.00
C1031  C     0.59919   0.47776   0.51137   0.00000  Uiso   1.00
C1032  C     0.54058   0.49646   0.59339   0.00000  Uiso   1.00
C1033  C     0.40997   0.50936   0.93296   0.00000  Uiso   1.00
C1034  C     0.39720   0.52072   0.98485   0.00000  Uiso   1.00
C1035  C     0.43246   0.52148   0.51141   0.00000  Uiso   1.00
C1036  C     0.65448   0.41216   0.67120   0.00000  Uiso   1.00
C1037  C     0.49076   0.48821   0.93550   0.00000  Uiso   1.00
C1038  C     0.35510   0.40576   0.61615   0.00000  Uiso   1.00
C1039  C     0.40921   0.58371   0.55629   0.00000  Uiso   1.00
C1040  C     0.35801   0.59291   0.59249   0.00000  Uiso   1.00
C1041  C     0.51465   0.49492   0.51499   0.00000  Uiso   1.00
C1042  C     0.56222   0.48015   0.98714   0.00000  Uiso   1.00
C1043  C     0.57151   0.46532   0.93648   0.00000  Uiso   1.00
C1044  C     0.53543   0.46720   0.91213   0.00000  Uiso   1.00
C1045  C     0.50413   0.49980   0.56878   0.00000  Uiso   1.00
C1046  C     0.58870   0.48699   0.56414   0.00000  Uiso   1.00
Cu1047 Cu    0.45311   0.49999   0.75000   0.00000  Uiso   1.00
Cu1048 Cu    0.54689   0.50001   0.75000   0.00000  Uiso   1.00
H1049  H     0.61737   0.48411   0.58248   0.00000  Uiso   1.00
H1050  H     0.36069   0.53265   0.50333   0.00000  Uiso   1.00
H1051  H     0.54324   0.45181   0.87462   0.00000  Uiso   1.00
H1052  H     0.56337   0.62956   0.77376   0.00000  Uiso   1.00
H1053  H     0.43057   0.56325   0.65560   0.00000  Uiso   1.00
H1054  H     0.59063   0.57102   0.91453   0.00000  Uiso   1.00
H1055  H     0.62280   0.39135   0.67601   0.00000  Uiso   1.00
H1056  H     0.33973   0.40228   0.69987   0.00000  Uiso   1.00
H1057  H     0.38757   0.42586   0.60952   0.00000  Uiso   1.00
H1058  H     0.36755   0.37318   0.60975   0.00000  Uiso   1.00
H1059  H     0.33540   0.41322   0.58773   0.00000  Uiso   1.00
H1060  H     0.56310   0.37054   0.77672   0.00000  Uiso   1.00
H1061  H     0.41158   0.59410   0.51656   0.00000  Uiso   1.00
H1062  H     0.43577   0.60270   0.56921   0.00000  Uiso   1.00
H1063  H     0.35549   0.58418   0.63266   0.00000  Uiso   1.00
H1064  H     0.34974   0.62628   0.59241   0.00000  Uiso   1.00
H1065  H     0.66368   0.57535   0.57958   0.00000  Uiso   1.00
H1066  H     0.44096   0.37272   0.71491   0.00000  Uiso   1.00
H1067  H     0.36156   0.54170   0.81252   0.00000  Uiso   1.00
H1068  H     0.39545   0.45862   0.68600   0.00000  Uiso   1.00
H1069  H     0.60645   0.45112   0.91599   0.00000  Uiso   1.00
H1070  H     0.63583   0.46755   0.98980   0.00000  Uiso   1.00
H1071  H     0.46696   0.50281   0.59289   0.00000  Uiso   1.00
H1072  H     0.38312   0.51366   0.91249   0.00000  Uiso   1.00
N1073  N     0.38265   0.49999   0.74998   0.00000  Uiso   1.00
N1074  N     0.61735   0.50002   0.74999   0.00000  Uiso   1.00
O1075  O     0.46042   0.56011   0.75000   0.00000  Uiso   1.00
O1076  O     0.41134   0.65357   0.66130   0.00000  Uiso   1.00
O1077  O     0.45647   0.58360   0.65472   0.00000  Uiso   1.00
O1078  O     0.62589   0.60234   0.82008   0.00000  Uiso   1.00
O1079  O     0.54690   0.56956   0.83879   0.00000  Uiso   1.00
O1080  O     0.60481   0.54782   0.89018   0.00000  Uiso   1.00
O1081  O     0.63644   0.45316   0.67821   0.00000  Uiso   1.00
O1082  O     0.42106   0.54162   0.55940   0.00000  Uiso   1.00
O1083  O     0.53961   0.56012   0.75000   0.00000  Uiso   1.00
O1084  O     0.44108   0.49998   0.82549   0.00000  Uiso   1.00
O1085  O     0.52027   0.49999   0.82549   0.00000  Uiso   1.00
O1086  O     0.46039   0.43988   0.74999   0.00000  Uiso   1.00
O1087  O     0.53958   0.43989   0.74999   0.00000  Uiso   1.00
O1088  O     0.47973   0.50001   0.67451   0.00000  Uiso   1.00
O1089  O     0.55892   0.50002   0.67451   0.00000  Uiso   1.00
O1090  O     0.38338   0.60730   0.73395   0.00000  Uiso   1.00
S1091  S     0.42762   0.62283   0.69353   0.00000  Uiso   1.00
S1092  S     0.59990   0.56203   0.83253   0.00000  Uiso   1.00
C1093  C     0.83395   0.57924   0.74717   0.00000  Uiso   1.00
C1094  C     0.79115   0.49662   0.90684   0.00000  Uiso   1.00
C1095  C     0.86953   0.64551   0.76088   0.00000  Uiso   1.00
C1096  C     0.80719   0.49742   0.84977   0.00000  Uiso   1.00
C1097  C     0.86948   0.35468   0.76260   0.00000  Uiso   1.00
C1098  C     0.83424   0.37634   0.74736   0.00000  Uiso   1.00
C1099  C     0.80041   0.35549   0.72830   0.00000  Uiso   1.00
C1100  C     0.80085   0.64611   0.72482   0.00000  Uiso   1.00
C1101  C     0.83455   0.62401   0.74372   0.00000  Uiso   1.00
C1102  C     0.96680   0.52465   0.78508   0.00000  Uiso   1.00
C1103  C     0.68260   0.52314   0.78506   0.00000  Uiso   1.00
C1104  C     0.81213   0.50130   0.98855   0.00000  Uiso   1.00
C1105  C     0.70141   0.47647   0.71473   0.00000  Uiso   1.00
C1106  C     0.98457   0.47533   0.71537   0.00000  Uiso   1.00
C1107  C     0.83352   0.42081   0.74956   0.00000  Uiso   1.00
C1108  C     0.85942   0.49943   0.65010   0.00000  Uiso   1.00
C1109  C     0.93253   0.47776   0.51137   0.00000  Uiso   1.00
C1110  C     0.87392   0.49646   0.59339   0.00000  Uiso   1.00
C1111  C     0.74330   0.50936   0.93296   0.00000  Uiso   1.00
C1112  C     0.73054   0.52072   0.98485   0.00000  Uiso   1.00
C1113  C     0.76579   0.52148   0.51141   0.00000  Uiso   1.00
C1114  C     0.98782   0.41216   0.67120   0.00000  Uiso   1.00
C1115  C     0.82409   0.48821   0.93550   0.00000  Uiso   1.00
C1116  C     0.68844   0.40576   0.61615   0.00000  Uiso   1.00
C1117  C     0.74255   0.58371   0.55629   0.00000  Uiso   1.00
C1118  C     0.69135   0.59291   0.59249   0.00000  Uiso   1.00
C1119  C     0.84799   0.49492   0.51499   0.00000  Uiso   1.00
C1120  C     0.89555   0.48015   0.98714   0.00000  Uiso   1.00
C1121  C     0.90485   0.46532   0.93648   0.00000  Uiso   1.00
C1122  C     0.86876   0.46720   0.91213   0.00000  Uiso   1.00
C1123  C     0.83746   0.49980   0.56878   0.00000  Uiso   1.00
C1124  C     0.92203   0.48699   0.56414   0.00000  Uiso   1.00
Cu1125 Cu    0.78645   0.49999   0.75000   0.00000  Uiso   1.00
Cu1126 Cu    0.88022   0.50001   0.75000   0.00000  Uiso   1.00
H1127  H     0.95070   0.48411   0.58248   0.00000  Uiso   1.00
H1128  H     0.69402   0.53265   0.50333   0.00000  Uiso   1.00
H1129  H     0.87658   0.45181   0.87462   0.00000  Uiso   1.00
H1130  H     0.89670   0.62956   0.77376   0.00000  Uiso   1.00
H1131  H     0.76391   0.56325   0.65560   0.00000  Uiso   1.00
H1132  H     0.92397   0.57102   0.91453   0.00000  Uiso   1.00
H1133  H     0.95613   0.39135   0.67601   0.00000  Uiso   1.00
H1134  H     0.67306   0.40228   0.69987   0.00000  Uiso   1.00
H1135  H     0.72090   0.42586   0.60952   0.00000  Uiso   1.00
H1136  H     0.70089   0.37318   0.60975   0.00000  Uiso   1.00
H1137  H     0.66874   0.41322   0.58773   0.00000  Uiso   1.00
H1138  H     0.89643   0.37054   0.77672   0.00000  Uiso   1.00
H1139  H     0.74492   0.59410   0.51656   0.00000  Uiso   1.00
H1140  H     0.76910   0.60270   0.56921   0.00000  Uiso   1.00
H1141  H     0.68882   0.58418   0.63266   0.00000  Uiso   1.00
H1142  H     0.68307   0.62628   0.59241   0.00000  Uiso   1.00
H1143  H     0.99701   0.57535   0.57958   0.00000  Uiso   1.00
H1144  H     0.77429   0.37272   0.71491   0.00000  Uiso   1.00
H1145  H     0.69490   0.54170   0.81252   0.00000  Uiso   1.00
H1146  H     0.72879   0.45862   0.68600   0.00000  Uiso   1.00
H1147  H     0.93978   0.45112   0.91599   0.00000  Uiso   1.00
H1148  H     0.96917   0.46755   0.98980   0.00000  Uiso   1.00
H1149  H     0.80030   0.50281   0.59289   0.00000  Uiso   1.00
H1150  H     0.71646   0.51366   0.91249   0.00000  Uiso   1.00
N1151  N     0.71598   0.49999   0.74998   0.00000  Uiso   1.00
N1152  N     0.95069   0.50002   0.74999   0.00000  Uiso   1.00
O1153  O     0.79375   0.56011   0.75000   0.00000  Uiso   1.00
O1154  O     0.74468   0.65357   0.66130   0.00000  Uiso   1.00
O1155  O     0.78981   0.58360   0.65472   0.00000  Uiso   1.00
O1156  O     0.95922   0.60234   0.82008   0.00000  Uiso   1.00
O1157  O     0.88023   0.56956   0.83879   0.00000  Uiso   1.00
O1158  O     0.93815   0.54782   0.89018   0.00000  Uiso   1.00
O1159  O     0.96977   0.45316   0.67821   0.00000  Uiso   1.00
O1160  O     0.75439   0.54162   0.55940   0.00000  Uiso   1.00
O1161  O     0.87294   0.56012   0.75000   0.00000  Uiso   1.00
O1162  O     0.77441   0.49998   0.82549   0.00000  Uiso   1.00
O1163  O     0.85360   0.49999   0.82549   0.00000  Uiso   1.00
O1164  O     0.79373   0.43988   0.74999   0.00000  Uiso   1.00
O1165  O     0.87292   0.43989   0.74999   0.00000  Uiso   1.00
O1166  O     0.81306   0.50001   0.67451   0.00000  Uiso   1.00
O1167  O     0.89225   0.50002   0.67451   0.00000  Uiso   1.00
O1168  O     0.71671   0.60730   0.73395   0.00000  Uiso   1.00
S1169  S     0.76095   0.62283   0.69353   0.00000  Uiso   1.00
S1170  S     0.93323   0.56203   0.83253   0.00000  Uiso   1.00
C1171  C     0.16728   0.91257   0.74717   0.00000  Uiso   1.00
C1172  C     0.12448   0.82996   0.90684   0.00000  Uiso   1.00
C1173  C     0.20286   0.97884   0.76088   0.00000  Uiso   1.00
C1174  C     0.14053   0.83075   0.84977   0.00000  Uiso   1.00
C1175  C     0.20282   0.68801   0.76260   0.00000  Uiso   1.00
C1176  C     0.16757   0.70967   0.74736   0.00000  Uiso   1.00
C1177  C     0.13374   0.68883   0.72830   0.00000  Uiso   1.00
C1178  C     0.13418   0.97944   0.72482   0.00000  Uiso   1.00
C1179  C     0.16788   0.95734   0.74372   0.00000  Uiso   1.00
C1180  C     0.30013   0.85798   0.78508   0.00000  Uiso   1.00
C1181  C     0.01593   0.85647   0.78506   0.00000  Uiso   1.00
C1182  C     0.14546   0.83463   0.98855   0.00000  Uiso   1.00
C1183  C     0.03475   0.80980   0.71473   0.00000  Uiso   1.00
C1184  C     0.31791   0.80866   0.71537   0.00000  Uiso   1.00
C1185  C     0.16685   0.75414   0.74956   0.00000  Uiso   1.00
C1186  C     0.19275   0.83276   0.65010   0.00000  Uiso   1.00
C1187  C     0.26586   0.81109   0.51137   0.00000  Uiso   1.00
C1188  C     0.20725   0.82979   0.59339   0.00000  Uiso   1.00
C1189  C     0.07664   0.84270   0.93296   0.00000  Uiso   1.00
C1190  C     0.06387   0.85406   0.98485   0.00000  Uiso   1.00
C1191  C     0.09912   0.85481   0.51141   0.00000  Uiso   1.00
C1192  C     0.32115   0.74549   0.67120   0.00000  Uiso   1.00
C1193  C     0.15743   0.82154   0.93550   0.00000  Uiso   1.00
C1194  C     0.02177   0.73910   0.61615   0.00000  Uiso   1.00
C1195  C     0.07588   0.91704   0.55629   0.00000  Uiso   1.00
C1196  C     0.02468   0.92624   0.59249   0.00000  Uiso   1.00
C1197  C     0.18132   0.82825   0.51499   0.00000  Uiso   1.00
C1198  C     0.22889   0.81348   0.98714   0.00000  Uiso   1.00
C1199  C     0.23818   0.79865   0.93648   0.00000  Uiso   1.00
C1200  C     0.20209   0.80053   0.91213   0.00000  Uiso   1.00
C1201  C     0.17080   0.83314   0.56878   0.00000  Uiso   1.00
C1202  C     0.25537   0.82032   0.56414   0.00000  Uiso   1.00
Cu1203 Cu    0.11978   0.83333   0.75000   0.00000  Uiso   1.00
Cu1204 Cu    0.21355   0.83334   0.75000   0.00000  Uiso   1.00
H1205  H     0.28403   0.81744   0.58248   0.00000  Uiso   1.00
H1206  H     0.02735   0.86598   0.50333   0.00000  Uiso   1.00
H1207  H     0.20991   0.78515   0.87462   0.00000  Uiso   1.00
H1208  H     0.23003   0.96289   0.77376   0.00000  Uiso   1.00
H1209  H     0.09724   0.89658   0.65560   0.00000  Uiso   1.00
H1210  H     0.25730   0.90436   0.91453   0.00000  Uiso   1.00
H1211  H     0.28946   0.72469   0.67601   0.00000  Uiso   1.00
H1212  H     0.00640   0.73562   0.69987   0.00000  Uiso   1.00
H1213  H     0.05424   0.75919   0.60952   0.00000  Uiso   1.00
H1214  H     0.03422   0.70652   0.60975   0.00000  Uiso   1.00
H1215  H     0.00207   0.74655   0.58773   0.00000  Uiso   1.00
H1216  H     0.22976   0.70387   0.77672   0.00000  Uiso   1.00
H1217  H     0.07825   0.92743   0.51656   0.00000  Uiso   1.00
H1218  H     0.10243   0.93604   0.56921   0.00000  Uiso   1.00
H1219  H     0.02216   0.91752   0.63266   0.00000  Uiso   1.00
H1220  H     0.01640   0.95961   0.59241   0.00000  Uiso   1.00
H1221  H     0.33034   0.90868   0.57958   0.00000  Uiso   1.00
H1222  H     0.10763   0.70605   0.71491   0.00000  Uiso   1.00
H1223  H     0.02823   0.87504   0.81252   0.00000  Uiso   1.00
H1224  H     0.06212   0.79195   0.68600   0.00000  Uiso   1.00
H1225  H     0.27311   0.78445   0.91599   0.00000  Uiso   1.00
H1226  H     0.30250   0.80088   0.98980   0.00000  Uiso   1.00
H1227  H     0.13363   0.83614   0.59289   0.00000  Uiso   1.00
H1228  H     0.04979   0.84699   0.91249   0.00000  Uiso   1.00
N1229  N     0.04931   0.83332   0.74998   0.00000  Uiso   1.00
N1230  N     0.28402   0.83335   0.74999   0.00000  Uiso   1.00
O1231  O     0.12708   0.89345   0.75000   0.00000  Uiso   1.00
O1232  O     0.07801   0.98690   0.66130   0.00000  Uiso   1.00
O1233  O     0.12314   0.91693   0.65472   0.00000  Uiso   1.00
O1234  O     0.29255   0.93567   0.82008   0.00000  Uiso   1.00
O1235  O     0.21357   0.90289   0.83879   0.00000  Uiso   1.00
O1236  O     0.27148   0.88116   0.89018   0.00000  Uiso   1.00
O1237  O     0.30311   0.78649   0.67821   0.00000  Uiso   1.00
O1238  O     0.08773   0.87496   0.55940   0.00000  Uiso   1.00
O1239  O     0.20627   0.89346   0.75000   0.00000  Uiso   1.00
O1240  O     0.10775   0.83332   0.82549   0.00000  Uiso   1.00
O1241  O     0.18694   0.83333   0.82549   0.00000  Uiso   1.00
O1242  O     0.12706   0.77321   0.74999   0.00000  Uiso   1.00
O1243  O     0.20625   0.77322   0.74999   0.00000  Uiso   1.00
O1244  O     0.14640   0.83334   0.67451   0.00000  Uiso   1.00
O1245  O     0.22559   0.83335   0.67451   0.00000  Uiso   1.00
O1246  O     0.05005   0.94064   0.73395   0.00000  Uiso   1.00
S1247  S     0.09428   0.95617   0.69353   0.00000  Uiso   1.00
S1248  S     0.26657   0.89536   0.83253   0.00000  Uiso   1.00
C1249  C     0.50061   0.91257   0.74717   0.00000  Uiso   1.00
C1250  C     0.45782   0.82996   0.90684   0.00000  Uiso   1.00
C1251  C     0.53619   0.97884   0.76088   0.00000  Uiso   1.00
C1252  C     0.47386   0.83075   0.84977   0.00000  Uiso   1.00
C1253  C     0.53615   0.68801   0.76260   0.00000  Uiso   1.00
C1254  C     0.50091   0.70967   0.74736   0.00000  Uiso   1.00
C1255  C     0.46707   0.68883   0.72830   0.00000  Uiso   1.00
C1256  C     0.46751   0.97944   0.72482   0.00000  Uiso   1.00
C1257  C     0.50122   0.95734   0.74372   0.00000  Uiso   1.00
C1258  C     0.63347   0.85798   0.78508   0.00000  Uiso   1.00
C1259  C     0.34926   0.85647   0.78506   0.00000  Uiso   1.00
C1260  C     0.47879   0.83463   0.98855   0.00000  Uiso   1.00
C1261  C     0.36808   0.80980   0.71473   0.00000  Uiso   1.00
C1262  C     0.65124   0.80866   0.71537   0.00000  Uiso   1.00
C1263  C     0.50018   0.75414   0.74956   0.00000  Uiso   1.00
C1264  C     0.52608   0.83276   0.65010   0.00000  Uiso   1.00
C1265  C     0.59919   0.81109   0.51137   0.00000  Uiso   1.00
C1266  C     0.54058   0.82979   0.59339   0.00000  Uiso   1.00
C1267  C     0.40997   0.84270   0.93296   0.00000  Uiso   1.00
C1268  C     0.39720   0.85406   0.98485   0.00000  Uiso   1.00
C1269  C     0.43246   0.85481   0.51141   0.00000  Uiso   1.00
C1270  C     0.65448   0.74549   0.67120   0.00000  Uiso   1.00
C1271  C     0.49076   0.82154   0.93550   0.00000  Uiso   1.00
C1272  C     0.35510   0.73910   0.61615   0.00000  Uiso   1.00
C1273  C     0.40921   0.91704   0.55629   0.00000  Uiso   1.00
C1274  C     0.35801   0.92624   0.59249   0.00000  Uiso   1.00
C1275  C     0.51465   0.82825   0.51499   0.00000  Uiso   1.00
C1276  C     0.56222   0.81348   0.98714   0.00000  Uiso   1.00
C1277  C     0.57151   0.79865   0.93648   0.00000  Uiso   1.00
C1278  C     0.53543   0.80053   0.91213   0.00000  Uiso   1.00
C1279  C     0.50413   0.83314   0.56878   0.00000  Uiso   1.00
C1280  C     0.58870   0.82032   0.56414   0.00000  Uiso   1.00
Cu1281 Cu    0.45311   0.83333   0.75000   0.00000  Uiso   1.00
Cu1282 Cu    0.54689   0.83334   0.75000   0.00000  Uiso   1.00
H1283  H     0.61737   0.81744   0.58248   0.00000  Uiso   1.00
H1284  H     0.36069   0.86598   0.50333   0.00000  Uiso   1.00
H1285  H     0.54324   0.78515   0.87462   0.00000  Uiso   1.00
H1286  H     0.56337   0.96289   0.77376   0.00000  Uiso   1.00
H1287  H     0.43057   0.89658   0.65560   0.00000  Uiso   1.00
H1288  H     0.59063   0.90436   0.91453   0.00000  Uiso   1.00
H1289  H     0.62280   0.72469   0.67601   0.00000  Uiso   1.00
H1290  H     0.33973   0.73562   0.69987   0.00000  Uiso   1.00
H1291  H     0.38757   0.75919   0.60952   0.00000  Uiso   1.00
H1292  H     0.36755   0.70652   0.60975   0.00000  Uiso   1.00
H1293  H     0.33540   0.74655   0.58773   0.00000  Uiso   1.00
H1294  H     0.56310   0.70387   0.77672   0.00000  Uiso   1.00
H1295  H     0.41158   0.92743   0.51656   0.00000  Uiso   1.00
H1296  H     0.43577   0.93604   0.56921   0.00000  Uiso   1.00
H1297  H     0.35549   0.91752   0.63266   0.00000  Uiso   1.00
H1298  H     0.34974   0.95961   0.59241   0.00000  Uiso   1.00
H1299  H     0.66368   0.90868   0.57958   0.00000  Uiso   1.00
H1300  H     0.44096   0.70605   0.71491   0.00000  Uiso   1.00
H1301  H     0.36156   0.87504   0.81252   0.00000  Uiso   1.00
H1302  H     0.39545   0.79195   0.68600   0.00000  Uiso   1.00
H1303  H     0.60645   0.78445   0.91599   0.00000  Uiso   1.00
H1304  H     0.63583   0.80088   0.98980   0.00000  Uiso   1.00
H1305  H     0.46696   0.83614   0.59289   0.00000  Uiso   1.00
H1306  H     0.38312   0.84699   0.91249   0.00000  Uiso   1.00
N1307  N     0.38265   0.83332   0.74998   0.00000  Uiso   1.00
N1308  N     0.61735   0.83335   0.74999   0.00000  Uiso   1.00
O1309  O     0.46042   0.89345   0.75000   0.00000  Uiso   1.00
O1310  O     0.41134   0.98690   0.66130   0.00000  Uiso   1.00
O1311  O     0.45647   0.91693   0.65472   0.00000  Uiso   1.00
O1312  O     0.62589   0.93567   0.82008   0.00000  Uiso   1.00
O1313  O     0.54690   0.90289   0.83879   0.00000  Uiso   1.00
O1314  O     0.60481   0.88116   0.89018   0.00000  Uiso   1.00
O1315  O     0.63644   0.78649   0.67821   0.00000  Uiso   1.00
O1316  O     0.42106   0.87496   0.55940   0.00000  Uiso   1.00
O1317  O     0.53961   0.89346   0.75000   0.00000  Uiso   1.00
O1318  O     0.44108   0.83332   0.82549   0.00000  Uiso   1.00
O1319  O     0.52027   0.83333   0.82549   0.00000  Uiso   1.00
O1320  O     0.46039   0.77321   0.74999   0.00000  Uiso   1.00
O1321  O     0.53958   0.77322   0.74999   0.00000  Uiso   1.00
O1322  O     0.47973   0.83334   0.67451   0.00000  Uiso   1.00
O1323  O     0.55892   0.83335   0.67451   0.00000  Uiso   1.00
O1324  O     0.38338   0.94064   0.73395   0.00000  Uiso   1.00
S1325  S     0.42762   0.95617   0.69353   0.00000  Uiso   1.00
S1326  S     0.59990   0.89536   0.83253   0.00000  Uiso   1.00
C1327  C     0.83395   0.91257   0.74717   0.00000  Uiso   1.00
C1328  C     0.79115   0.82996   0.90684   0.00000  Uiso   1.00
C1329  C     0.86953   0.97884   0.76088   0.00000  Uiso   1.00
C1330  C     0.80719   0.83075   0.84977   0.00000  Uiso   1.00
C1331  C     0.86948   0.68801   0.76260   0.00000  Uiso   1.00
C1332  C     0.83424   0.70967   0.74736   0.00000  Uiso   1.00
C1333  C     0.80041   0.68883   0.72830   0.00000  Uiso   1.00
C1334  C     0.80085   0.97944   0.72482   0.00000  Uiso   1.00
C1335  C     0.83455   0.95734   0.74372   0.00000  Uiso   1.00
C1336  C     0.96680   0.85798   0.78508   0.00000  Uiso   1.00
C1337  C     0.68260   0.85647   0.78506   0.00000  Uiso   1.00
C1338  C     0.81213   0.83463   0.98855   0.00000  Uiso   1.00
C1339  C     0.70141   0.80980   0.71473   0.00000  Uiso   1.00
C1340  C     0.98457   0.80866   0.71537   0.00000  Uiso   1.00
C1341  C     0.83352   0.75414   0.74956   0.00000  Uiso   1.00
C1342  C     0.85942   0.83276   0.65010   0.00000  Uiso   1.00
C1343  C     0.93253   0.81109   0.51137   0.00000  Uiso   1.00
C1344  C     0.87392   0.82979   0.59339   0.00000  Uiso   1.00
C1345  C     0.74330   0.84270   0.93296   0.00000  Uiso   1.00
C1346  C     0.73054   0.85406   0.98485   0.00000  Uiso   1.00
C1347  C     0.76579   0.85481   0.51141   0.00000  Uiso   1.00
C1348  C     0.98782   0.74549   0.67120   0.00000  Uiso   1.00
C1349  C     0.82409   0.82154   0.93550   0.00000  Uiso   1.00
C1350  C     0.68844   0.73910   0.61615   0.00000  Uiso   1.00
C1351  C     0.74255   0.91704   0.55629   0.00000  Uiso   1.00
C1352  C     0.69135   0.92624   0.59249   0.00000  Uiso   1.00
C1353  C     0.84799   0.82825   0.51499   0.00000  Uiso   1.00
C1354  C     0.89555   0.81348   0.98714   0.00000  Uiso   1.00
C1355  C     0.90485   0.79865   0.93648   0.00000  Uiso   1.00
C1356  C     0.86876   0.80053   0.91213   0.00000  Uiso   1.00
C1357  C     0.83746   0.83314   0.56878   0.00000  Uiso   1.00
C1358  C     0.92203   0.82032   0.56414   0.00000  Uiso   1.00
Cu1359 Cu    0.78645   0.83333   0.75000   0.00000  Uiso   1.00
Cu1360 Cu    0.88022   0.83334   0.75000   0.00000  Uiso   1.00
H1361  H     0.95070   0.81744   0.58248   0.00000  Uiso   1.00
H1362  H     0.69402   0.86598   0.50333   0.00000  Uiso   1.00
H1363  H     0.87658   0.78515   0.87462   0.00000  Uiso   1.00
H1364  H     0.89670   0.96289   0.77376   0.00000  Uiso   1.00
H1365  H     0.76391   0.89658   0.65560   0.00000  Uiso   1.00
H1366  H     0.92397   0.90436   0.91453   0.00000  Uiso   1.00
H1367  H     0.95613   0.72469   0.67601   0.00000  Uiso   1.00
H1368  H     0.67306   0.73562   0.69987   0.00000  Uiso   1.00
H1369  H     0.72090   0.75919   0.60952   0.00000  Uiso   1.00
H1370  H     0.70089   0.70652   0.60975   0.00000  Uiso   1.00
H1371  H     0.66874   0.74655   0.58773   0.00000  Uiso   1.00
H1372  H     0.89643   0.70387   0.77672   0.00000  Uiso   1.00
H1373  H     0.74492   0.92743   0.51656   0.00000  Uiso   1.00
H1374  H     0.76910   0.93604   0.56921   0.00000  Uiso   1.00
H1375  H     0.68882   0.91752   0.63266   0.00000  Uiso   1.00
H1376  H     0.68307   0.95961   0.59241   0.00000  Uiso   1.00
H1377  H     0.99701   0.90868   0.57958   0.00000  Uiso   1.00
H1378  H     0.77429   0.70605   0.71491   0.00000  Uiso   1.00
H1379  H     0.69490   0.87504   0.81252   0.00000  Uiso   1.00
H1380  H     0.72879   0.79195   0.68600   0.00000  Uiso   1.00
H1381  H     0.93978   0.78445   0.91599   0.00000  Uiso   1.00
H1382  H     0.96917   0.80088   0.98980   0.00000  Uiso   1.00
H1383  H     0.80030   0.83614   0.59289   0.00000  Uiso   1.00
H1384  H     0.71646   0.84699   0.91249   0.00000  Uiso   1.00
N1385  N     0.71598   0.83332   0.74998   0.00000  Uiso   1.00
N1386  N     0.95069   0.83335   0.74999   0.00000  Uiso   1.00
O1387  O     0.79375   0.89345   0.75000   0.00000  Uiso   1.00
O1388  O     0.74468   0.98690   0.66130   0.00000  Uiso   1.00
O1389  O     0.78981   0.91693   0.65472   0.00000  Uiso   1.00
O1390  O     0.95922   0.93567   0.82008   0.00000  Uiso   1.00
O1391  O     0.88023   0.90289   0.83879   0.00000  Uiso   1.00
O1392  O     0.93815   0.88116   0.89018   0.00000  Uiso   1.00
O1393  O     0.96977   0.78649   0.67821   0.00000  Uiso   1.00
O1394  O     0.75439   0.87496   0.55940   0.00000  Uiso   1.00
O1395  O     0.87294   0.89346   0.75000   0.00000  Uiso   1.00
O1396  O     0.77441   0.83332   0.82549   0.00000  Uiso   1.00
O1397  O     0.85360   0.83333   0.82549   0.00000  Uiso   1.00
O1398  O     0.79373   0.77321   0.74999   0.00000  Uiso   1.00
O1399  O     0.87292   0.77322   0.74999   0.00000  Uiso   1.00
O1400  O     0.81306   0.83334   0.67451   0.00000  Uiso   1.00
O1401  O     0.89225   0.83335   0.67451   0.00000  Uiso   1.00
O1402  O     0.71671   0.94064   0.73395   0.00000  Uiso   1.00
S1403  S     0.76095   0.95617   0.69353   0.00000  Uiso   1.00
S1404  S     0.93323   0.89536   0.83253   0.00000  Uiso   1.00
loop_
_geom_bond_atom_site_label_1
_geom_bond_atom_site_label_2
_geom_bond_distance
_geom_bond_site_symmetry_2
_ccdc_geom_bond_type
C1     C9      1.460   .     S
C1     O69     1.300   .     A
C1     O61     1.292   .     A
C2     C4      1.473   .     S
C2     C23     1.418   .     A
C2     C19     1.398   .     A
C3     H38     1.079   .     S
C3     C9      1.403   .     A
C3     C239    1.381   .     S
C4     O70     1.299   .     A
C4     O71     1.299   .     A
C5     C6      1.394   .     A
C5     H46     1.084   .     S
C5     C471    1.381   1_545 S
C6     C15     1.445   .     S
C6     C7      1.395   .     A
C7     H52     1.083   .     S
C7     C476    1.389   1_545 S
C8     C9      1.421   .     A
C8     S77     1.772   .     S
C8     C241    1.389   .     S
C10    N60     1.406   .     A
C10    S78     1.797   .     S
C10    C89     1.407   .     S
C11    H53     1.083   .     S
C11    N59     1.342   .     A
C11    C166    1.407   1_455 S
C12    C23     1.425   .     A
C12    C723    1.435   .     S
C12    C729    1.433   .     S
C13    H54     1.080   .     S
C13    N59     1.367   .     A
C13    C170    1.432   1_455 S
C14    O67     1.388   .     S
C14    N60     1.371   .     A
C14    C91     1.432   .     S
C15    O72     1.293   .     A
C15    O73     1.291   .     A
C16    O75     1.300   .     A
C16    O74     1.294   .     A
C16    C18     1.464   .     S
C17    C32     1.391   .     A
C17    C730    1.404   1_554 S
C17    H758    1.084   1_554 S
C18    C32     1.398   .     A
C18    C31     1.401   .     A
C19    C20     1.380   .     A
C19    H58     1.084   .     S
C20    C723    1.402   .     S
C20    H738    1.082   .     S
C21    O68     1.386   .     S
C21    C714    1.435   1_554 S
C21    C722    1.402   1_554 S
C22    H41     1.111   .     S
C22    O67     1.416   .     S
C22    C102    1.524   .     S
C22    H120    1.115   .     S
C23    C30     1.412   .     A
C24    H45     1.111   .     S
C24    H44     1.110   .     S
C24    H43     1.110   .     S
C24    C178    1.524   1_455 S
C25    H47     1.116   .     S
C25    O68     1.420   .     S
C25    C26     1.524   .     S
C25    H48     1.109   .     S
C26    H50     1.110   .     S
C26    H49     1.110   .     S
C26    H207    1.110   1_455 S
C27    C31     1.398   .     A
C27    C714    1.433   1_554 S
C27    C730    1.421   1_554 S
C28    C29     1.388   .     A
C28    C719    1.404   .     S
C28    C729    1.421   .     S
C29    H55     1.084   .     S
C29    C30     1.383   .     A
C30    H37     1.080   .     S
C31    H57     1.072   .     S
C32    H35     1.083   .     S
Cu33   O72     1.965   .     S
Cu33   N59     2.018   .     S
Cu33   Cu34    2.685   .     S
Cu33   O70     1.965   .     S
Cu33   O74     1.953   .     S
Cu33   O61     1.966   .     S
Cu34   O75     1.965   .     S
Cu34   N60     2.018   .     S
Cu34   O69     1.965   .     S
Cu34   O73     1.966   .     S
Cu34   O71     1.953   .     S
H36    C722    1.082   1_554 S
H39    O63     0.990   .     S
H40    O66     0.991   .     S
H42    C178    1.115   1_455 S
H51    C104    1.110   .     S
H56    C719    1.084   .     S
O62    S77     1.503   .     D
O63    S77     1.680   .     S
O64    S78     1.503   .     D
O65    S78     1.495   .     D
O66    S78     1.681   .     S
O76    S77     1.502   .     D
C79    C87     1.460   .     S
C79    O147    1.300   .     A
C79    O139    1.292   .     A
C80    C82     1.473   .     S
C80    C101    1.418   .     A
C80    C97     1.398   .     A
C81    H116    1.079   .     S
C81    C87     1.403   .     A
C81    C317    1.381   .     S
C82    O148    1.299   .     A
C82    O149    1.299   .     A
C83    C84     1.394   .     A
C83    H124    1.084   .     S
C83    C549    1.381   1_545 S
C84    C93     1.445   .     S
C84    C85     1.395   .     A
C85    H130    1.083   .     S
C85    C554    1.389   1_545 S
C86    C87     1.421   .     A
C86    S155    1.772   .     S
C86    C319    1.389   .     S
C88    N138    1.406   .     A
C88    S156    1.797   .     S
C88    C167    1.407   .     S
C89    H131    1.083   .     S
C89    N137    1.342   .     A
C90    C101    1.425   .     A
C90    C801    1.435   .     S
C90    C807    1.433   .     S
C91    H132    1.080   .     S
C91    N137    1.367   .     A
C92    O145    1.388   .     S
C92    N138    1.371   .     A
C92    C169    1.432   .     S
C93    O150    1.293   .     A
C93    O151    1.291   .     A
C94    O153    1.300   .     A
C94    O152    1.294   .     A
C94    C96     1.464   .     S
C95    C110    1.391   .     A
C95    C808    1.404   1_554 S
C95    H836    1.084   1_554 S
C96    C110    1.398   .     A
C96    C109    1.401   .     A
C97    C98     1.380   .     A
C97    H136    1.084   .     S
C98    C801    1.402   .     S
C98    H816    1.082   .     S
C99    O146    1.386   .     S
C99    C792    1.435   1_554 S
C99    C800    1.402   1_554 S
C100   H119    1.111   .     S
C100   O145    1.416   .     S
C100   C180    1.524   .     S
C100   H198    1.115   .     S
C101   C108    1.412   .     A
C102   H123    1.111   .     S
C102   H122    1.110   .     S
C102   H121    1.110   .     S
C103   H125    1.116   .     S
C103   O146    1.420   .     S
C103   C104    1.524   .     S
C103   H126    1.109   .     S
C104   H128    1.110   .     S
C104   H127    1.110   .     S
C105   C109    1.398   .     A
C105   C792    1.433   1_554 S
C105   C808    1.421   1_554 S
C106   C107    1.388   .     A
C106   C797    1.404   .     S
C106   C807    1.421   .     S
C107   H133    1.084   .     S
C107   C108    1.383   .     A
C108   H115    1.080   .     S
C109   H135    1.072   .     S
C110   H113    1.083   .     S
Cu111  O150    1.965   .     S
Cu111  N137    2.018   .     S
Cu111  Cu112   2.685   .     S
Cu111  O148    1.965   .     S
Cu111  O152    1.953   .     S
Cu111  O139    1.966   .     S
Cu112  O153    1.965   .     S
Cu112  N138    2.018   .     S
Cu112  O147    1.965   .     S
Cu112  O151    1.966   .     S
Cu112  O149    1.953   .     S
H114   C800    1.082   1_554 S
H117   O141    0.990   .     S
H118   O144    0.991   .     S
H129   C182    1.110   .     S
H134   C797    1.084   .     S
O140   S155    1.503   .     D
O141   S155    1.680   .     S
O142   S156    1.503   .     D
O143   S156    1.495   .     D
O144   S156    1.681   .     S
O154   S155    1.502   .     D
C157   C165    1.460   .     S
C157   O225    1.300   .     A
C157   O217    1.292   .     A
C158   C160    1.473   .     S
C158   C179    1.418   .     A
C158   C175    1.398   .     A
C159   H194    1.079   .     S
C159   C165    1.403   .     A
C159   C395    1.381   .     S
C160   O226    1.299   .     A
C160   O227    1.299   .     A
C161   C162    1.394   .     A
C161   H202    1.084   .     S
C161   C627    1.381   1_545 S
C162   C171    1.445   .     S
C162   C163    1.395   .     A
C163   H208    1.083   .     S
C163   C632    1.389   1_545 S
C164   C165    1.421   .     A
C164   S233    1.772   .     S
C164   C397    1.389   .     S
C166   N216    1.406   .     A
C166   S234    1.797   .     S
C166   C11     1.407   1_655 S
C167   H209    1.083   .     S
C167   N215    1.342   .     A
C168   C179    1.425   .     A
C168   C879    1.435   .     S
C168   C885    1.433   .     S
C169   H210    1.080   .     S
C169   N215    1.367   .     A
C170   O223    1.388   .     S
C170   N216    1.371   .     A
C170   C13     1.432   1_655 S
C171   O228    1.293   .     A
C171   O229    1.291   .     A
C172   O231    1.300   .     A
C172   O230    1.294   .     A
C172   C174    1.464   .     S
C173   C188    1.391   .     A
C173   C886    1.404   1_554 S
C173   H914    1.084   1_554 S
C174   C188    1.398   .     A
C174   C187    1.401   .     A
C175   C176    1.380   .     A
C175   H214    1.084   .     S
C176   C879    1.402   .     S
C176   H894    1.082   .     S
C177   O224    1.386   .     S
C177   C870    1.435   1_554 S
C177   C878    1.402   1_554 S
C178   H197    1.111   .     S
C178   O223    1.416   .     S
C178   C24     1.524   1_655 S
C178   H42     1.115   1_655 S
C179   C186    1.412   .     A
C180   H201    1.111   .     S
C180   H200    1.110   .     S
C180   H199    1.110   .     S
C181   H203    1.116   .     S
C181   O224    1.420   .     S
C181   C182    1.524   .     S
C181   H204    1.109   .     S
C182   H206    1.110   .     S
C182   H205    1.110   .     S
C183   C187    1.398   .     A
C183   C870    1.433   1_554 S
C183   C886    1.421   1_554 S
C184   C185    1.388   .     A
C184   C875    1.404   .     S
C184   C885    1.421   .     S
C185   H211    1.084   .     S
C185   C186    1.383   .     A
C186   H193    1.080   .     S
C187   H213    1.072   .     S
C188   H191    1.083   .     S
Cu189  O228    1.965   .     S
Cu189  N215    2.018   .     S
Cu189  Cu190   2.685   .     S
Cu189  O226    1.965   .     S
Cu189  O230    1.953   .     S
Cu189  O217    1.966   .     S
Cu190  O231    1.965   .     S
Cu190  N216    2.018   .     S
Cu190  O225    1.965   .     S
Cu190  O229    1.966   .     S
Cu190  O227    1.953   .     S
H192   C878    1.082   1_554 S
H195   O219    0.990   .     S
H196   O222    0.991   .     S
H207   C26     1.110   1_655 S
H212   C875    1.084   .     S
O218   S233    1.503   .     D
O219   S233    1.680   .     S
O220   S234    1.503   .     D
O221   S234    1.495   .     D
O222   S234    1.681   .     S
O232   S233    1.502   .     D
C235   C243    1.460   .     S
C235   O303    1.300   .     A
C235   O295    1.292   .     A
C236   C238    1.473   .     S
C236   C257    1.418   .     A
C236   C253    1.398   .     A
C237   H272    1.079   .     S
C237   C243    1.403   .     A
C237   C473    1.381   .     S
C238   O304    1.299   .     A
C238   O305    1.299   .     A
C239   C240    1.394   .     A
C239   H280    1.084   .     S
C240   C249    1.445   .     S
C240   C241    1.395   .     A
C241   H286    1.083   .     S
C242   C243    1.421   .     A
C242   S311    1.772   .     S
C242   C475    1.389   .     S
C244   N294    1.406   .     A
C244   S312    1.797   .     S
C244   C323    1.407   .     S
C245   H287    1.083   .     S
C245   N293    1.342   .     A
C245   C400    1.407   1_455 S
C246   C257    1.425   .     A
C246   C957    1.435   .     S
C246   C963    1.433   .     S
C247   H288    1.080   .     S
C247   N293    1.367   .     A
C247   C404    1.432   1_455 S
C248   O301    1.388   .     S
C248   N294    1.371   .     A
C248   C325    1.432   .     S
C249   O306    1.293   .     A
C249   O307    1.291   .     A
C250   O309    1.300   .     A
C250   O308    1.294   .     A
C250   C252    1.464   .     S
C251   C266    1.391   .     A
C251   C964    1.404   1_554 S
C251   H992    1.084   1_554 S
C252   C266    1.398   .     A
C252   C265    1.401   .     A
C253   C254    1.380   .     A
C253   H292    1.084   .     S
C254   C957    1.402   .     S
C254   H972    1.082   .     S
C255   O302    1.386   .     S
C255   C948    1.435   1_554 S
C255   C956    1.402   1_554 S
C256   H275    1.111   .     S
C256   O301    1.416   .     S
C256   C336    1.524   .     S
C256   H354    1.115   .     S
C257   C264    1.412   .     A
C258   H279    1.111   .     S
C258   H278    1.110   .     S
C258   H277    1.110   .     S
C258   C412    1.524   1_455 S
C259   H281    1.116   .     S
C259   O302    1.420   .     S
C259   C260    1.524   .     S
C259   H282    1.109   .     S
C260   H284    1.110   .     S
C260   H283    1.110   .     S
C260   H441    1.110   1_455 S
C261   C265    1.398   .     A
C261   C948    1.433   1_554 S
C261   C964    1.421   1_554 S
C262   C263    1.388   .     A
C262   C953    1.404   .     S
C262   C963    1.421   .     S
C263   H289    1.084   .     S
C263   C264    1.383   .     A
C264   H271    1.080   .     S
C265   H291    1.072   .     S
C266   H269    1.083   .     S
Cu267  O306    1.965   .     S
Cu267  N293    2.018   .     S
Cu267  Cu268   2.685   .     S
Cu267  O304    1.965   .     S
Cu267  O308    1.953   .     S
Cu267  O295    1.966   .     S
Cu268  O309    1.965   .     S
Cu268  N294    2.018   .     S
Cu268  O303    1.965   .     S
Cu268  O307    1.966   .     S
Cu268  O305    1.953   .     S
H270   C956    1.082   1_554 S
H273   O297    0.990   .     S
H274   O300    0.991   .     S
H276   C412    1.115   1_455 S
H285   C338    1.110   .     S
H290   C953    1.084   .     S
O296   S311    1.503   .     D
O297   S311    1.680   .     S
O298   S312    1.503   .     D
O299   S312    1.495   .     D
O300   S312    1.681   .     S
O310   S311    1.502   .     D
C313   C321    1.460   .     S
C313   O381    1.300   .     A
C313   O373    1.292   .     A
C314   C316    1.473   .     S
C314   C335    1.418   .     A
C314   C331    1.398   .     A
C315   H350    1.079   .     S
C315   C321    1.403   .     A
C315   C551    1.381   .     S
C316   O382    1.299   .     A
C316   O383    1.299   .     A
C317   C318    1.394   .     A
C317   H358    1.084   .     S
C318   C327    1.445   .     S
C318   C319    1.395   .     A
C319   H364    1.083   .     S
C320   C321    1.421   .     A
C320   S389    1.772   .     S
C320   C553    1.389   .     S
C322   N372    1.406   .     A
C322   S390    1.797   .     S
C322   C401    1.407   .     S
C323   H365    1.083   .     S
C323   N371    1.342   .     A
C324   C335    1.425   .     A
C324   C1035   1.435   .     S
C324   C1041   1.433   .     S
C325   H366    1.080   .     S
C325   N371    1.367   .     A
C326   O379    1.388   .     S
C326   N372    1.371   .     A
C326   C403    1.432   .     S
C327   O384    1.293   .     A
C327   O385    1.291   .     A
C328   O387    1.300   .     A
C328   O386    1.294   .     A
C328   C330    1.464   .     S
C329   C344    1.391   .     A
C329   C1042   1.404   1_554 S
C329   H1070   1.084   1_554 S
C330   C344    1.398   .     A
C330   C343    1.401   .     A
C331   C332    1.380   .     A
C331   H370    1.084   .     S
C332   C1035   1.402   .     S
C332   H1050   1.082   .     S
C333   O380    1.386   .     S
C333   C1026   1.435   1_554 S
C333   C1034   1.402   1_554 S
C334   H353    1.111   .     S
C334   O379    1.416   .     S
C334   C414    1.524   .     S
C334   H432    1.115   .     S
C335   C342    1.412   .     A
C336   H357    1.111   .     S
C336   H356    1.110   .     S
C336   H355    1.110   .     S
C337   H359    1.116   .     S
C337   O380    1.420   .     S
C337   C338    1.524   .     S
C337   H360    1.109   .     S
C338   H362    1.110   .     S
C338   H361    1.110   .     S
C339   C343    1.398   .     A
C339   C1026   1.433   1_554 S
C339   C1042   1.421   1_554 S
C340   C341    1.388   .     A
C340   C1031   1.404   .     S
C340   C1041   1.421   .     S
C341   H367    1.084   .     S
C341   C342    1.383   .     A
C342   H349    1.080   .     S
C343   H369    1.072   .     S
C344   H347    1.083   .     S
Cu345  O384    1.965   .     S
Cu345  N371    2.018   .     S
Cu345  Cu346   2.685   .     S
Cu345  O382    1.965   .     S
Cu345  O386    1.953   .     S
Cu345  O373    1.966   .     S
Cu346  O387    1.965   .     S
Cu346  N372    2.018   .     S
Cu346  O381    1.965   .     S
Cu346  O385    1.966   .     S
Cu346  O383    1.953   .     S
H348   C1034   1.082   1_554 S
H351   O375    0.990   .     S
H352   O378    0.991   .     S
H363   C416    1.110   .     S
H368   C1031   1.084   .     S
O374   S389    1.503   .     D
O375   S389    1.680   .     S
O376   S390    1.503   .     D
O377   S390    1.495   .     D
O378   S390    1.681   .     S
O388   S389    1.502   .     D
C391   C399    1.460   .     S
C391   O459    1.300   .     A
C391   O451    1.292   .     A
C392   C394    1.473   .     S
C392   C413    1.418   .     A
C392   C409    1.398   .     A
C393   H428    1.079   .     S
C393   C399    1.403   .     A
C393   C629    1.381   .     S
C394   O460    1.299   .     A
C394   O461    1.299   .     A
C395   C396    1.394   .     A
C395   H436    1.084   .     S
C396   C405    1.445   .     S
C396   C397    1.395   .     A
C397   H442    1.083   .     S
C398   C399    1.421   .     A
C398   S467    1.772   .     S
C398   C631    1.389   .     S
C400   N450    1.406   .     A
C400   S468    1.797   .     S
C400   C245    1.407   1_655 S
C401   H443    1.083   .     S
C401   N449    1.342   .     A
C402   C413    1.425   .     A
C402   C1113   1.435   .     S
C402   C1119   1.433   .     S
C403   H444    1.080   .     S
C403   N449    1.367   .     A
C404   O457    1.388   .     S
C404   N450    1.371   .     A
C404   C247    1.432   1_655 S
C405   O462    1.293   .     A
C405   O463    1.291   .     A
C406   O465    1.300   .     A
C406   O464    1.294   .     A
C406   C408    1.464   .     S
C407   C422    1.391   .     A
C407   C1120   1.404   1_554 S
C407   H1148   1.084   1_554 S
C408   C422    1.398   .     A
C408   C421    1.401   .     A
C409   C410    1.380   .     A
C409   H448    1.084   .     S
C410   C1113   1.402   .     S
C410   H1128   1.082   .     S
C411   O458    1.386   .     S
C411   C1104   1.435   1_554 S
C411   C1112   1.402   1_554 S
C412   H431    1.111   .     S
C412   O457    1.416   .     S
C412   C258    1.524   1_655 S
C412   H276    1.115   1_655 S
C413   C420    1.412   .     A
C414   H435    1.111   .     S
C414   H434    1.110   .     S
C414   H433    1.110   .     S
C415   H437    1.116   .     S
C415   O458    1.420   .     S
C415   C416    1.524   .     S
C415   H438    1.109   .     S
C416   H440    1.110   .     S
C416   H439    1.110   .     S
C417   C421    1.398   .     A
C417   C1104   1.433   1_554 S
C417   C1120   1.421   1_554 S
C418   C419    1.388   .     A
C418   C1109   1.404   .     S
C418   C1119   1.421   .     S
C419   H445    1.084   .     S
C419   C420    1.383   .     A
C420   H427    1.080   .     S
C421   H447    1.072   .     S
C422   H425    1.083   .     S
Cu423  O462    1.965   .     S
Cu423  N449    2.018   .     S
Cu423  Cu424   2.685   .     S
Cu423  O460    1.965   .     S
Cu423  O464    1.953   .     S
Cu423  O451    1.966   .     S
Cu424  O465    1.965   .     S
Cu424  N450    2.018   .     S
Cu424  O459    1.965   .     S
Cu424  O463    1.966   .     S
Cu424  O461    1.953   .     S
H426   C1112   1.082   1_554 S
H429   O453    0.990   .     S
H430   O456    0.991   .     S
H441   C260    1.110   1_655 S
H446   C1109   1.084   .     S
O452   S467    1.503   .     D
O453   S467    1.680   .     S
O454   S468    1.503   .     D
O455   S468    1.495   .     D
O456   S468    1.681   .     S
O466   S467    1.502   .     D
C469   C477    1.460   .     S
C469   O537    1.300   .     A
C469   O529    1.292   .     A
C470   C472    1.473   .     S
C470   C491    1.418   .     A
C470   C487    1.398   .     A
C471   H506    1.079   .     S
C471   C477    1.403   .     A
C471   C5      1.381   1_565 S
C472   O538    1.299   .     A
C472   O539    1.299   .     A
C473   C474    1.394   .     A
C473   H514    1.084   .     S
C474   C483    1.445   .     S
C474   C475    1.395   .     A
C475   H520    1.083   .     S
C476   C477    1.421   .     A
C476   S545    1.772   .     S
C476   C7      1.389   1_565 S
C478   N528    1.406   .     A
C478   S546    1.797   .     S
C478   C557    1.407   .     S
C479   H521    1.083   .     S
C479   N527    1.342   .     A
C479   C634    1.407   1_455 S
C480   C491    1.425   .     A
C480   C1191   1.435   .     S
C480   C1197   1.433   .     S
C481   H522    1.080   .     S
C481   N527    1.367   .     A
C481   C638    1.432   1_455 S
C482   O535    1.388   .     S
C482   N528    1.371   .     A
C482   C559    1.432   .     S
C483   O540    1.293   .     A
C483   O541    1.291   .     A
C484   O543    1.300   .     A
C484   O542    1.294   .     A
C484   C486    1.464   .     S
C485   C500    1.391   .     A
C485   C1198   1.404   1_554 S
C485   H1226   1.084   1_554 S
C486   C500    1.398   .     A
C486   C499    1.401   .     A
C487   C488    1.380   .     A
C487   H526    1.084   .     S
C488   C1191   1.402   .     S
C488   H1206   1.082   .     S
C489   O536    1.386   .     S
C489   C1182   1.435   1_554 S
C489   C1190   1.402   1_554 S
C490   H509    1.111   .     S
C490   O535    1.416   .     S
C490   C570    1.524   .     S
C490   H588    1.115   .     S
C491   C498    1.412   .     A
C492   H513    1.111   .     S
C492   H512    1.110   .     S
C492   H511    1.110   .     S
C492   C646    1.524   1_455 S
C493   H515    1.116   .     S
C493   O536    1.420   .     S
C493   C494    1.524   .     S
C493   H516    1.109   .     S
C494   H518    1.110   .     S
C494   H517    1.110   .     S
C494   H675    1.110   1_455 S
C495   C499    1.398   .     A
C495   C1182   1.433   1_554 S
C495   C1198   1.421   1_554 S
C496   C497    1.388   .     A
C496   C1187   1.404   .     S
C496   C1197   1.421   .     S
C497   H523    1.084   .     S
C497   C498    1.383   .     A
C498   H505    1.080   .     S
C499   H525    1.072   .     S
C500   H503    1.083   .     S
Cu501  O540    1.965   .     S
Cu501  N527    2.018   .     S
Cu501  Cu502   2.685   .     S
Cu501  O538    1.965   .     S
Cu501  O542    1.953   .     S
Cu501  O529    1.966   .     S
Cu502  O543    1.965   .     S
Cu502  N528    2.018   .     S
Cu502  O537    1.965   .     S
Cu502  O541    1.966   .     S
Cu502  O539    1.953   .     S
H504   C1190   1.082   1_554 S
H507   O531    0.990   .     S
H508   O534    0.991   .     S
H510   C646    1.115   1_455 S
H519   C572    1.110   .     S
H524   C1187   1.084   .     S
O530   S545    1.503   .     D
O531   S545    1.680   .     S
O532   S546    1.503   .     D
O533   S546    1.495   .     D
O534   S546    1.681   .     S
O544   S545    1.502   .     D
C547   C555    1.460   .     S
C547   O615    1.300   .     A
C547   O607    1.292   .     A
C548   C550    1.473   .     S
C548   C569    1.418   .     A
C548   C565    1.398   .     A
C549   H584    1.079   .     S
C549   C555    1.403   .     A
C549   C83     1.381   1_565 S
C550   O616    1.299   .     A
C550   O617    1.299   .     A
C551   C552    1.394   .     A
C551   H592    1.084   .     S
C552   C561    1.445   .     S
C552   C553    1.395   .     A
C553   H598    1.083   .     S
C554   C555    1.421   .     A
C554   S623    1.772   .     S
C554   C85     1.389   1_565 S
C556   N606    1.406   .     A
C556   S624    1.797   .     S
C556   C635    1.407   .     S
C557   H599    1.083   .     S
C557   N605    1.342   .     A
C558   C569    1.425   .     A
C558   C1269   1.435   .     S
C558   C1275   1.433   .     S
C559   H600    1.080   .     S
C559   N605    1.367   .     A
C560   O613    1.388   .     S
C560   N606    1.371   .     A
C560   C637    1.432   .     S
C561   O618    1.293   .     A
C561   O619    1.291   .     A
C562   O621    1.300   .     A
C562   O620    1.294   .     A
C562   C564    1.464   .     S
C563   C578    1.391   .     A
C563   C1276   1.404   1_554 S
C563   H1304   1.084   1_554 S
C564   C578    1.398   .     A
C564   C577    1.401   .     A
C565   C566    1.380   .     A
C565   H604    1.084   .     S
C566   C1269   1.402   .     S
C566   H1284   1.082   .     S
C567   O614    1.386   .     S
C567   C1260   1.435   1_554 S
C567   C1268   1.402   1_554 S
C568   H587    1.111   .     S
C568   O613    1.416   .     S
C568   C648    1.524   .     S
C568   H666    1.115   .     S
C569   C576    1.412   .     A
C570   H591    1.111   .     S
C570   H590    1.110   .     S
C570   H589    1.110   .     S
C571   H593    1.116   .     S
C571   O614    1.420   .     S
C571   C572    1.524   .     S
C571   H594    1.109   .     S
C572   H596    1.110   .     S
C572   H595    1.110   .     S
C573   C577    1.398   .     A
C573   C1260   1.433   1_554 S
C573   C1276   1.421   1_554 S
C574   C575    1.388   .     A
C574   C1265   1.404   .     S
C574   C1275   1.421   .     S
C575   H601    1.084   .     S
C575   C576    1.383   .     A
C576   H583    1.080   .     S
C577   H603    1.072   .     S
C578   H581    1.083   .     S
Cu579  O618    1.965   .     S
Cu579  N605    2.018   .     S
Cu579  Cu580   2.685   .     S
Cu579  O616    1.965   .     S
Cu579  O620    1.953   .     S
Cu579  O607    1.966   .     S
Cu580  O621    1.965   .     S
Cu580  N606    2.018   .     S
Cu580  O615    1.965   .     S
Cu580  O619    1.966   .     S
Cu580  O617    1.953   .     S
H582   C1268   1.082   1_554 S
H585   O609    0.990   .     S
H586   O612    0.991   .     S
H597   C650    1.110   .     S
H602   C1265   1.084   .     S
O608   S623    1.503   .     D
O609   S623    1.680   .     S
O610   S624    1.503   .     D
O611   S624    1.495   .     D
O612   S624    1.681   .     S
O622   S623    1.502   .     D
C625   C633    1.460   .     S
C625   O693    1.300   .     A
C625   O685    1.292   .     A
C626   C628    1.473   .     S
C626   C647    1.418   .     A
C626   C643    1.398   .     A
C627   H662    1.079   .     S
C627   C633    1.403   .     A
C627   C161    1.381   1_565 S
C628   O694    1.299   .     A
C628   O695    1.299   .     A
C629   C630    1.394   .     A
C629   H670    1.084   .     S
C630   C639    1.445   .     S
C630   C631    1.395   .     A
C631   H676    1.083   .     S
C632   C633    1.421   .     A
C632   S701    1.772   .     S
C632   C163    1.389   1_565 S
C634   N684    1.406   .     A
C634   S702    1.797   .     S
C634   C479    1.407   1_655 S
C635   H677    1.083   .     S
C635   N683    1.342   .     A
C636   C647    1.425   .     A
C636   C1347   1.435   .     S
C636   C1353   1.433   .     S
C637   H678    1.080   .     S
C637   N683    1.367   .     A
C638   O691    1.388   .     S
C638   N684    1.371   .     A
C638   C481    1.432   1_655 S
C639   O696    1.293   .     A
C639   O697    1.291   .     A
C640   O699    1.300   .     A
C640   O698    1.294   .     A
C640   C642    1.464   .     S
C641   C656    1.391   .     A
C641   C1354   1.404   1_554 S
C641   H1382   1.084   1_554 S
C642   C656    1.398   .     A
C642   C655    1.401   .     A
C643   C644    1.380   .     A
C643   H682    1.084   .     S
C644   C1347   1.402   .     S
C644   H1362   1.082   .     S
C645   O692    1.386   .     S
C645   C1338   1.435   1_554 S
C645   C1346   1.402   1_554 S
C646   H665    1.111   .     S
C646   O691    1.416   .     S
C646   C492    1.524   1_655 S
C646   H510    1.115   1_655 S
C647   C654    1.412   .     A
C648   H669    1.111   .     S
C648   H668    1.110   .     S
C648   H667    1.110   .     S
C649   H671    1.116   .     S
C649   O692    1.420   .     S
C649   C650    1.524   .     S
C649   H672    1.109   .     S
C650   H674    1.110   .     S
C650   H673    1.110   .     S
C651   C655    1.398   .     A
C651   C1338   1.433   1_554 S
C651   C1354   1.421   1_554 S
C652   C653    1.388   .     A
C652   C1343   1.404   .     S
C652   C1353   1.421   .     S
C653   H679    1.084   .     S
C653   C654    1.383   .     A
C654   H661    1.080   .     S
C655   H681    1.072   .     S
C656   H659    1.083   .     S
Cu657  O696    1.965   .     S
Cu657  N683    2.018   .     S
Cu657  Cu658   2.685   .     S
Cu657  O694    1.965   .     S
Cu657  O698    1.953   .     S
Cu657  O685    1.966   .     S
Cu658  O699    1.965   .     S
Cu658  N684    2.018   .     S
Cu658  O693    1.965   .     S
Cu658  O697    1.966   .     S
Cu658  O695    1.953   .     S
H660   C1346   1.082   1_554 S
H663   O687    0.990   .     S
H664   O690    0.991   .     S
H675   C494    1.110   1_655 S
H680   C1343   1.084   .     S
O686   S701    1.503   .     D
O687   S701    1.680   .     S
O688   S702    1.503   .     D
O689   S702    1.495   .     D
O690   S702    1.681   .     S
O700   S701    1.502   .     D
C703   C711    1.460   .     S
C703   O771    1.300   .     A
C703   O763    1.292   .     A
C704   C706    1.473   .     S
C704   C725    1.418   .     A
C704   C721    1.398   .     A
C705   H740    1.079   .     S
C705   C711    1.403   .     A
C705   C941    1.381   .     S
C706   O772    1.299   .     A
C706   O773    1.299   .     A
C707   C708    1.394   .     A
C707   H748    1.084   .     S
C707   C1173   1.381   1_545 S
C708   C717    1.445   .     S
C708   C709    1.395   .     A
C709   H754    1.083   .     S
C709   C1178   1.389   1_545 S
C710   C711    1.421   .     A
C710   S779    1.772   .     S
C710   C943    1.389   .     S
C712   N762    1.406   .     A
C712   S780    1.797   .     S
C712   C791    1.407   .     S
C713   H755    1.083   .     S
C713   N761    1.342   .     A
C713   C868    1.407   1_455 S
C714   C725    1.425   .     A
C714   C21     1.435   1_556 S
C714   C27     1.433   1_556 S
C715   H756    1.080   .     S
C715   N761    1.367   .     A
C715   C872    1.432   1_455 S
C716   O769    1.388   .     S
C716   N762    1.371   .     A
C716   C793    1.432   .     S
C717   O774    1.293   .     A
C717   O775    1.291   .     A
C718   O777    1.300   .     A
C718   O776    1.294   .     A
C718   C720    1.464   .     S
C719   C734    1.391   .     A
C720   C734    1.398   .     A
C720   C733    1.401   .     A
C721   C722    1.380   .     A
C721   H760    1.084   .     S
C722   C21     1.402   1_556 S
C722   H36     1.082   1_556 S
C723   O770    1.386   .     S
C724   H743    1.111   .     S
C724   O769    1.416   .     S
C724   C804    1.524   .     S
C724   H822    1.115   .     S
C725   C732    1.412   .     A
C726   H747    1.111   .     S
C726   H746    1.110   .     S
C726   H745    1.110   .     S
C726   C880    1.524   1_455 S
C727   H749    1.116   .     S
C727   O770    1.420   .     S
C727   C728    1.524   .     S
C727   H750    1.109   .     S
C728   H752    1.110   .     S
C728   H751    1.110   .     S
C728   H909    1.110   1_455 S
C729   C733    1.398   .     A
C730   C731    1.388   .     A
C730   C17     1.404   1_556 S
C730   C27     1.421   1_556 S
C731   H757    1.084   .     S
C731   C732    1.383   .     A
C732   H739    1.080   .     S
C733   H759    1.072   .     S
C734   H737    1.083   .     S
Cu735  O774    1.965   .     S
Cu735  N761    2.018   .     S
Cu735  Cu736   2.685   .     S
Cu735  O772    1.965   .     S
Cu735  O776    1.953   .     S
Cu735  O763    1.966   .     S
Cu736  O777    1.965   .     S
Cu736  N762    2.018   .     S
Cu736  O771    1.965   .     S
Cu736  O775    1.966   .     S
Cu736  O773    1.953   .     S
H741   O765    0.990   .     S
H742   O768    0.991   .     S
H744   C880    1.115   1_455 S
H753   C806    1.110   .     S
H758   C17     1.084   1_556 S
O764   S779    1.503   .     D
O765   S779    1.680   .     S
O766   S780    1.503   .     D
O767   S780    1.495   .     D
O768   S780    1.681   .     S
O778   S779    1.502   .     D
C781   C789    1.460   .     S
C781   O849    1.300   .     A
C781   O841    1.292   .     A
C782   C784    1.473   .     S
C782   C803    1.418   .     A
C782   C799    1.398   .     A
C783   H818    1.079   .     S
C783   C789    1.403   .     A
C783   C1019   1.381   .     S
C784   O850    1.299   .     A
C784   O851    1.299   .     A
C785   C786    1.394   .     A
C785   H826    1.084   .     S
C785   C1251   1.381   1_545 S
C786   C795    1.445   .     S
C786   C787    1.395   .     A
C787   H832    1.083   .     S
C787   C1256   1.389   1_545 S
C788   C789    1.421   .     A
C788   S857    1.772   .     S
C788   C1021   1.389   .     S
C790   N840    1.406   .     A
C790   S858    1.797   .     S
C790   C869    1.407   .     S
C791   H833    1.083   .     S
C791   N839    1.342   .     A
C792   C803    1.425   .     A
C792   C99     1.435   1_556 S
C792   C105    1.433   1_556 S
C793   H834    1.080   .     S
C793   N839    1.367   .     A
C794   O847    1.388   .     S
C794   N840    1.371   .     A
C794   C871    1.432   .     S
C795   O852    1.293   .     A
C795   O853    1.291   .     A
C796   O855    1.300   .     A
C796   O854    1.294   .     A
C796   C798    1.464   .     S
C797   C812    1.391   .     A
C798   C812    1.398   .     A
C798   C811    1.401   .     A
C799   C800    1.380   .     A
C799   H838    1.084   .     S
C800   C99     1.402   1_556 S
C800   H114    1.082   1_556 S
C801   O848    1.386   .     S
C802   H821    1.111   .     S
C802   O847    1.416   .     S
C802   C882    1.524   .     S
C802   H900    1.115   .     S
C803   C810    1.412   .     A
C804   H825    1.111   .     S
C804   H824    1.110   .     S
C804   H823    1.110   .     S
C805   H827    1.116   .     S
C805   O848    1.420   .     S
C805   C806    1.524   .     S
C805   H828    1.109   .     S
C806   H830    1.110   .     S
C806   H829    1.110   .     S
C807   C811    1.398   .     A
C808   C809    1.388   .     A
C808   C95     1.404   1_556 S
C808   C105    1.421   1_556 S
C809   H835    1.084   .     S
C809   C810    1.383   .     A
C810   H817    1.080   .     S
C811   H837    1.072   .     S
C812   H815    1.083   .     S
Cu813  O852    1.965   .     S
Cu813  N839    2.018   .     S
Cu813  Cu814   2.685   .     S
Cu813  O850    1.965   .     S
Cu813  O854    1.953   .     S
Cu813  O841    1.966   .     S
Cu814  O855    1.965   .     S
Cu814  N840    2.018   .     S
Cu814  O849    1.965   .     S
Cu814  O853    1.966   .     S
Cu814  O851    1.953   .     S
H819   O843    0.990   .     S
H820   O846    0.991   .     S
H831   C884    1.110   .     S
H836   C95     1.084   1_556 S
O842   S857    1.503   .     D
O843   S857    1.680   .     S
O844   S858    1.503   .     D
O845   S858    1.495   .     D
O846   S858    1.681   .     S
O856   S857    1.502   .     D
C859   C867    1.460   .     S
C859   O927    1.300   .     A
C859   O919    1.292   .     A
C860   C862    1.473   .     S
C860   C881    1.418   .     A
C860   C877    1.398   .     A
C861   H896    1.079   .     S
C861   C867    1.403   .     A
C861   C1097   1.381   .     S
C862   O928    1.299   .     A
C862   O929    1.299   .     A
C863   C864    1.394   .     A
C863   H904    1.084   .     S
C863   C1329   1.381   1_545 S
C864   C873    1.445   .     S
C864   C865    1.395   .     A
C865   H910    1.083   .     S
C865   C1334   1.389   1_545 S
C866   C867    1.421   .     A
C866   S935    1.772   .     S
C866   C1099   1.389   .     S
C868   N918    1.406   .     A
C868   S936    1.797   .     S
C868   C713    1.407   1_655 S
C869   H911    1.083   .     S
C869   N917    1.342   .     A
C870   C881    1.425   .     A
C870   C177    1.435   1_556 S
C870   C183    1.433   1_556 S
C871   H912    1.080   .     S
C871   N917    1.367   .     A
C872   O925    1.388   .     S
C872   N918    1.371   .     A
C872   C715    1.432   1_655 S
C873   O930    1.293   .     A
C873   O931    1.291   .     A
C874   O933    1.300   .     A
C874   O932    1.294   .     A
C874   C876    1.464   .     S
C875   C890    1.391   .     A
C876   C890    1.398   .     A
C876   C889    1.401   .     A
C877   C878    1.380   .     A
C877   H916    1.084   .     S
C878   C177    1.402   1_556 S
C878   H192    1.082   1_556 S
C879   O926    1.386   .     S
C880   H899    1.111   .     S
C880   O925    1.416   .     S
C880   C726    1.524   1_655 S
C880   H744    1.115   1_655 S
C881   C888    1.412   .     A
C882   H903    1.111   .     S
C882   H902    1.110   .     S
C882   H901    1.110   .     S
C883   H905    1.116   .     S
C883   O926    1.420   .     S
C883   C884    1.524   .     S
C883   H906    1.109   .     S
C884   H908    1.110   .     S
C884   H907    1.110   .     S
C885   C889    1.398   .     A
C886   C887    1.388   .     A
C886   C173    1.404   1_556 S
C886   C183    1.421   1_556 S
C887   H913    1.084   .     S
C887   C888    1.383   .     A
C888   H895    1.080   .     S
C889   H915    1.072   .     S
C890   H893    1.083   .     S
Cu891  O930    1.965   .     S
Cu891  N917    2.018   .     S
Cu891  Cu892   2.685   .     S
Cu891  O928    1.965   .     S
Cu891  O932    1.953   .     S
Cu891  O919    1.966   .     S
Cu892  O933    1.965   .     S
Cu892  N918    2.018   .     S
Cu892  O927    1.965   .     S
Cu892  O931    1.966   .     S
Cu892  O929    1.953   .     S
H897   O921    0.990   .     S
H898   O924    0.991   .     S
H909   C728    1.110   1_655 S
H914   C173    1.084   1_556 S
O920   S935    1.503   .     D
O921   S935    1.680   .     S
O922   S936    1.503   .     D
O923   S936    1.495   .     D
O924   S936    1.681   .     S
O934   S935    1.502   .     D
C937   C945    1.460   .     S
C937   O1005   1.300   .     A
C937   O997    1.292   .     A
C938   C940    1.473   .     S
C938   C959    1.418   .     A
C938   C955    1.398   .     A
C939   H974    1.079   .     S
C939   C945    1.403   .     A
C939   C1175   1.381   .     S
C940   O1006   1.299   .     A
C940   O1007   1.299   .     A
C941   C942    1.394   .     A
C941   H982    1.084   .     S
C942   C951    1.445   .     S
C942   C943    1.395   .     A
C943   H988    1.083   .     S
C944   C945    1.421   .     A
C944   S1013   1.772   .     S
C944   C1177   1.389   .     S
C946   N996    1.406   .     A
C946   S1014   1.797   .     S
C946   C1025   1.407   .     S
C947   H989    1.083   .     S
C947   N995    1.342   .     A
C947   C1102   1.407   1_455 S
C948   C959    1.425   .     A
C948   C255    1.435   1_556 S
C948   C261    1.433   1_556 S
C949   H990    1.080   .     S
C949   N995    1.367   .     A
C949   C1106   1.432   1_455 S
C950   O1003   1.388   .     S
C950   N996    1.371   .     A
C950   C1027   1.432   .     S
C951   O1008   1.293   .     A
C951   O1009   1.291   .     A
C952   O1011   1.300   .     A
C952   O1010   1.294   .     A
C952   C954    1.464   .     S
C953   C968    1.391   .     A
C954   C968    1.398   .     A
C954   C967    1.401   .     A
C955   C956    1.380   .     A
C955   H994    1.084   .     S
C956   C255    1.402   1_556 S
C956   H270    1.082   1_556 S
C957   O1004   1.386   .     S
C958   H977    1.111   .     S
C958   O1003   1.416   .     S
C958   C1038   1.524   .     S
C958   H1056   1.115   .     S
C959   C966    1.412   .     A
C960   H981    1.111   .     S
C960   H980    1.110   .     S
C960   H979    1.110   .     S
C960   C1114   1.524   1_455 S
C961   H983    1.116   .     S
C961   O1004   1.420   .     S
C961   C962    1.524   .     S
C961   H984    1.109   .     S
C962   H986    1.110   .     S
C962   H985    1.110   .     S
C962   H1143   1.110   1_455 S
C963   C967    1.398   .     A
C964   C965    1.388   .     A
C964   C251    1.404   1_556 S
C964   C261    1.421   1_556 S
C965   H991    1.084   .     S
C965   C966    1.383   .     A
C966   H973    1.080   .     S
C967   H993    1.072   .     S
C968   H971    1.083   .     S
Cu969  O1008   1.965   .     S
Cu969  N995    2.018   .     S
Cu969  Cu970   2.685   .     S
Cu969  O1006   1.965   .     S
Cu969  O1010   1.953   .     S
Cu969  O997    1.966   .     S
Cu970  O1011   1.965   .     S
Cu970  N996    2.018   .     S
Cu970  O1005   1.965   .     S
Cu970  O1009   1.966   .     S
Cu970  O1007   1.953   .     S
H975   O999    0.990   .     S
H976   O1002   0.991   .     S
H978   C1114   1.115   1_455 S
H987   C1040   1.110   .     S
H992   C251    1.084   1_556 S
O998   S1013   1.503   .     D
O999   S1013   1.680   .     S
O1000  S1014   1.503   .     D
O1001  S1014   1.495   .     D
O1002  S1014   1.681   .     S
O1012  S1013   1.502   .     D
C1015  C1023   1.460   .     S
C1015  O1083   1.300   .     A
C1015  O1075   1.292   .     A
C1016  C1018   1.473   .     S
C1016  C1037   1.418   .     A
C1016  C1033   1.398   .     A
C1017  H1052   1.079   .     S
C1017  C1023   1.403   .     A
C1017  C1253   1.381   .     S
C1018  O1084   1.299   .     A
C1018  O1085   1.299   .     A
C1019  C1020   1.394   .     A
C1019  H1060   1.084   .     S
C1020  C1029   1.445   .     S
C1020  C1021   1.395   .     A
C1021  H1066   1.083   .     S
C1022  C1023   1.421   .     A
C1022  S1091   1.772   .     S
C1022  C1255   1.389   .     S
C1024  N1074   1.406   .     A
C1024  S1092   1.797   .     S
C1024  C1103   1.407   .     S
C1025  H1067   1.083   .     S
C1025  N1073   1.342   .     A
C1026  C1037   1.425   .     A
C1026  C333    1.435   1_556 S
C1026  C339    1.433   1_556 S
C1027  H1068   1.080   .     S
C1027  N1073   1.367   .     A
C1028  O1081   1.388   .     S
C1028  N1074   1.371   .     A
C1028  C1105   1.432   .     S
C1029  O1086   1.293   .     A
C1029  O1087   1.291   .     A
C1030  O1089   1.300   .     A
C1030  O1088   1.294   .     A
C1030  C1032   1.464   .     S
C1031  C1046   1.391   .     A
C1032  C1046   1.398   .     A
C1032  C1045   1.401   .     A
C1033  C1034   1.380   .     A
C1033  H1072   1.084   .     S
C1034  C333    1.402   1_556 S
C1034  H348    1.082   1_556 S
C1035  O1082   1.386   .     S
C1036  H1055   1.111   .     S
C1036  O1081   1.416   .     S
C1036  C1116   1.524   .     S
C1036  H1134   1.115   .     S
C1037  C1044   1.412   .     A
C1038  H1059   1.111   .     S
C1038  H1058   1.110   .     S
C1038  H1057   1.110   .     S
C1039  H1061   1.116   .     S
C1039  O1082   1.420   .     S
C1039  C1040   1.524   .     S
C1039  H1062   1.109   .     S
C1040  H1064   1.110   .     S
C1040  H1063   1.110   .     S
C1041  C1045   1.398   .     A
C1042  C1043   1.388   .     A
C1042  C329    1.404   1_556 S
C1042  C339    1.421   1_556 S
C1043  H1069   1.084   .     S
C1043  C1044   1.383   .     A
C1044  H1051   1.080   .     S
C1045  H1071   1.072   .     S
C1046  H1049   1.083   .     S
Cu1047 O1086   1.965   .     S
Cu1047 N1073   2.018   .     S
Cu1047 Cu1048  2.685   .     S
Cu1047 O1084   1.965   .     S
Cu1047 O1088   1.953   .     S
Cu1047 O1075   1.966   .     S
Cu1048 O1089   1.965   .     S
Cu1048 N1074   2.018   .     S
Cu1048 O1083   1.965   .     S
Cu1048 O1087   1.966   .     S
Cu1048 O1085   1.953   .     S
H1053  O1077   0.990   .     S
H1054  O1080   0.991   .     S
H1065  C1118   1.110   .     S
H1070  C329    1.084   1_556 S
O1076  S1091   1.503   .     D
O1077  S1091   1.680   .     S
O1078  S1092   1.503   .     D
O1079  S1092   1.495   .     D
O1080  S1092   1.681   .     S
O1090  S1091   1.502   .     D
C1093  C1101   1.460   .     S
C1093  O1161   1.300   .     A
C1093  O1153   1.292   .     A
C1094  C1096   1.473   .     S
C1094  C1115   1.418   .     A
C1094  C1111   1.398   .     A
C1095  H1130   1.079   .     S
C1095  C1101   1.403   .     A
C1095  C1331   1.381   .     S
C1096  O1162   1.299   .     A
C1096  O1163   1.299   .     A
C1097  C1098   1.394   .     A
C1097  H1138   1.084   .     S
C1098  C1107   1.445   .     S
C1098  C1099   1.395   .     A
C1099  H1144   1.083   .     S
C1100  C1101   1.421   .     A
C1100  S1169   1.772   .     S
C1100  C1333   1.389   .     S
C1102  N1152   1.406   .     A
C1102  S1170   1.797   .     S
C1102  C947    1.407   1_655 S
C1103  H1145   1.083   .     S
C1103  N1151   1.342   .     A
C1104  C1115   1.425   .     A
C1104  C411    1.435   1_556 S
C1104  C417    1.433   1_556 S
C1105  H1146   1.080   .     S
C1105  N1151   1.367   .     A
C1106  O1159   1.388   .     S
C1106  N1152   1.371   .     A
C1106  C949    1.432   1_655 S
C1107  O1164   1.293   .     A
C1107  O1165   1.291   .     A
C1108  O1167   1.300   .     A
C1108  O1166   1.294   .     A
C1108  C1110   1.464   .     S
C1109  C1124   1.391   .     A
C1110  C1124   1.398   .     A
C1110  C1123   1.401   .     A
C1111  C1112   1.380   .     A
C1111  H1150   1.084   .     S
C1112  C411    1.402   1_556 S
C1112  H426    1.082   1_556 S
C1113  O1160   1.386   .     S
C1114  H1133   1.111   .     S
C1114  O1159   1.416   .     S
C1114  C960    1.524   1_655 S
C1114  H978    1.115   1_655 S
C1115  C1122   1.412   .     A
C1116  H1137   1.111   .     S
C1116  H1136   1.110   .     S
C1116  H1135   1.110   .     S
C1117  H1139   1.116   .     S
C1117  O1160   1.420   .     S
C1117  C1118   1.524   .     S
C1117  H1140   1.109   .     S
C1118  H1142   1.110   .     S
C1118  H1141   1.110   .     S
C1119  C1123   1.398   .     A
C1120  C1121   1.388   .     A
C1120  C407    1.404   1_556 S
C1120  C417    1.421   1_556 S
C1121  H1147   1.084   .     S
C1121  C1122   1.383   .     A
C1122  H1129   1.080   .     S
C1123  H1149   1.072   .     S
C1124  H1127   1.083   .     S
Cu1125 O1164   1.965   .     S
Cu1125 N1151   2.018   .     S
Cu1125 Cu1126  2.685   .     S
Cu1125 O1162   1.965   .     S
Cu1125 O1166   1.953   .     S
Cu1125 O1153   1.966   .     S
Cu1126 O1167   1.965   .     S
Cu1126 N1152   2.018   .     S
Cu1126 O1161   1.965   .     S
Cu1126 O1165   1.966   .     S
Cu1126 O1163   1.953   .     S
H1131  O1155   0.990   .     S
H1132  O1158   0.991   .     S
H1143  C962    1.110   1_655 S
H1148  C407    1.084   1_556 S
O1154  S1169   1.503   .     D
O1155  S1169   1.680   .     S
O1156  S1170   1.503   .     D
O1157  S1170   1.495   .     D
O1158  S1170   1.681   .     S
O1168  S1169   1.502   .     D
C1171  C1179   1.460   .     S
C1171  O1239   1.300   .     A
C1171  O1231   1.292   .     A
C1172  C1174   1.473   .     S
C1172  C1193   1.418   .     A
C1172  C1189   1.398   .     A
C1173  H1208   1.079   .     S
C1173  C1179   1.403   .     A
C1173  C707    1.381   1_565 S
C1174  O1240   1.299   .     A
C1174  O1241   1.299   .     A
C1175  C1176   1.394   .     A
C1175  H1216   1.084   .     S
C1176  C1185   1.445   .     S
C1176  C1177   1.395   .     A
C1177  H1222   1.083   .     S
C1178  C1179   1.421   .     A
C1178  S1247   1.772   .     S
C1178  C709    1.389   1_565 S
C1180  N1230   1.406   .     A
C1180  S1248   1.797   .     S
C1180  C1259   1.407   .     S
C1181  H1223   1.083   .     S
C1181  N1229   1.342   .     A
C1181  C1336   1.407   1_455 S
C1182  C1193   1.425   .     A
C1182  C489    1.435   1_556 S
C1182  C495    1.433   1_556 S
C1183  H1224   1.080   .     S
C1183  N1229   1.367   .     A
C1183  C1340   1.432   1_455 S
C1184  O1237   1.388   .     S
C1184  N1230   1.371   .     A
C1184  C1261   1.432   .     S
C1185  O1242   1.293   .     A
C1185  O1243   1.291   .     A
C1186  O1245   1.300   .     A
C1186  O1244   1.294   .     A
C1186  C1188   1.464   .     S
C1187  C1202   1.391   .     A
C1188  C1202   1.398   .     A
C1188  C1201   1.401   .     A
C1189  C1190   1.380   .     A
C1189  H1228   1.084   .     S
C1190  C489    1.402   1_556 S
C1190  H504    1.082   1_556 S
C1191  O1238   1.386   .     S
C1192  H1211   1.111   .     S
C1192  O1237   1.416   .     S
C1192  C1272   1.524   .     S
C1192  H1290   1.115   .     S
C1193  C1200   1.412   .     A
C1194  H1215   1.111   .     S
C1194  H1214   1.110   .     S
C1194  H1213   1.110   .     S
C1194  C1348   1.524   1_455 S
C1195  H1217   1.116   .     S
C1195  O1238   1.420   .     S
C1195  C1196   1.524   .     S
C1195  H1218   1.109   .     S
C1196  H1220   1.110   .     S
C1196  H1219   1.110   .     S
C1196  H1377   1.110   1_455 S
C1197  C1201   1.398   .     A
C1198  C1199   1.388   .     A
C1198  C485    1.404   1_556 S
C1198  C495    1.421   1_556 S
C1199  H1225   1.084   .     S
C1199  C1200   1.383   .     A
C1200  H1207   1.080   .     S
C1201  H1227   1.072   .     S
C1202  H1205   1.083   .     S
Cu1203 O1242   1.965   .     S
Cu1203 N1229   2.018   .     S
Cu1203 Cu1204  2.685   .     S
Cu1203 O1240   1.965   .     S
Cu1203 O1244   1.953   .     S
Cu1203 O1231   1.966   .     S
Cu1204 O1245   1.965   .     S
Cu1204 N1230   2.018   .     S
Cu1204 O1239   1.965   .     S
Cu1204 O1243   1.966   .     S
Cu1204 O1241   1.953   .     S
H1209  O1233   0.990   .     S
H1210  O1236   0.991   .     S
H1212  C1348   1.115   1_455 S
H1221  C1274   1.110   .     S
H1226  C485    1.084   1_556 S
O1232  S1247   1.503   .     D
O1233  S1247   1.680   .     S
O1234  S1248   1.503   .     D
O1235  S1248   1.495   .     D
O1236  S1248   1.681   .     S
O1246  S1247   1.502   .     D
C1249  C1257   1.460   .     S
C1249  O1317   1.300   .     A
C1249  O1309   1.292   .     A
C1250  C1252   1.473   .     S
C1250  C1271   1.418   .     A
C1250  C1267   1.398   .     A
C1251  H1286   1.079   .     S
C1251  C1257   1.403   .     A
C1251  C785    1.381   1_565 S
C1252  O1318   1.299   .     A
C1252  O1319   1.299   .     A
C1253  C1254   1.394   .     A
C1253  H1294   1.084   .     S
C1254  C1263   1.445   .     S
C1254  C1255   1.395   .     A
C1255  H1300   1.083   .     S
C1256  C1257   1.421   .     A
C1256  S1325   1.772   .     S
C1256  C787    1.389   1_565 S
C1258  N1308   1.406   .     A
C1258  S1326   1.797   .     S
C1258  C1337   1.407   .     S
C1259  H1301   1.083   .     S
C1259  N1307   1.342   .     A
C1260  C1271   1.425   .     A
C1260  C567    1.435   1_556 S
C1260  C573    1.433   1_556 S
C1261  H1302   1.080   .     S
C1261  N1307   1.367   .     A
C1262  O1315   1.388   .     S
C1262  N1308   1.371   .     A
C1262  C1339   1.432   .     S
C1263  O1320   1.293   .     A
C1263  O1321   1.291   .     A
C1264  O1323   1.300   .     A
C1264  O1322   1.294   .     A
C1264  C1266   1.464   .     S
C1265  C1280   1.391   .     A
C1266  C1280   1.398   .     A
C1266  C1279   1.401   .     A
C1267  C1268   1.380   .     A
C1267  H1306   1.084   .     S
C1268  C567    1.402   1_556 S
C1268  H582    1.082   1_556 S
C1269  O1316   1.386   .     S
C1270  H1289   1.111   .     S
C1270  O1315   1.416   .     S
C1270  C1350   1.524   .     S
C1270  H1368   1.115   .     S
C1271  C1278   1.412   .     A
C1272  H1293   1.111   .     S
C1272  H1292   1.110   .     S
C1272  H1291   1.110   .     S
C1273  H1295   1.116   .     S
C1273  O1316   1.420   .     S
C1273  C1274   1.524   .     S
C1273  H1296   1.109   .     S
C1274  H1298   1.110   .     S
C1274  H1297   1.110   .     S
C1275  C1279   1.398   .     A
C1276  C1277   1.388   .     A
C1276  C563    1.404   1_556 S
C1276  C573    1.421   1_556 S
C1277  H1303   1.084   .     S
C1277  C1278   1.383   .     A
C1278  H1285   1.080   .     S
C1279  H1305   1.072   .     S
C1280  H1283   1.083   .     S
Cu1281 O1320   1.965   .     S
Cu1281 N1307   2.018   .     S
Cu1281 Cu1282  2.685   .     S
Cu1281 O1318   1.965   .     S
Cu1281 O1322   1.953   .     S
Cu1281 O1309   1.966   .     S
Cu1282 O1323   1.965   .     S
Cu1282 N1308   2.018   .     S
Cu1282 O1317   1.965   .     S
Cu1282 O1321   1.966   .     S
Cu1282 O1319   1.953   .     S
H1287  O1311   0.990   .     S
H1288  O1314   0.991   .     S
H1299  C1352   1.110   .     S
H1304  C563    1.084   1_556 S
O1310  S1325   1.503   .     D
O1311  S1325   1.680   .     S
O1312  S1326   1.503   .     D
O1313  S1326   1.495   .     D
O1314  S1326   1.681   .     S
O1324  S1325   1.502   .     D
C1327  C1335   1.460   .     S
C1327  O1395   1.300   .     A
C1327  O1387   1.292   .     A
C1328  C1330   1.473   .     S
C1328  C1349   1.418   .     A
C1328  C1345   1.398   .     A
C1329  H1364   1.079   .     S
C1329  C1335   1.403   .     A
C1329  C863    1.381   1_565 S
C1330  O1396   1.299   .     A
C1330  O1397   1.299   .     A
C1331  C1332   1.394   .     A
C1331  H1372   1.084   .     S
C1332  C1341   1.445   .     S
C1332  C1333   1.395   .     A
C1333  H1378   1.083   .     S
C1334  C1335   1.421   .     A
C1334  S1403   1.772   .     S
C1334  C865    1.389   1_565 S
C1336  N1386   1.406   .     A
C1336  S1404   1.797   .     S
C1336  C1181   1.407   1_655 S
C1337  H1379   1.083   .     S
C1337  N1385   1.342   .     A
C1338  C1349   1.425   .     A
C1338  C645    1.435   1_556 S
C1338  C651    1.433   1_556 S
C1339  H1380   1.080   .     S
C1339  N1385   1.367   .     A
C1340  O1393   1.388   .     S
C1340  N1386   1.371   .     A
C1340  C1183   1.432   1_655 S
C1341  O1398   1.293   .     A
C1341  O1399   1.291   .     A
C1342  O1401   1.300   .     A
C1342  O1400   1.294   .     A
C1342  C1344   1.464   .     S
C1343  C1358   1.391   .     A
C1344  C1358   1.398   .     A
C1344  C1357   1.401   .     A
C1345  C1346   1.380   .     A
C1345  H1384   1.084   .     S
C1346  C645    1.402   1_556 S
C1346  H660    1.082   1_556 S
C1347  O1394   1.386   .     S
C1348  H1367   1.111   .     S
C1348  O1393   1.416   .     S
C1348  C1194   1.524   1_655 S
C1348  H1212   1.115   1_655 S
C1349  C1356   1.412   .     A
C1350  H1371   1.111   .     S
C1350  H1370   1.110   .     S
C1350  H1369   1.110   .     S
C1351  H1373   1.116   .     S
C1351  O1394   1.420   .     S
C1351  C1352   1.524   .     S
C1351  H1374   1.109   .     S
C1352  H1376   1.110   .     S
C1352  H1375   1.110   .     S
C1353  C1357   1.398   .     A
C1354  C1355   1.388   .     A
C1354  C641    1.404   1_556 S
C1354  C651    1.421   1_556 S
C1355  H1381   1.084   .     S
C1355  C1356   1.383   .     A
C1356  H1363   1.080   .     S
C1357  H1383   1.072   .     S
C1358  H1361   1.083   .     S
Cu1359 O1398   1.965   .     S
Cu1359 N1385   2.018   .     S
Cu1359 Cu1360  2.685   .     S
Cu1359 O1396   1.965   .     S
Cu1359 O1400   1.953   .     S
Cu1359 O1387   1.966   .     S
Cu1360 O1401   1.965   .     S
Cu1360 N1386   2.018   .     S
Cu1360 O1395   1.965   .     S
Cu1360 O1399   1.966   .     S
Cu1360 O1397   1.953   .     S
H1365  O1389   0.990   .     S
H1366  O1392   0.991   .     S
H1377  C1196   1.110   1_655 S
H1382  C641    1.084   1_556 S
O1388  S1403   1.503   .     D
O1389  S1403   1.680   .     S
O1390  S1404   1.503   .     D
O1391  S1404   1.495   .     D
O1392  S1404   1.681   .     S
O1402  S1403   1.502   .     D
