data_str_m2_o1_o18_pcu_sym.130
_audit_creation_date              2020-01-03
_audit_creation_method            'Materials Studio'
_symmetry_space_group_name_H-M    'P1'
_symmetry_Int_Tables_number       1
_symmetry_cell_setting            triclinic
loop_
_symmetry_equiv_pos_as_xyz
  x,y,z
_cell_length_a                    28.5653
_cell_length_b                    32.4211
_cell_length_c                    30.9864
_cell_angle_alpha                 89.8462
_cell_angle_beta                  74.4978
_cell_angle_gamma                 90.4134
loop_
_atom_site_label
_atom_site_type_symbol
_atom_site_fract_x
_atom_site_fract_y
_atom_site_fract_z
_atom_site_U_iso_or_equiv
_atom_site_adp_type
_atom_site_occupancy
C1     C     0.00003   0.08744   0.24906   0.00000  Uiso   1.00
C2     C     0.33331   0.24589   0.25092   0.00000  Uiso   1.00
C3     C     0.19524   0.17319   0.04738   0.00000  Uiso   1.00
C4     C     0.14115   0.14126   0.45552   0.00000  Uiso   1.00
C5     C     0.24387   0.17803   0.02476   0.00000  Uiso   1.00
C6     C     0.09267   0.13565   0.47832   0.00000  Uiso   1.00
C7     C     0.30818   0.02036   0.22259   0.00000  Uiso   1.00
C8     C     0.02522   0.31299   0.27733   0.00000  Uiso   1.00
C9     C     0.30872   0.31085   0.22437   0.00000  Uiso   1.00
C10    C     0.02464   0.02249   0.27557   0.00000  Uiso   1.00
C11    C     0.00040   0.29053   0.25118   0.00000  Uiso   1.00
C12    C     0.33296   0.04282   0.24877   0.00000  Uiso   1.00
C13    C     0.18270   0.14251   0.27945   0.00000  Uiso   1.00
C14    C     0.15064   0.19081   0.22055   0.00000  Uiso   1.00
C15    C     0.13309   0.14256   0.27947   0.00000  Uiso   1.00
C16    C     0.20024   0.19077   0.22053   0.00000  Uiso   1.00
C17    C     0.30610   0.16678   0.33608   0.00000  Uiso   1.00
C18    C     0.02723   0.16609   0.16396   0.00000  Uiso   1.00
C19    C     0.29115   0.16754   0.38520   0.00000  Uiso   1.00
C20    C     0.04233   0.16179   0.11513   0.00000  Uiso   1.00
C21    C     0.30846   0.17985   0.45624   0.00000  Uiso   1.00
C22    C     0.02710   0.13885   0.04601   0.00000  Uiso   1.00
C23    C     0.32441   0.17656   0.40986   0.00000  Uiso   1.00
C24    C     0.01017   0.14718   0.09156   0.00000  Uiso   1.00
C25    C     0.24225   0.16056   0.40741   0.00000  Uiso   1.00
C26    C     0.09108   0.16888   0.09266   0.00000  Uiso   1.00
C27    C     0.22535   0.16269   0.45430   0.00000  Uiso   1.00
C28    C     0.10958   0.15906   0.04716   0.00000  Uiso   1.00
C29    C     0.25929   0.17342   0.47855   0.00000  Uiso   1.00
C30    C     0.07638   0.14464   0.02369   0.00000  Uiso   1.00
C31    C     0.17559   0.15579   0.47752   0.00000  Uiso   1.00
C32    C     0.15992   0.16308   0.02449   0.00000  Uiso   1.00
Cu33   Cu    0.04689   0.16667   0.25000   0.00000  Uiso   1.00
Cu34   Cu    0.28645   0.16666   0.25000   0.00000  Uiso   1.00
H35    H     0.26955   0.18598   0.04366   0.00000  Uiso   1.00
H36    H     0.06767   0.12420   0.46017   0.00000  Uiso   1.00
H37    H     0.11377   0.18219   0.11170   0.00000  Uiso   1.00
H38    H     0.21780   0.15472   0.38706   0.00000  Uiso   1.00
H39    H     0.30568   0.14121   0.10849   0.00000  Uiso   1.00
H40    H     0.02906   0.18219   0.39326   0.00000  Uiso   1.00
H41    H     0.00115   0.18810   0.47464   0.00000  Uiso   1.00
H42    H     0.00181   0.12707   0.02838   0.00000  Uiso   1.00
H43    H     0.18693   0.17669   0.08315   0.00000  Uiso   1.00
H44    H     0.15053   0.13266   0.42076   0.00000  Uiso   1.00
H45    H     0.29020   0.29308   0.20420   0.00000  Uiso   1.00
H46    H     0.04317   0.04026   0.29574   0.00000  Uiso   1.00
H47    H     0.19436   0.12309   0.30299   0.00000  Uiso   1.00
H48    H     0.13898   0.21024   0.19700   0.00000  Uiso   1.00
H49    H     0.10738   0.12322   0.30304   0.00000  Uiso   1.00
H50    H     0.22595   0.21011   0.19695   0.00000  Uiso   1.00
N51    N     0.11736   0.16668   0.24999   0.00000  Uiso   1.00
N52    N     0.21597   0.16666   0.25001   0.00000  Uiso   1.00
O53    O     0.03958   0.10655   0.25000   0.00000  Uiso   1.00
O54    O     0.29375   0.22678   0.25000   0.00000  Uiso   1.00
O55    O     0.29372   0.10654   0.25001   0.00000  Uiso   1.00
O56    O     0.03961   0.22679   0.24999   0.00000  Uiso   1.00
O57    O     0.01852   0.16668   0.31491   0.00000  Uiso   1.00
O58    O     0.31481   0.16666   0.18509   0.00000  Uiso   1.00
O59    O     0.27267   0.16667   0.31492   0.00000  Uiso   1.00
O60    O     0.06067   0.16667   0.18508   0.00000  Uiso   1.00
C61    C     0.28268   0.04109   0.19161   0.00000  Uiso   1.00
H62    H     0.30775   0.06327   0.16928   0.00000  Uiso   1.00
H63    H     0.27039   0.01843   0.17005   0.00000  Uiso   1.00
H64    H     0.25006   0.05752   0.21140   0.00000  Uiso   1.00
C65    C     0.05081   0.29227   0.30823   0.00000  Uiso   1.00
H66    H     0.02579   0.27007   0.33059   0.00000  Uiso   1.00
H67    H     0.08342   0.27586   0.28839   0.00000  Uiso   1.00
H68    H     0.06313   0.31494   0.32978   0.00000  Uiso   1.00
C69    C     0.33336   0.08744   0.24906   0.00000  Uiso   1.00
C70    C     0.66664   0.24589   0.25092   0.00000  Uiso   1.00
C71    C     0.52858   0.17319   0.04738   0.00000  Uiso   1.00
C72    C     0.47448   0.14126   0.45552   0.00000  Uiso   1.00
C73    C     0.57721   0.17803   0.02476   0.00000  Uiso   1.00
C74    C     0.42600   0.13565   0.47832   0.00000  Uiso   1.00
C75    C     0.64151   0.02036   0.22259   0.00000  Uiso   1.00
C76    C     0.35855   0.31299   0.27733   0.00000  Uiso   1.00
C77    C     0.64206   0.31085   0.22437   0.00000  Uiso   1.00
C78    C     0.35798   0.02249   0.27557   0.00000  Uiso   1.00
C79    C     0.33373   0.29053   0.25118   0.00000  Uiso   1.00
C80    C     0.66629   0.04282   0.24877   0.00000  Uiso   1.00
C81    C     0.51603   0.14251   0.27945   0.00000  Uiso   1.00
C82    C     0.48397   0.19081   0.22055   0.00000  Uiso   1.00
C83    C     0.46643   0.14256   0.27947   0.00000  Uiso   1.00
C84    C     0.53357   0.19077   0.22053   0.00000  Uiso   1.00
C85    C     0.63943   0.16678   0.33608   0.00000  Uiso   1.00
C86    C     0.36056   0.16609   0.16396   0.00000  Uiso   1.00
C87    C     0.62449   0.16754   0.38520   0.00000  Uiso   1.00
C88    C     0.37566   0.16179   0.11513   0.00000  Uiso   1.00
C89    C     0.64179   0.17985   0.45624   0.00000  Uiso   1.00
C90    C     0.36043   0.13885   0.04601   0.00000  Uiso   1.00
C91    C     0.65774   0.17656   0.40986   0.00000  Uiso   1.00
C92    C     0.34350   0.14718   0.09156   0.00000  Uiso   1.00
C93    C     0.57558   0.16056   0.40741   0.00000  Uiso   1.00
C94    C     0.42441   0.16888   0.09266   0.00000  Uiso   1.00
C95    C     0.55868   0.16269   0.45430   0.00000  Uiso   1.00
C96    C     0.44292   0.15906   0.04716   0.00000  Uiso   1.00
C97    C     0.59262   0.17342   0.47855   0.00000  Uiso   1.00
C98    C     0.40972   0.14464   0.02369   0.00000  Uiso   1.00
C99    C     0.50892   0.15579   0.47752   0.00000  Uiso   1.00
C100   C     0.49325   0.16308   0.02449   0.00000  Uiso   1.00
Cu101  Cu    0.38022   0.16667   0.25000   0.00000  Uiso   1.00
Cu102  Cu    0.61978   0.16666   0.25000   0.00000  Uiso   1.00
H103   H     0.60288   0.18598   0.04366   0.00000  Uiso   1.00
H104   H     0.40100   0.12420   0.46017   0.00000  Uiso   1.00
H105   H     0.44710   0.18219   0.11170   0.00000  Uiso   1.00
H106   H     0.55114   0.15472   0.38706   0.00000  Uiso   1.00
H107   H     0.63901   0.14121   0.10849   0.00000  Uiso   1.00
H108   H     0.36239   0.18219   0.39326   0.00000  Uiso   1.00
H109   H     0.33449   0.18810   0.47464   0.00000  Uiso   1.00
H110   H     0.33515   0.12707   0.02838   0.00000  Uiso   1.00
H111   H     0.52026   0.17669   0.08315   0.00000  Uiso   1.00
H112   H     0.48386   0.13266   0.42076   0.00000  Uiso   1.00
H113   H     0.62354   0.29308   0.20420   0.00000  Uiso   1.00
H114   H     0.37650   0.04026   0.29574   0.00000  Uiso   1.00
H115   H     0.52769   0.12309   0.30299   0.00000  Uiso   1.00
H116   H     0.47231   0.21024   0.19700   0.00000  Uiso   1.00
H117   H     0.44072   0.12322   0.30304   0.00000  Uiso   1.00
H118   H     0.55928   0.21011   0.19695   0.00000  Uiso   1.00
N119   N     0.45069   0.16668   0.24999   0.00000  Uiso   1.00
N120   N     0.54931   0.16666   0.25001   0.00000  Uiso   1.00
O121   O     0.37291   0.10655   0.25000   0.00000  Uiso   1.00
O122   O     0.62709   0.22678   0.25000   0.00000  Uiso   1.00
O123   O     0.62706   0.10654   0.25001   0.00000  Uiso   1.00
O124   O     0.37294   0.22679   0.24999   0.00000  Uiso   1.00
O125   O     0.35186   0.16668   0.31491   0.00000  Uiso   1.00
O126   O     0.64814   0.16666   0.18509   0.00000  Uiso   1.00
O127   O     0.60600   0.16667   0.31492   0.00000  Uiso   1.00
O128   O     0.39400   0.16667   0.18508   0.00000  Uiso   1.00
C129   C     0.61602   0.04109   0.19161   0.00000  Uiso   1.00
H130   H     0.64109   0.06327   0.16928   0.00000  Uiso   1.00
H131   H     0.60373   0.01843   0.17005   0.00000  Uiso   1.00
H132   H     0.58340   0.05752   0.21140   0.00000  Uiso   1.00
C133   C     0.38414   0.29227   0.30823   0.00000  Uiso   1.00
H134   H     0.35912   0.27007   0.33059   0.00000  Uiso   1.00
H135   H     0.41675   0.27586   0.28839   0.00000  Uiso   1.00
H136   H     0.39646   0.31494   0.32978   0.00000  Uiso   1.00
C137   C     0.66670   0.08744   0.24906   0.00000  Uiso   1.00
C138   C     0.99998   0.24589   0.25092   0.00000  Uiso   1.00
C139   C     0.86191   0.17319   0.04738   0.00000  Uiso   1.00
C140   C     0.80782   0.14126   0.45552   0.00000  Uiso   1.00
C141   C     0.91054   0.17803   0.02476   0.00000  Uiso   1.00
C142   C     0.75933   0.13565   0.47832   0.00000  Uiso   1.00
C143   C     0.97484   0.02036   0.22259   0.00000  Uiso   1.00
C144   C     0.69189   0.31299   0.27733   0.00000  Uiso   1.00
C145   C     0.97539   0.31085   0.22437   0.00000  Uiso   1.00
C146   C     0.69131   0.02249   0.27557   0.00000  Uiso   1.00
C147   C     0.66707   0.29053   0.25118   0.00000  Uiso   1.00
C148   C     0.99963   0.04282   0.24877   0.00000  Uiso   1.00
C149   C     0.84937   0.14251   0.27945   0.00000  Uiso   1.00
C150   C     0.81730   0.19081   0.22055   0.00000  Uiso   1.00
C151   C     0.79976   0.14256   0.27947   0.00000  Uiso   1.00
C152   C     0.86691   0.19077   0.22053   0.00000  Uiso   1.00
C153   C     0.97277   0.16678   0.33608   0.00000  Uiso   1.00
C154   C     0.69390   0.16609   0.16396   0.00000  Uiso   1.00
C155   C     0.95782   0.16754   0.38520   0.00000  Uiso   1.00
C156   C     0.70899   0.16179   0.11513   0.00000  Uiso   1.00
C157   C     0.97513   0.17985   0.45624   0.00000  Uiso   1.00
C158   C     0.69376   0.13885   0.04601   0.00000  Uiso   1.00
C159   C     0.99107   0.17656   0.40986   0.00000  Uiso   1.00
C160   C     0.67684   0.14718   0.09156   0.00000  Uiso   1.00
C161   C     0.90892   0.16056   0.40741   0.00000  Uiso   1.00
C162   C     0.75775   0.16888   0.09266   0.00000  Uiso   1.00
C163   C     0.89201   0.16269   0.45430   0.00000  Uiso   1.00
C164   C     0.77625   0.15906   0.04716   0.00000  Uiso   1.00
C165   C     0.92596   0.17342   0.47855   0.00000  Uiso   1.00
C166   C     0.74305   0.14464   0.02369   0.00000  Uiso   1.00
C167   C     0.84225   0.15579   0.47752   0.00000  Uiso   1.00
C168   C     0.82659   0.16308   0.02449   0.00000  Uiso   1.00
Cu169  Cu    0.71355   0.16667   0.25000   0.00000  Uiso   1.00
Cu170  Cu    0.95311   0.16666   0.25000   0.00000  Uiso   1.00
H171   H     0.93622   0.18598   0.04366   0.00000  Uiso   1.00
H172   H     0.73433   0.12420   0.46017   0.00000  Uiso   1.00
H173   H     0.78044   0.18219   0.11170   0.00000  Uiso   1.00
H174   H     0.88447   0.15472   0.38706   0.00000  Uiso   1.00
H175   H     0.97235   0.14121   0.10849   0.00000  Uiso   1.00
H176   H     0.69572   0.18219   0.39326   0.00000  Uiso   1.00
H177   H     0.66782   0.18810   0.47464   0.00000  Uiso   1.00
H178   H     0.66848   0.12707   0.02838   0.00000  Uiso   1.00
H179   H     0.85359   0.17669   0.08315   0.00000  Uiso   1.00
H180   H     0.81719   0.13266   0.42076   0.00000  Uiso   1.00
H181   H     0.95687   0.29308   0.20420   0.00000  Uiso   1.00
H182   H     0.70983   0.04026   0.29574   0.00000  Uiso   1.00
H183   H     0.86102   0.12309   0.30299   0.00000  Uiso   1.00
H184   H     0.80564   0.21024   0.19700   0.00000  Uiso   1.00
H185   H     0.77405   0.12322   0.30304   0.00000  Uiso   1.00
H186   H     0.89261   0.21011   0.19695   0.00000  Uiso   1.00
N187   N     0.78403   0.16668   0.24999   0.00000  Uiso   1.00
N188   N     0.88264   0.16666   0.25001   0.00000  Uiso   1.00
O189   O     0.70625   0.10655   0.25000   0.00000  Uiso   1.00
O190   O     0.96042   0.22678   0.25000   0.00000  Uiso   1.00
O191   O     0.96039   0.10654   0.25001   0.00000  Uiso   1.00
O192   O     0.70628   0.22679   0.24999   0.00000  Uiso   1.00
O193   O     0.68519   0.16668   0.31491   0.00000  Uiso   1.00
O194   O     0.98148   0.16666   0.18509   0.00000  Uiso   1.00
O195   O     0.93933   0.16667   0.31492   0.00000  Uiso   1.00
O196   O     0.72733   0.16667   0.18508   0.00000  Uiso   1.00
C197   C     0.94935   0.04109   0.19161   0.00000  Uiso   1.00
H198   H     0.97442   0.06327   0.16928   0.00000  Uiso   1.00
H199   H     0.93706   0.01843   0.17005   0.00000  Uiso   1.00
H200   H     0.91673   0.05752   0.21140   0.00000  Uiso   1.00
C201   C     0.71748   0.29227   0.30823   0.00000  Uiso   1.00
H202   H     0.69246   0.27007   0.33059   0.00000  Uiso   1.00
H203   H     0.75009   0.27586   0.28839   0.00000  Uiso   1.00
H204   H     0.72980   0.31494   0.32978   0.00000  Uiso   1.00
C205   C     0.00003   0.42078   0.24906   0.00000  Uiso   1.00
C206   C     0.33331   0.57923   0.25092   0.00000  Uiso   1.00
C207   C     0.19524   0.50652   0.04738   0.00000  Uiso   1.00
C208   C     0.14115   0.47460   0.45552   0.00000  Uiso   1.00
C209   C     0.24387   0.51136   0.02476   0.00000  Uiso   1.00
C210   C     0.09267   0.46899   0.47832   0.00000  Uiso   1.00
C211   C     0.30818   0.35369   0.22259   0.00000  Uiso   1.00
C212   C     0.02522   0.64632   0.27733   0.00000  Uiso   1.00
C213   C     0.30872   0.64418   0.22437   0.00000  Uiso   1.00
C214   C     0.02464   0.35583   0.27557   0.00000  Uiso   1.00
C215   C     0.00040   0.62386   0.25118   0.00000  Uiso   1.00
C216   C     0.33296   0.37615   0.24877   0.00000  Uiso   1.00
C217   C     0.18270   0.47585   0.27945   0.00000  Uiso   1.00
C218   C     0.15064   0.52415   0.22055   0.00000  Uiso   1.00
C219   C     0.13309   0.47589   0.27947   0.00000  Uiso   1.00
C220   C     0.20024   0.52410   0.22053   0.00000  Uiso   1.00
C221   C     0.30610   0.50012   0.33608   0.00000  Uiso   1.00
C222   C     0.02723   0.49943   0.16396   0.00000  Uiso   1.00
C223   C     0.29115   0.50087   0.38520   0.00000  Uiso   1.00
C224   C     0.04233   0.49512   0.11513   0.00000  Uiso   1.00
C225   C     0.30846   0.51319   0.45624   0.00000  Uiso   1.00
C226   C     0.02710   0.47218   0.04601   0.00000  Uiso   1.00
C227   C     0.32441   0.50989   0.40986   0.00000  Uiso   1.00
C228   C     0.01017   0.48051   0.09156   0.00000  Uiso   1.00
C229   C     0.24225   0.49389   0.40741   0.00000  Uiso   1.00
C230   C     0.09108   0.50221   0.09266   0.00000  Uiso   1.00
C231   C     0.22535   0.49602   0.45430   0.00000  Uiso   1.00
C232   C     0.10958   0.49239   0.04716   0.00000  Uiso   1.00
C233   C     0.25929   0.50676   0.47855   0.00000  Uiso   1.00
C234   C     0.07638   0.47797   0.02369   0.00000  Uiso   1.00
C235   C     0.17559   0.48912   0.47752   0.00000  Uiso   1.00
C236   C     0.15992   0.49642   0.02449   0.00000  Uiso   1.00
Cu237  Cu    0.04689   0.50001   0.25000   0.00000  Uiso   1.00
Cu238  Cu    0.28645   0.49999   0.25000   0.00000  Uiso   1.00
H239   H     0.26955   0.51931   0.04366   0.00000  Uiso   1.00
H240   H     0.06767   0.45753   0.46017   0.00000  Uiso   1.00
H241   H     0.11377   0.51553   0.11170   0.00000  Uiso   1.00
H242   H     0.21780   0.48805   0.38706   0.00000  Uiso   1.00
H243   H     0.30568   0.47454   0.10849   0.00000  Uiso   1.00
H244   H     0.02906   0.51552   0.39326   0.00000  Uiso   1.00
H245   H     0.00115   0.52144   0.47464   0.00000  Uiso   1.00
H246   H     0.00181   0.46040   0.02838   0.00000  Uiso   1.00
H247   H     0.18693   0.51002   0.08315   0.00000  Uiso   1.00
H248   H     0.15053   0.46599   0.42076   0.00000  Uiso   1.00
H249   H     0.29020   0.62641   0.20420   0.00000  Uiso   1.00
H250   H     0.04317   0.37360   0.29574   0.00000  Uiso   1.00
H251   H     0.19436   0.45642   0.30299   0.00000  Uiso   1.00
H252   H     0.13898   0.54357   0.19700   0.00000  Uiso   1.00
H253   H     0.10738   0.45655   0.30304   0.00000  Uiso   1.00
H254   H     0.22595   0.54345   0.19695   0.00000  Uiso   1.00
N255   N     0.11736   0.50001   0.24999   0.00000  Uiso   1.00
N256   N     0.21597   0.49999   0.25001   0.00000  Uiso   1.00
O257   O     0.03958   0.43989   0.25000   0.00000  Uiso   1.00
O258   O     0.29375   0.56011   0.25000   0.00000  Uiso   1.00
O259   O     0.29372   0.43988   0.25001   0.00000  Uiso   1.00
O260   O     0.03961   0.56012   0.24999   0.00000  Uiso   1.00
O261   O     0.01852   0.50001   0.31491   0.00000  Uiso   1.00
O262   O     0.31481   0.49999   0.18509   0.00000  Uiso   1.00
O263   O     0.27267   0.50000   0.31492   0.00000  Uiso   1.00
O264   O     0.06067   0.50000   0.18508   0.00000  Uiso   1.00
C265   C     0.28268   0.37442   0.19161   0.00000  Uiso   1.00
H266   H     0.30775   0.39661   0.16928   0.00000  Uiso   1.00
H267   H     0.27039   0.35176   0.17005   0.00000  Uiso   1.00
H268   H     0.25006   0.39086   0.21140   0.00000  Uiso   1.00
C269   C     0.05081   0.62560   0.30823   0.00000  Uiso   1.00
H270   H     0.02579   0.60340   0.33059   0.00000  Uiso   1.00
H271   H     0.08342   0.60920   0.28839   0.00000  Uiso   1.00
H272   H     0.06313   0.64827   0.32978   0.00000  Uiso   1.00
C273   C     0.33336   0.42078   0.24906   0.00000  Uiso   1.00
C274   C     0.66664   0.57923   0.25092   0.00000  Uiso   1.00
C275   C     0.52858   0.50652   0.04738   0.00000  Uiso   1.00
C276   C     0.47448   0.47460   0.45552   0.00000  Uiso   1.00
C277   C     0.57721   0.51136   0.02476   0.00000  Uiso   1.00
C278   C     0.42600   0.46899   0.47832   0.00000  Uiso   1.00
C279   C     0.64151   0.35369   0.22259   0.00000  Uiso   1.00
C280   C     0.35855   0.64632   0.27733   0.00000  Uiso   1.00
C281   C     0.64206   0.64418   0.22437   0.00000  Uiso   1.00
C282   C     0.35798   0.35583   0.27557   0.00000  Uiso   1.00
C283   C     0.33373   0.62386   0.25118   0.00000  Uiso   1.00
C284   C     0.66629   0.37615   0.24877   0.00000  Uiso   1.00
C285   C     0.51603   0.47585   0.27945   0.00000  Uiso   1.00
C286   C     0.48397   0.52415   0.22055   0.00000  Uiso   1.00
C287   C     0.46643   0.47589   0.27947   0.00000  Uiso   1.00
C288   C     0.53357   0.52410   0.22053   0.00000  Uiso   1.00
C289   C     0.63943   0.50012   0.33608   0.00000  Uiso   1.00
C290   C     0.36056   0.49943   0.16396   0.00000  Uiso   1.00
C291   C     0.62449   0.50087   0.38520   0.00000  Uiso   1.00
C292   C     0.37566   0.49512   0.11513   0.00000  Uiso   1.00
C293   C     0.64179   0.51319   0.45624   0.00000  Uiso   1.00
C294   C     0.36043   0.47218   0.04601   0.00000  Uiso   1.00
C295   C     0.65774   0.50989   0.40986   0.00000  Uiso   1.00
C296   C     0.34350   0.48051   0.09156   0.00000  Uiso   1.00
C297   C     0.57558   0.49389   0.40741   0.00000  Uiso   1.00
C298   C     0.42441   0.50221   0.09266   0.00000  Uiso   1.00
C299   C     0.55868   0.49602   0.45430   0.00000  Uiso   1.00
C300   C     0.44292   0.49239   0.04716   0.00000  Uiso   1.00
C301   C     0.59262   0.50676   0.47855   0.00000  Uiso   1.00
C302   C     0.40972   0.47797   0.02369   0.00000  Uiso   1.00
C303   C     0.50892   0.48912   0.47752   0.00000  Uiso   1.00
C304   C     0.49325   0.49642   0.02449   0.00000  Uiso   1.00
Cu305  Cu    0.38022   0.50001   0.25000   0.00000  Uiso   1.00
Cu306  Cu    0.61978   0.49999   0.25000   0.00000  Uiso   1.00
H307   H     0.60288   0.51931   0.04366   0.00000  Uiso   1.00
H308   H     0.40100   0.45753   0.46017   0.00000  Uiso   1.00
H309   H     0.44710   0.51553   0.11170   0.00000  Uiso   1.00
H310   H     0.55114   0.48805   0.38706   0.00000  Uiso   1.00
H311   H     0.63901   0.47454   0.10849   0.00000  Uiso   1.00
H312   H     0.36239   0.51552   0.39326   0.00000  Uiso   1.00
H313   H     0.33449   0.52144   0.47464   0.00000  Uiso   1.00
H314   H     0.33515   0.46040   0.02838   0.00000  Uiso   1.00
H315   H     0.52026   0.51002   0.08315   0.00000  Uiso   1.00
H316   H     0.48386   0.46599   0.42076   0.00000  Uiso   1.00
H317   H     0.62354   0.62641   0.20420   0.00000  Uiso   1.00
H318   H     0.37650   0.37360   0.29574   0.00000  Uiso   1.00
H319   H     0.52769   0.45642   0.30299   0.00000  Uiso   1.00
H320   H     0.47231   0.54357   0.19700   0.00000  Uiso   1.00
H321   H     0.44072   0.45655   0.30304   0.00000  Uiso   1.00
H322   H     0.55928   0.54345   0.19695   0.00000  Uiso   1.00
N323   N     0.45069   0.50001   0.24999   0.00000  Uiso   1.00
N324   N     0.54931   0.49999   0.25001   0.00000  Uiso   1.00
O325   O     0.37291   0.43989   0.25000   0.00000  Uiso   1.00
O326   O     0.62709   0.56011   0.25000   0.00000  Uiso   1.00
O327   O     0.62706   0.43988   0.25001   0.00000  Uiso   1.00
O328   O     0.37294   0.56012   0.24999   0.00000  Uiso   1.00
O329   O     0.35186   0.50001   0.31491   0.00000  Uiso   1.00
O330   O     0.64814   0.49999   0.18509   0.00000  Uiso   1.00
O331   O     0.60600   0.50000   0.31492   0.00000  Uiso   1.00
O332   O     0.39400   0.50000   0.18508   0.00000  Uiso   1.00
C333   C     0.61602   0.37442   0.19161   0.00000  Uiso   1.00
H334   H     0.64109   0.39661   0.16928   0.00000  Uiso   1.00
H335   H     0.60373   0.35176   0.17005   0.00000  Uiso   1.00
H336   H     0.58340   0.39086   0.21140   0.00000  Uiso   1.00
C337   C     0.38414   0.62560   0.30823   0.00000  Uiso   1.00
H338   H     0.35912   0.60340   0.33059   0.00000  Uiso   1.00
H339   H     0.41675   0.60920   0.28839   0.00000  Uiso   1.00
H340   H     0.39646   0.64827   0.32978   0.00000  Uiso   1.00
C341   C     0.66670   0.42078   0.24906   0.00000  Uiso   1.00
C342   C     0.99998   0.57923   0.25092   0.00000  Uiso   1.00
C343   C     0.86191   0.50652   0.04738   0.00000  Uiso   1.00
C344   C     0.80782   0.47460   0.45552   0.00000  Uiso   1.00
C345   C     0.91054   0.51136   0.02476   0.00000  Uiso   1.00
C346   C     0.75933   0.46899   0.47832   0.00000  Uiso   1.00
C347   C     0.97484   0.35369   0.22259   0.00000  Uiso   1.00
C348   C     0.69189   0.64632   0.27733   0.00000  Uiso   1.00
C349   C     0.97539   0.64418   0.22437   0.00000  Uiso   1.00
C350   C     0.69131   0.35583   0.27557   0.00000  Uiso   1.00
C351   C     0.66707   0.62386   0.25118   0.00000  Uiso   1.00
C352   C     0.99963   0.37615   0.24877   0.00000  Uiso   1.00
C353   C     0.84937   0.47585   0.27945   0.00000  Uiso   1.00
C354   C     0.81730   0.52415   0.22055   0.00000  Uiso   1.00
C355   C     0.79976   0.47589   0.27947   0.00000  Uiso   1.00
C356   C     0.86691   0.52410   0.22053   0.00000  Uiso   1.00
C357   C     0.97277   0.50012   0.33608   0.00000  Uiso   1.00
C358   C     0.69390   0.49943   0.16396   0.00000  Uiso   1.00
C359   C     0.95782   0.50087   0.38520   0.00000  Uiso   1.00
C360   C     0.70899   0.49512   0.11513   0.00000  Uiso   1.00
C361   C     0.97513   0.51319   0.45624   0.00000  Uiso   1.00
C362   C     0.69376   0.47218   0.04601   0.00000  Uiso   1.00
C363   C     0.99107   0.50989   0.40986   0.00000  Uiso   1.00
C364   C     0.67684   0.48051   0.09156   0.00000  Uiso   1.00
C365   C     0.90892   0.49389   0.40741   0.00000  Uiso   1.00
C366   C     0.75775   0.50221   0.09266   0.00000  Uiso   1.00
C367   C     0.89201   0.49602   0.45430   0.00000  Uiso   1.00
C368   C     0.77625   0.49239   0.04716   0.00000  Uiso   1.00
C369   C     0.92596   0.50676   0.47855   0.00000  Uiso   1.00
C370   C     0.74305   0.47797   0.02369   0.00000  Uiso   1.00
C371   C     0.84225   0.48912   0.47752   0.00000  Uiso   1.00
C372   C     0.82659   0.49642   0.02449   0.00000  Uiso   1.00
Cu373  Cu    0.71355   0.50001   0.25000   0.00000  Uiso   1.00
Cu374  Cu    0.95311   0.49999   0.25000   0.00000  Uiso   1.00
H375   H     0.93622   0.51931   0.04366   0.00000  Uiso   1.00
H376   H     0.73433   0.45753   0.46017   0.00000  Uiso   1.00
H377   H     0.78044   0.51553   0.11170   0.00000  Uiso   1.00
H378   H     0.88447   0.48805   0.38706   0.00000  Uiso   1.00
H379   H     0.97235   0.47454   0.10849   0.00000  Uiso   1.00
H380   H     0.69572   0.51552   0.39326   0.00000  Uiso   1.00
H381   H     0.66782   0.52144   0.47464   0.00000  Uiso   1.00
H382   H     0.66848   0.46040   0.02838   0.00000  Uiso   1.00
H383   H     0.85359   0.51002   0.08315   0.00000  Uiso   1.00
H384   H     0.81719   0.46599   0.42076   0.00000  Uiso   1.00
H385   H     0.95687   0.62641   0.20420   0.00000  Uiso   1.00
H386   H     0.70983   0.37360   0.29574   0.00000  Uiso   1.00
H387   H     0.86102   0.45642   0.30299   0.00000  Uiso   1.00
H388   H     0.80564   0.54357   0.19700   0.00000  Uiso   1.00
H389   H     0.77405   0.45655   0.30304   0.00000  Uiso   1.00
H390   H     0.89261   0.54345   0.19695   0.00000  Uiso   1.00
N391   N     0.78403   0.50001   0.24999   0.00000  Uiso   1.00
N392   N     0.88264   0.49999   0.25001   0.00000  Uiso   1.00
O393   O     0.70625   0.43989   0.25000   0.00000  Uiso   1.00
O394   O     0.96042   0.56011   0.25000   0.00000  Uiso   1.00
O395   O     0.96039   0.43988   0.25001   0.00000  Uiso   1.00
O396   O     0.70628   0.56012   0.24999   0.00000  Uiso   1.00
O397   O     0.68519   0.50001   0.31491   0.00000  Uiso   1.00
O398   O     0.98148   0.49999   0.18509   0.00000  Uiso   1.00
O399   O     0.93933   0.50000   0.31492   0.00000  Uiso   1.00
O400   O     0.72733   0.50000   0.18508   0.00000  Uiso   1.00
C401   C     0.94935   0.37442   0.19161   0.00000  Uiso   1.00
H402   H     0.97442   0.39661   0.16928   0.00000  Uiso   1.00
H403   H     0.93706   0.35176   0.17005   0.00000  Uiso   1.00
H404   H     0.91673   0.39086   0.21140   0.00000  Uiso   1.00
C405   C     0.71748   0.62560   0.30823   0.00000  Uiso   1.00
H406   H     0.69246   0.60340   0.33059   0.00000  Uiso   1.00
H407   H     0.75009   0.60920   0.28839   0.00000  Uiso   1.00
H408   H     0.72980   0.64827   0.32978   0.00000  Uiso   1.00
C409   C     0.00003   0.75411   0.24906   0.00000  Uiso   1.00
C410   C     0.33331   0.91256   0.25092   0.00000  Uiso   1.00
C411   C     0.19524   0.83985   0.04738   0.00000  Uiso   1.00
C412   C     0.14115   0.80793   0.45552   0.00000  Uiso   1.00
C413   C     0.24387   0.84470   0.02476   0.00000  Uiso   1.00
C414   C     0.09267   0.80232   0.47832   0.00000  Uiso   1.00
C415   C     0.30818   0.68703   0.22259   0.00000  Uiso   1.00
C416   C     0.02522   0.97965   0.27733   0.00000  Uiso   1.00
C417   C     0.30872   0.97752   0.22437   0.00000  Uiso   1.00
C418   C     0.02464   0.68916   0.27557   0.00000  Uiso   1.00
C419   C     0.00040   0.95719   0.25118   0.00000  Uiso   1.00
C420   C     0.33296   0.70948   0.24877   0.00000  Uiso   1.00
C421   C     0.18270   0.80918   0.27945   0.00000  Uiso   1.00
C422   C     0.15064   0.85748   0.22055   0.00000  Uiso   1.00
C423   C     0.13309   0.80923   0.27947   0.00000  Uiso   1.00
C424   C     0.20024   0.85744   0.22053   0.00000  Uiso   1.00
C425   C     0.30610   0.83345   0.33608   0.00000  Uiso   1.00
C426   C     0.02723   0.83276   0.16396   0.00000  Uiso   1.00
C427   C     0.29115   0.83420   0.38520   0.00000  Uiso   1.00
C428   C     0.04233   0.82846   0.11513   0.00000  Uiso   1.00
C429   C     0.30846   0.84652   0.45624   0.00000  Uiso   1.00
C430   C     0.02710   0.80552   0.04601   0.00000  Uiso   1.00
C431   C     0.32441   0.84322   0.40986   0.00000  Uiso   1.00
C432   C     0.01017   0.81384   0.09156   0.00000  Uiso   1.00
C433   C     0.24225   0.82723   0.40741   0.00000  Uiso   1.00
C434   C     0.09108   0.83554   0.09266   0.00000  Uiso   1.00
C435   C     0.22535   0.82936   0.45430   0.00000  Uiso   1.00
C436   C     0.10958   0.82573   0.04716   0.00000  Uiso   1.00
C437   C     0.25929   0.84009   0.47855   0.00000  Uiso   1.00
C438   C     0.07638   0.81130   0.02369   0.00000  Uiso   1.00
C439   C     0.17559   0.82246   0.47752   0.00000  Uiso   1.00
C440   C     0.15992   0.82975   0.02449   0.00000  Uiso   1.00
Cu441  Cu    0.04689   0.83334   0.25000   0.00000  Uiso   1.00
Cu442  Cu    0.28645   0.83333   0.25000   0.00000  Uiso   1.00
H443   H     0.26955   0.85265   0.04366   0.00000  Uiso   1.00
H444   H     0.06767   0.79086   0.46017   0.00000  Uiso   1.00
H445   H     0.11377   0.84886   0.11170   0.00000  Uiso   1.00
H446   H     0.21780   0.82139   0.38706   0.00000  Uiso   1.00
H447   H     0.30568   0.80788   0.10849   0.00000  Uiso   1.00
H448   H     0.02906   0.84885   0.39326   0.00000  Uiso   1.00
H449   H     0.00115   0.85477   0.47464   0.00000  Uiso   1.00
H450   H     0.00181   0.79374   0.02838   0.00000  Uiso   1.00
H451   H     0.18693   0.84335   0.08315   0.00000  Uiso   1.00
H452   H     0.15053   0.79932   0.42076   0.00000  Uiso   1.00
H453   H     0.29020   0.95975   0.20420   0.00000  Uiso   1.00
H454   H     0.04317   0.70693   0.29574   0.00000  Uiso   1.00
H455   H     0.19436   0.78976   0.30299   0.00000  Uiso   1.00
H456   H     0.13898   0.87690   0.19700   0.00000  Uiso   1.00
H457   H     0.10738   0.78988   0.30304   0.00000  Uiso   1.00
H458   H     0.22595   0.87678   0.19695   0.00000  Uiso   1.00
N459   N     0.11736   0.83334   0.24999   0.00000  Uiso   1.00
N460   N     0.21597   0.83332   0.25001   0.00000  Uiso   1.00
O461   O     0.03958   0.77322   0.25000   0.00000  Uiso   1.00
O462   O     0.29375   0.89345   0.25000   0.00000  Uiso   1.00
O463   O     0.29372   0.77321   0.25001   0.00000  Uiso   1.00
O464   O     0.03961   0.89346   0.24999   0.00000  Uiso   1.00
O465   O     0.01852   0.83334   0.31491   0.00000  Uiso   1.00
O466   O     0.31481   0.83332   0.18509   0.00000  Uiso   1.00
O467   O     0.27267   0.83333   0.31492   0.00000  Uiso   1.00
O468   O     0.06067   0.83333   0.18508   0.00000  Uiso   1.00
C469   C     0.28268   0.70776   0.19161   0.00000  Uiso   1.00
H470   H     0.30775   0.72994   0.16928   0.00000  Uiso   1.00
H471   H     0.27039   0.68509   0.17005   0.00000  Uiso   1.00
H472   H     0.25006   0.72419   0.21140   0.00000  Uiso   1.00
C473   C     0.05081   0.95893   0.30823   0.00000  Uiso   1.00
H474   H     0.02579   0.93673   0.33059   0.00000  Uiso   1.00
H475   H     0.08342   0.94253   0.28839   0.00000  Uiso   1.00
H476   H     0.06313   0.98160   0.32978   0.00000  Uiso   1.00
C477   C     0.33336   0.75411   0.24906   0.00000  Uiso   1.00
C478   C     0.66664   0.91256   0.25092   0.00000  Uiso   1.00
C479   C     0.52858   0.83985   0.04738   0.00000  Uiso   1.00
C480   C     0.47448   0.80793   0.45552   0.00000  Uiso   1.00
C481   C     0.57721   0.84470   0.02476   0.00000  Uiso   1.00
C482   C     0.42600   0.80232   0.47832   0.00000  Uiso   1.00
C483   C     0.64151   0.68703   0.22259   0.00000  Uiso   1.00
C484   C     0.35855   0.97965   0.27733   0.00000  Uiso   1.00
C485   C     0.64206   0.97752   0.22437   0.00000  Uiso   1.00
C486   C     0.35798   0.68916   0.27557   0.00000  Uiso   1.00
C487   C     0.33373   0.95719   0.25118   0.00000  Uiso   1.00
C488   C     0.66629   0.70948   0.24877   0.00000  Uiso   1.00
C489   C     0.51603   0.80918   0.27945   0.00000  Uiso   1.00
C490   C     0.48397   0.85748   0.22055   0.00000  Uiso   1.00
C491   C     0.46643   0.80923   0.27947   0.00000  Uiso   1.00
C492   C     0.53357   0.85744   0.22053   0.00000  Uiso   1.00
C493   C     0.63943   0.83345   0.33608   0.00000  Uiso   1.00
C494   C     0.36056   0.83276   0.16396   0.00000  Uiso   1.00
C495   C     0.62449   0.83420   0.38520   0.00000  Uiso   1.00
C496   C     0.37566   0.82846   0.11513   0.00000  Uiso   1.00
C497   C     0.64179   0.84652   0.45624   0.00000  Uiso   1.00
C498   C     0.36043   0.80552   0.04601   0.00000  Uiso   1.00
C499   C     0.65774   0.84322   0.40986   0.00000  Uiso   1.00
C500   C     0.34350   0.81384   0.09156   0.00000  Uiso   1.00
C501   C     0.57558   0.82723   0.40741   0.00000  Uiso   1.00
C502   C     0.42441   0.83554   0.09266   0.00000  Uiso   1.00
C503   C     0.55868   0.82936   0.45430   0.00000  Uiso   1.00
C504   C     0.44292   0.82573   0.04716   0.00000  Uiso   1.00
C505   C     0.59262   0.84009   0.47855   0.00000  Uiso   1.00
C506   C     0.40972   0.81130   0.02369   0.00000  Uiso   1.00
C507   C     0.50892   0.82246   0.47752   0.00000  Uiso   1.00
C508   C     0.49325   0.82975   0.02449   0.00000  Uiso   1.00
Cu509  Cu    0.38022   0.83334   0.25000   0.00000  Uiso   1.00
Cu510  Cu    0.61978   0.83333   0.25000   0.00000  Uiso   1.00
H511   H     0.60288   0.85265   0.04366   0.00000  Uiso   1.00
H512   H     0.40100   0.79086   0.46017   0.00000  Uiso   1.00
H513   H     0.44710   0.84886   0.11170   0.00000  Uiso   1.00
H514   H     0.55114   0.82139   0.38706   0.00000  Uiso   1.00
H515   H     0.63901   0.80788   0.10849   0.00000  Uiso   1.00
H516   H     0.36239   0.84885   0.39326   0.00000  Uiso   1.00
H517   H     0.33449   0.85477   0.47464   0.00000  Uiso   1.00
H518   H     0.33515   0.79374   0.02838   0.00000  Uiso   1.00
H519   H     0.52026   0.84335   0.08315   0.00000  Uiso   1.00
H520   H     0.48386   0.79932   0.42076   0.00000  Uiso   1.00
H521   H     0.62354   0.95975   0.20420   0.00000  Uiso   1.00
H522   H     0.37650   0.70693   0.29574   0.00000  Uiso   1.00
H523   H     0.52769   0.78976   0.30299   0.00000  Uiso   1.00
H524   H     0.47231   0.87690   0.19700   0.00000  Uiso   1.00
H525   H     0.44072   0.78988   0.30304   0.00000  Uiso   1.00
H526   H     0.55928   0.87678   0.19695   0.00000  Uiso   1.00
N527   N     0.45069   0.83334   0.24999   0.00000  Uiso   1.00
N528   N     0.54931   0.83332   0.25001   0.00000  Uiso   1.00
O529   O     0.37291   0.77322   0.25000   0.00000  Uiso   1.00
O530   O     0.62709   0.89345   0.25000   0.00000  Uiso   1.00
O531   O     0.62706   0.77321   0.25001   0.00000  Uiso   1.00
O532   O     0.37294   0.89346   0.24999   0.00000  Uiso   1.00
O533   O     0.35186   0.83334   0.31491   0.00000  Uiso   1.00
O534   O     0.64814   0.83332   0.18509   0.00000  Uiso   1.00
O535   O     0.60600   0.83333   0.31492   0.00000  Uiso   1.00
O536   O     0.39400   0.83333   0.18508   0.00000  Uiso   1.00
C537   C     0.61602   0.70776   0.19161   0.00000  Uiso   1.00
H538   H     0.64109   0.72994   0.16928   0.00000  Uiso   1.00
H539   H     0.60373   0.68509   0.17005   0.00000  Uiso   1.00
H540   H     0.58340   0.72419   0.21140   0.00000  Uiso   1.00
C541   C     0.38414   0.95893   0.30823   0.00000  Uiso   1.00
H542   H     0.35912   0.93673   0.33059   0.00000  Uiso   1.00
H543   H     0.41675   0.94253   0.28839   0.00000  Uiso   1.00
H544   H     0.39646   0.98160   0.32978   0.00000  Uiso   1.00
C545   C     0.66670   0.75411   0.24906   0.00000  Uiso   1.00
C546   C     0.99998   0.91256   0.25092   0.00000  Uiso   1.00
C547   C     0.86191   0.83985   0.04738   0.00000  Uiso   1.00
C548   C     0.80782   0.80793   0.45552   0.00000  Uiso   1.00
C549   C     0.91054   0.84470   0.02476   0.00000  Uiso   1.00
C550   C     0.75933   0.80232   0.47832   0.00000  Uiso   1.00
C551   C     0.97484   0.68703   0.22259   0.00000  Uiso   1.00
C552   C     0.69189   0.97965   0.27733   0.00000  Uiso   1.00
C553   C     0.97539   0.97752   0.22437   0.00000  Uiso   1.00
C554   C     0.69131   0.68916   0.27557   0.00000  Uiso   1.00
C555   C     0.66707   0.95719   0.25118   0.00000  Uiso   1.00
C556   C     0.99963   0.70948   0.24877   0.00000  Uiso   1.00
C557   C     0.84937   0.80918   0.27945   0.00000  Uiso   1.00
C558   C     0.81730   0.85748   0.22055   0.00000  Uiso   1.00
C559   C     0.79976   0.80923   0.27947   0.00000  Uiso   1.00
C560   C     0.86691   0.85744   0.22053   0.00000  Uiso   1.00
C561   C     0.97277   0.83345   0.33608   0.00000  Uiso   1.00
C562   C     0.69390   0.83276   0.16396   0.00000  Uiso   1.00
C563   C     0.95782   0.83420   0.38520   0.00000  Uiso   1.00
C564   C     0.70899   0.82846   0.11513   0.00000  Uiso   1.00
C565   C     0.97513   0.84652   0.45624   0.00000  Uiso   1.00
C566   C     0.69376   0.80552   0.04601   0.00000  Uiso   1.00
C567   C     0.99107   0.84322   0.40986   0.00000  Uiso   1.00
C568   C     0.67684   0.81384   0.09156   0.00000  Uiso   1.00
C569   C     0.90892   0.82723   0.40741   0.00000  Uiso   1.00
C570   C     0.75775   0.83554   0.09266   0.00000  Uiso   1.00
C571   C     0.89201   0.82936   0.45430   0.00000  Uiso   1.00
C572   C     0.77625   0.82573   0.04716   0.00000  Uiso   1.00
C573   C     0.92596   0.84009   0.47855   0.00000  Uiso   1.00
C574   C     0.74305   0.81130   0.02369   0.00000  Uiso   1.00
C575   C     0.84225   0.82246   0.47752   0.00000  Uiso   1.00
C576   C     0.82659   0.82975   0.02449   0.00000  Uiso   1.00
Cu577  Cu    0.71355   0.83334   0.25000   0.00000  Uiso   1.00
Cu578  Cu    0.95311   0.83333   0.25000   0.00000  Uiso   1.00
H579   H     0.93622   0.85265   0.04366   0.00000  Uiso   1.00
H580   H     0.73433   0.79086   0.46017   0.00000  Uiso   1.00
H581   H     0.78044   0.84886   0.11170   0.00000  Uiso   1.00
H582   H     0.88447   0.82139   0.38706   0.00000  Uiso   1.00
H583   H     0.97235   0.80788   0.10849   0.00000  Uiso   1.00
H584   H     0.69572   0.84885   0.39326   0.00000  Uiso   1.00
H585   H     0.66782   0.85477   0.47464   0.00000  Uiso   1.00
H586   H     0.66848   0.79374   0.02838   0.00000  Uiso   1.00
H587   H     0.85359   0.84335   0.08315   0.00000  Uiso   1.00
H588   H     0.81719   0.79932   0.42076   0.00000  Uiso   1.00
H589   H     0.95687   0.95975   0.20420   0.00000  Uiso   1.00
H590   H     0.70983   0.70693   0.29574   0.00000  Uiso   1.00
H591   H     0.86102   0.78976   0.30299   0.00000  Uiso   1.00
H592   H     0.80564   0.87690   0.19700   0.00000  Uiso   1.00
H593   H     0.77405   0.78988   0.30304   0.00000  Uiso   1.00
H594   H     0.89261   0.87678   0.19695   0.00000  Uiso   1.00
N595   N     0.78403   0.83334   0.24999   0.00000  Uiso   1.00
N596   N     0.88264   0.83332   0.25001   0.00000  Uiso   1.00
O597   O     0.70625   0.77322   0.25000   0.00000  Uiso   1.00
O598   O     0.96042   0.89345   0.25000   0.00000  Uiso   1.00
O599   O     0.96039   0.77321   0.25001   0.00000  Uiso   1.00
O600   O     0.70628   0.89346   0.24999   0.00000  Uiso   1.00
O601   O     0.68519   0.83334   0.31491   0.00000  Uiso   1.00
O602   O     0.98148   0.83332   0.18509   0.00000  Uiso   1.00
O603   O     0.93933   0.83333   0.31492   0.00000  Uiso   1.00
O604   O     0.72733   0.83333   0.18508   0.00000  Uiso   1.00
C605   C     0.94935   0.70776   0.19161   0.00000  Uiso   1.00
H606   H     0.97442   0.72994   0.16928   0.00000  Uiso   1.00
H607   H     0.93706   0.68509   0.17005   0.00000  Uiso   1.00
H608   H     0.91673   0.72419   0.21140   0.00000  Uiso   1.00
C609   C     0.71748   0.95893   0.30823   0.00000  Uiso   1.00
H610   H     0.69246   0.93673   0.33059   0.00000  Uiso   1.00
H611   H     0.75009   0.94253   0.28839   0.00000  Uiso   1.00
H612   H     0.72980   0.98160   0.32978   0.00000  Uiso   1.00
C613   C     0.00003   0.08744   0.74906   0.00000  Uiso   1.00
C614   C     0.33331   0.24589   0.75092   0.00000  Uiso   1.00
C615   C     0.19524   0.17319   0.54738   0.00000  Uiso   1.00
C616   C     0.14115   0.14126   0.95552   0.00000  Uiso   1.00
C617   C     0.24387   0.17803   0.52476   0.00000  Uiso   1.00
C618   C     0.09267   0.13565   0.97832   0.00000  Uiso   1.00
C619   C     0.30818   0.02036   0.72259   0.00000  Uiso   1.00
C620   C     0.02522   0.31299   0.77733   0.00000  Uiso   1.00
C621   C     0.30872   0.31085   0.72437   0.00000  Uiso   1.00
C622   C     0.02464   0.02249   0.77557   0.00000  Uiso   1.00
C623   C     0.00040   0.29053   0.75118   0.00000  Uiso   1.00
C624   C     0.33296   0.04282   0.74877   0.00000  Uiso   1.00
C625   C     0.18270   0.14251   0.77945   0.00000  Uiso   1.00
C626   C     0.15064   0.19081   0.72055   0.00000  Uiso   1.00
C627   C     0.13309   0.14256   0.77947   0.00000  Uiso   1.00
C628   C     0.20024   0.19077   0.72053   0.00000  Uiso   1.00
C629   C     0.30610   0.16678   0.83608   0.00000  Uiso   1.00
C630   C     0.02723   0.16609   0.66396   0.00000  Uiso   1.00
C631   C     0.29115   0.16754   0.88520   0.00000  Uiso   1.00
C632   C     0.04233   0.16179   0.61513   0.00000  Uiso   1.00
C633   C     0.30846   0.17985   0.95624   0.00000  Uiso   1.00
C634   C     0.02710   0.13885   0.54601   0.00000  Uiso   1.00
C635   C     0.32441   0.17656   0.90986   0.00000  Uiso   1.00
C636   C     0.01017   0.14718   0.59156   0.00000  Uiso   1.00
C637   C     0.24225   0.16056   0.90741   0.00000  Uiso   1.00
C638   C     0.09108   0.16888   0.59266   0.00000  Uiso   1.00
C639   C     0.22535   0.16269   0.95430   0.00000  Uiso   1.00
C640   C     0.10958   0.15906   0.54716   0.00000  Uiso   1.00
C641   C     0.25929   0.17342   0.97855   0.00000  Uiso   1.00
C642   C     0.07638   0.14464   0.52369   0.00000  Uiso   1.00
C643   C     0.17559   0.15579   0.97752   0.00000  Uiso   1.00
C644   C     0.15992   0.16308   0.52449   0.00000  Uiso   1.00
Cu645  Cu    0.04689   0.16667   0.75000   0.00000  Uiso   1.00
Cu646  Cu    0.28645   0.16666   0.75000   0.00000  Uiso   1.00
H647   H     0.26955   0.18598   0.54366   0.00000  Uiso   1.00
H648   H     0.06767   0.12420   0.96017   0.00000  Uiso   1.00
H649   H     0.11377   0.18219   0.61170   0.00000  Uiso   1.00
H650   H     0.21780   0.15472   0.88706   0.00000  Uiso   1.00
H651   H     0.30568   0.14121   0.60849   0.00000  Uiso   1.00
H652   H     0.02906   0.18219   0.89326   0.00000  Uiso   1.00
H653   H     0.00115   0.18810   0.97464   0.00000  Uiso   1.00
H654   H     0.00181   0.12707   0.52838   0.00000  Uiso   1.00
H655   H     0.18693   0.17669   0.58315   0.00000  Uiso   1.00
H656   H     0.15053   0.13266   0.92076   0.00000  Uiso   1.00
H657   H     0.29020   0.29308   0.70420   0.00000  Uiso   1.00
H658   H     0.04317   0.04026   0.79574   0.00000  Uiso   1.00
H659   H     0.19436   0.12309   0.80299   0.00000  Uiso   1.00
H660   H     0.13898   0.21024   0.69700   0.00000  Uiso   1.00
H661   H     0.10738   0.12322   0.80304   0.00000  Uiso   1.00
H662   H     0.22595   0.21011   0.69695   0.00000  Uiso   1.00
N663   N     0.11736   0.16668   0.74999   0.00000  Uiso   1.00
N664   N     0.21597   0.16666   0.75001   0.00000  Uiso   1.00
O665   O     0.03958   0.10655   0.75000   0.00000  Uiso   1.00
O666   O     0.29375   0.22678   0.75000   0.00000  Uiso   1.00
O667   O     0.29372   0.10654   0.75001   0.00000  Uiso   1.00
O668   O     0.03961   0.22679   0.74999   0.00000  Uiso   1.00
O669   O     0.01852   0.16668   0.81491   0.00000  Uiso   1.00
O670   O     0.31481   0.16666   0.68509   0.00000  Uiso   1.00
O671   O     0.27267   0.16667   0.81492   0.00000  Uiso   1.00
O672   O     0.06067   0.16667   0.68508   0.00000  Uiso   1.00
C673   C     0.28268   0.04109   0.69161   0.00000  Uiso   1.00
H674   H     0.30775   0.06327   0.66928   0.00000  Uiso   1.00
H675   H     0.27039   0.01843   0.67005   0.00000  Uiso   1.00
H676   H     0.25006   0.05752   0.71140   0.00000  Uiso   1.00
C677   C     0.05081   0.29227   0.80823   0.00000  Uiso   1.00
H678   H     0.02579   0.27007   0.83059   0.00000  Uiso   1.00
H679   H     0.08342   0.27586   0.78839   0.00000  Uiso   1.00
H680   H     0.06313   0.31494   0.82978   0.00000  Uiso   1.00
C681   C     0.33336   0.08744   0.74906   0.00000  Uiso   1.00
C682   C     0.66664   0.24589   0.75092   0.00000  Uiso   1.00
C683   C     0.52858   0.17319   0.54738   0.00000  Uiso   1.00
C684   C     0.47448   0.14126   0.95552   0.00000  Uiso   1.00
C685   C     0.57721   0.17803   0.52476   0.00000  Uiso   1.00
C686   C     0.42600   0.13565   0.97832   0.00000  Uiso   1.00
C687   C     0.64151   0.02036   0.72259   0.00000  Uiso   1.00
C688   C     0.35855   0.31299   0.77733   0.00000  Uiso   1.00
C689   C     0.64206   0.31085   0.72437   0.00000  Uiso   1.00
C690   C     0.35798   0.02249   0.77557   0.00000  Uiso   1.00
C691   C     0.33373   0.29053   0.75118   0.00000  Uiso   1.00
C692   C     0.66629   0.04282   0.74877   0.00000  Uiso   1.00
C693   C     0.51603   0.14251   0.77945   0.00000  Uiso   1.00
C694   C     0.48397   0.19081   0.72055   0.00000  Uiso   1.00
C695   C     0.46643   0.14256   0.77947   0.00000  Uiso   1.00
C696   C     0.53357   0.19077   0.72053   0.00000  Uiso   1.00
C697   C     0.63943   0.16678   0.83608   0.00000  Uiso   1.00
C698   C     0.36056   0.16609   0.66396   0.00000  Uiso   1.00
C699   C     0.62449   0.16754   0.88520   0.00000  Uiso   1.00
C700   C     0.37566   0.16179   0.61513   0.00000  Uiso   1.00
C701   C     0.64179   0.17985   0.95624   0.00000  Uiso   1.00
C702   C     0.36043   0.13885   0.54601   0.00000  Uiso   1.00
C703   C     0.65774   0.17656   0.90986   0.00000  Uiso   1.00
C704   C     0.34350   0.14718   0.59156   0.00000  Uiso   1.00
C705   C     0.57558   0.16056   0.90741   0.00000  Uiso   1.00
C706   C     0.42441   0.16888   0.59266   0.00000  Uiso   1.00
C707   C     0.55868   0.16269   0.95430   0.00000  Uiso   1.00
C708   C     0.44292   0.15906   0.54716   0.00000  Uiso   1.00
C709   C     0.59262   0.17342   0.97855   0.00000  Uiso   1.00
C710   C     0.40972   0.14464   0.52369   0.00000  Uiso   1.00
C711   C     0.50892   0.15579   0.97752   0.00000  Uiso   1.00
C712   C     0.49325   0.16308   0.52449   0.00000  Uiso   1.00
Cu713  Cu    0.38022   0.16667   0.75000   0.00000  Uiso   1.00
Cu714  Cu    0.61978   0.16666   0.75000   0.00000  Uiso   1.00
H715   H     0.60288   0.18598   0.54366   0.00000  Uiso   1.00
H716   H     0.40100   0.12420   0.96017   0.00000  Uiso   1.00
H717   H     0.44710   0.18219   0.61170   0.00000  Uiso   1.00
H718   H     0.55114   0.15472   0.88706   0.00000  Uiso   1.00
H719   H     0.63901   0.14121   0.60849   0.00000  Uiso   1.00
H720   H     0.36239   0.18219   0.89326   0.00000  Uiso   1.00
H721   H     0.33449   0.18810   0.97464   0.00000  Uiso   1.00
H722   H     0.33515   0.12707   0.52838   0.00000  Uiso   1.00
H723   H     0.52026   0.17669   0.58315   0.00000  Uiso   1.00
H724   H     0.48386   0.13266   0.92076   0.00000  Uiso   1.00
H725   H     0.62354   0.29308   0.70420   0.00000  Uiso   1.00
H726   H     0.37650   0.04026   0.79574   0.00000  Uiso   1.00
H727   H     0.52769   0.12309   0.80299   0.00000  Uiso   1.00
H728   H     0.47231   0.21024   0.69700   0.00000  Uiso   1.00
H729   H     0.44072   0.12322   0.80304   0.00000  Uiso   1.00
H730   H     0.55928   0.21011   0.69695   0.00000  Uiso   1.00
N731   N     0.45069   0.16668   0.74999   0.00000  Uiso   1.00
N732   N     0.54931   0.16666   0.75001   0.00000  Uiso   1.00
O733   O     0.37291   0.10655   0.75000   0.00000  Uiso   1.00
O734   O     0.62709   0.22678   0.75000   0.00000  Uiso   1.00
O735   O     0.62706   0.10654   0.75001   0.00000  Uiso   1.00
O736   O     0.37294   0.22679   0.74999   0.00000  Uiso   1.00
O737   O     0.35186   0.16668   0.81491   0.00000  Uiso   1.00
O738   O     0.64814   0.16666   0.68509   0.00000  Uiso   1.00
O739   O     0.60600   0.16667   0.81492   0.00000  Uiso   1.00
O740   O     0.39400   0.16667   0.68508   0.00000  Uiso   1.00
C741   C     0.61602   0.04109   0.69161   0.00000  Uiso   1.00
H742   H     0.64109   0.06327   0.66928   0.00000  Uiso   1.00
H743   H     0.60373   0.01843   0.67005   0.00000  Uiso   1.00
H744   H     0.58340   0.05752   0.71140   0.00000  Uiso   1.00
C745   C     0.38414   0.29227   0.80823   0.00000  Uiso   1.00
H746   H     0.35912   0.27007   0.83059   0.00000  Uiso   1.00
H747   H     0.41675   0.27586   0.78839   0.00000  Uiso   1.00
H748   H     0.39646   0.31494   0.82978   0.00000  Uiso   1.00
C749   C     0.66670   0.08744   0.74906   0.00000  Uiso   1.00
C750   C     0.99998   0.24589   0.75092   0.00000  Uiso   1.00
C751   C     0.86191   0.17319   0.54738   0.00000  Uiso   1.00
C752   C     0.80782   0.14126   0.95552   0.00000  Uiso   1.00
C753   C     0.91054   0.17803   0.52476   0.00000  Uiso   1.00
C754   C     0.75933   0.13565   0.97832   0.00000  Uiso   1.00
C755   C     0.97484   0.02036   0.72259   0.00000  Uiso   1.00
C756   C     0.69189   0.31299   0.77733   0.00000  Uiso   1.00
C757   C     0.97539   0.31085   0.72437   0.00000  Uiso   1.00
C758   C     0.69131   0.02249   0.77557   0.00000  Uiso   1.00
C759   C     0.66707   0.29053   0.75118   0.00000  Uiso   1.00
C760   C     0.99963   0.04282   0.74877   0.00000  Uiso   1.00
C761   C     0.84937   0.14251   0.77945   0.00000  Uiso   1.00
C762   C     0.81730   0.19081   0.72055   0.00000  Uiso   1.00
C763   C     0.79976   0.14256   0.77947   0.00000  Uiso   1.00
C764   C     0.86691   0.19077   0.72053   0.00000  Uiso   1.00
C765   C     0.97277   0.16678   0.83608   0.00000  Uiso   1.00
C766   C     0.69390   0.16609   0.66396   0.00000  Uiso   1.00
C767   C     0.95782   0.16754   0.88520   0.00000  Uiso   1.00
C768   C     0.70899   0.16179   0.61513   0.00000  Uiso   1.00
C769   C     0.97513   0.17985   0.95624   0.00000  Uiso   1.00
C770   C     0.69376   0.13885   0.54601   0.00000  Uiso   1.00
C771   C     0.99107   0.17656   0.90986   0.00000  Uiso   1.00
C772   C     0.67684   0.14718   0.59156   0.00000  Uiso   1.00
C773   C     0.90892   0.16056   0.90741   0.00000  Uiso   1.00
C774   C     0.75775   0.16888   0.59266   0.00000  Uiso   1.00
C775   C     0.89201   0.16269   0.95430   0.00000  Uiso   1.00
C776   C     0.77625   0.15906   0.54716   0.00000  Uiso   1.00
C777   C     0.92596   0.17342   0.97855   0.00000  Uiso   1.00
C778   C     0.74305   0.14464   0.52369   0.00000  Uiso   1.00
C779   C     0.84225   0.15579   0.97752   0.00000  Uiso   1.00
C780   C     0.82659   0.16308   0.52449   0.00000  Uiso   1.00
Cu781  Cu    0.71355   0.16667   0.75000   0.00000  Uiso   1.00
Cu782  Cu    0.95311   0.16666   0.75000   0.00000  Uiso   1.00
H783   H     0.93622   0.18598   0.54366   0.00000  Uiso   1.00
H784   H     0.73433   0.12420   0.96017   0.00000  Uiso   1.00
H785   H     0.78044   0.18219   0.61170   0.00000  Uiso   1.00
H786   H     0.88447   0.15472   0.88706   0.00000  Uiso   1.00
H787   H     0.97235   0.14121   0.60849   0.00000  Uiso   1.00
H788   H     0.69572   0.18219   0.89326   0.00000  Uiso   1.00
H789   H     0.66782   0.18810   0.97464   0.00000  Uiso   1.00
H790   H     0.66848   0.12707   0.52838   0.00000  Uiso   1.00
H791   H     0.85359   0.17669   0.58315   0.00000  Uiso   1.00
H792   H     0.81719   0.13266   0.92076   0.00000  Uiso   1.00
H793   H     0.95687   0.29308   0.70420   0.00000  Uiso   1.00
H794   H     0.70983   0.04026   0.79574   0.00000  Uiso   1.00
H795   H     0.86102   0.12309   0.80299   0.00000  Uiso   1.00
H796   H     0.80564   0.21024   0.69700   0.00000  Uiso   1.00
H797   H     0.77405   0.12322   0.80304   0.00000  Uiso   1.00
H798   H     0.89261   0.21011   0.69695   0.00000  Uiso   1.00
N799   N     0.78403   0.16668   0.74999   0.00000  Uiso   1.00
N800   N     0.88264   0.16666   0.75001   0.00000  Uiso   1.00
O801   O     0.70625   0.10655   0.75000   0.00000  Uiso   1.00
O802   O     0.96042   0.22678   0.75000   0.00000  Uiso   1.00
O803   O     0.96039   0.10654   0.75001   0.00000  Uiso   1.00
O804   O     0.70628   0.22679   0.74999   0.00000  Uiso   1.00
O805   O     0.68519   0.16668   0.81491   0.00000  Uiso   1.00
O806   O     0.98148   0.16666   0.68509   0.00000  Uiso   1.00
O807   O     0.93933   0.16667   0.81492   0.00000  Uiso   1.00
O808   O     0.72733   0.16667   0.68508   0.00000  Uiso   1.00
C809   C     0.94935   0.04109   0.69161   0.00000  Uiso   1.00
H810   H     0.97442   0.06327   0.66928   0.00000  Uiso   1.00
H811   H     0.93706   0.01843   0.67005   0.00000  Uiso   1.00
H812   H     0.91673   0.05752   0.71140   0.00000  Uiso   1.00
C813   C     0.71748   0.29227   0.80823   0.00000  Uiso   1.00
H814   H     0.69246   0.27007   0.83059   0.00000  Uiso   1.00
H815   H     0.75009   0.27586   0.78839   0.00000  Uiso   1.00
H816   H     0.72980   0.31494   0.82978   0.00000  Uiso   1.00
C817   C     0.00003   0.42078   0.74906   0.00000  Uiso   1.00
C818   C     0.33331   0.57923   0.75092   0.00000  Uiso   1.00
C819   C     0.19524   0.50652   0.54738   0.00000  Uiso   1.00
C820   C     0.14115   0.47460   0.95552   0.00000  Uiso   1.00
C821   C     0.24387   0.51136   0.52476   0.00000  Uiso   1.00
C822   C     0.09267   0.46899   0.97832   0.00000  Uiso   1.00
C823   C     0.30818   0.35369   0.72259   0.00000  Uiso   1.00
C824   C     0.02522   0.64632   0.77733   0.00000  Uiso   1.00
C825   C     0.30872   0.64418   0.72437   0.00000  Uiso   1.00
C826   C     0.02464   0.35583   0.77557   0.00000  Uiso   1.00
C827   C     0.00040   0.62386   0.75118   0.00000  Uiso   1.00
C828   C     0.33296   0.37615   0.74877   0.00000  Uiso   1.00
C829   C     0.18270   0.47585   0.77945   0.00000  Uiso   1.00
C830   C     0.15064   0.52415   0.72055   0.00000  Uiso   1.00
C831   C     0.13309   0.47589   0.77947   0.00000  Uiso   1.00
C832   C     0.20024   0.52410   0.72053   0.00000  Uiso   1.00
C833   C     0.30610   0.50012   0.83608   0.00000  Uiso   1.00
C834   C     0.02723   0.49943   0.66396   0.00000  Uiso   1.00
C835   C     0.29115   0.50087   0.88520   0.00000  Uiso   1.00
C836   C     0.04233   0.49512   0.61513   0.00000  Uiso   1.00
C837   C     0.30846   0.51319   0.95624   0.00000  Uiso   1.00
C838   C     0.02710   0.47218   0.54601   0.00000  Uiso   1.00
C839   C     0.32441   0.50989   0.90986   0.00000  Uiso   1.00
C840   C     0.01017   0.48051   0.59156   0.00000  Uiso   1.00
C841   C     0.24225   0.49389   0.90741   0.00000  Uiso   1.00
C842   C     0.09108   0.50221   0.59266   0.00000  Uiso   1.00
C843   C     0.22535   0.49602   0.95430   0.00000  Uiso   1.00
C844   C     0.10958   0.49239   0.54716   0.00000  Uiso   1.00
C845   C     0.25929   0.50676   0.97855   0.00000  Uiso   1.00
C846   C     0.07638   0.47797   0.52369   0.00000  Uiso   1.00
C847   C     0.17559   0.48912   0.97752   0.00000  Uiso   1.00
C848   C     0.15992   0.49642   0.52449   0.00000  Uiso   1.00
Cu849  Cu    0.04689   0.50001   0.75000   0.00000  Uiso   1.00
Cu850  Cu    0.28645   0.49999   0.75000   0.00000  Uiso   1.00
H851   H     0.26955   0.51931   0.54366   0.00000  Uiso   1.00
H852   H     0.06767   0.45753   0.96017   0.00000  Uiso   1.00
H853   H     0.11377   0.51553   0.61170   0.00000  Uiso   1.00
H854   H     0.21780   0.48805   0.88706   0.00000  Uiso   1.00
H855   H     0.30568   0.47454   0.60849   0.00000  Uiso   1.00
H856   H     0.02906   0.51552   0.89326   0.00000  Uiso   1.00
H857   H     0.00115   0.52144   0.97464   0.00000  Uiso   1.00
H858   H     0.00181   0.46040   0.52838   0.00000  Uiso   1.00
H859   H     0.18693   0.51002   0.58315   0.00000  Uiso   1.00
H860   H     0.15053   0.46599   0.92076   0.00000  Uiso   1.00
H861   H     0.29020   0.62641   0.70420   0.00000  Uiso   1.00
H862   H     0.04317   0.37360   0.79574   0.00000  Uiso   1.00
H863   H     0.19436   0.45642   0.80299   0.00000  Uiso   1.00
H864   H     0.13898   0.54357   0.69700   0.00000  Uiso   1.00
H865   H     0.10738   0.45655   0.80304   0.00000  Uiso   1.00
H866   H     0.22595   0.54345   0.69695   0.00000  Uiso   1.00
N867   N     0.11736   0.50001   0.74999   0.00000  Uiso   1.00
N868   N     0.21597   0.49999   0.75001   0.00000  Uiso   1.00
O869   O     0.03958   0.43989   0.75000   0.00000  Uiso   1.00
O870   O     0.29375   0.56011   0.75000   0.00000  Uiso   1.00
O871   O     0.29372   0.43988   0.75001   0.00000  Uiso   1.00
O872   O     0.03961   0.56012   0.74999   0.00000  Uiso   1.00
O873   O     0.01852   0.50001   0.81491   0.00000  Uiso   1.00
O874   O     0.31481   0.49999   0.68509   0.00000  Uiso   1.00
O875   O     0.27267   0.50000   0.81492   0.00000  Uiso   1.00
O876   O     0.06067   0.50000   0.68508   0.00000  Uiso   1.00
C877   C     0.28268   0.37442   0.69161   0.00000  Uiso   1.00
H878   H     0.30775   0.39661   0.66928   0.00000  Uiso   1.00
H879   H     0.27039   0.35176   0.67005   0.00000  Uiso   1.00
H880   H     0.25006   0.39086   0.71140   0.00000  Uiso   1.00
C881   C     0.05081   0.62560   0.80823   0.00000  Uiso   1.00
H882   H     0.02579   0.60340   0.83059   0.00000  Uiso   1.00
H883   H     0.08342   0.60920   0.78839   0.00000  Uiso   1.00
H884   H     0.06313   0.64827   0.82978   0.00000  Uiso   1.00
C885   C     0.33336   0.42078   0.74906   0.00000  Uiso   1.00
C886   C     0.66664   0.57923   0.75092   0.00000  Uiso   1.00
C887   C     0.52858   0.50652   0.54738   0.00000  Uiso   1.00
C888   C     0.47448   0.47460   0.95552   0.00000  Uiso   1.00
C889   C     0.57721   0.51136   0.52476   0.00000  Uiso   1.00
C890   C     0.42600   0.46899   0.97832   0.00000  Uiso   1.00
C891   C     0.64151   0.35369   0.72259   0.00000  Uiso   1.00
C892   C     0.35855   0.64632   0.77733   0.00000  Uiso   1.00
C893   C     0.64206   0.64418   0.72437   0.00000  Uiso   1.00
C894   C     0.35798   0.35583   0.77557   0.00000  Uiso   1.00
C895   C     0.33373   0.62386   0.75118   0.00000  Uiso   1.00
C896   C     0.66629   0.37615   0.74877   0.00000  Uiso   1.00
C897   C     0.51603   0.47585   0.77945   0.00000  Uiso   1.00
C898   C     0.48397   0.52415   0.72055   0.00000  Uiso   1.00
C899   C     0.46643   0.47589   0.77947   0.00000  Uiso   1.00
C900   C     0.53357   0.52410   0.72053   0.00000  Uiso   1.00
C901   C     0.63943   0.50012   0.83608   0.00000  Uiso   1.00
C902   C     0.36056   0.49943   0.66396   0.00000  Uiso   1.00
C903   C     0.62449   0.50087   0.88520   0.00000  Uiso   1.00
C904   C     0.37566   0.49512   0.61513   0.00000  Uiso   1.00
C905   C     0.64179   0.51319   0.95624   0.00000  Uiso   1.00
C906   C     0.36043   0.47218   0.54601   0.00000  Uiso   1.00
C907   C     0.65774   0.50989   0.90986   0.00000  Uiso   1.00
C908   C     0.34350   0.48051   0.59156   0.00000  Uiso   1.00
C909   C     0.57558   0.49389   0.90741   0.00000  Uiso   1.00
C910   C     0.42441   0.50221   0.59266   0.00000  Uiso   1.00
C911   C     0.55868   0.49602   0.95430   0.00000  Uiso   1.00
C912   C     0.44292   0.49239   0.54716   0.00000  Uiso   1.00
C913   C     0.59262   0.50676   0.97855   0.00000  Uiso   1.00
C914   C     0.40972   0.47797   0.52369   0.00000  Uiso   1.00
C915   C     0.50892   0.48912   0.97752   0.00000  Uiso   1.00
C916   C     0.49325   0.49642   0.52449   0.00000  Uiso   1.00
Cu917  Cu    0.38022   0.50001   0.75000   0.00000  Uiso   1.00
Cu918  Cu    0.61978   0.49999   0.75000   0.00000  Uiso   1.00
H919   H     0.60288   0.51931   0.54366   0.00000  Uiso   1.00
H920   H     0.40100   0.45753   0.96017   0.00000  Uiso   1.00
H921   H     0.44710   0.51553   0.61170   0.00000  Uiso   1.00
H922   H     0.55114   0.48805   0.88706   0.00000  Uiso   1.00
H923   H     0.63901   0.47454   0.60849   0.00000  Uiso   1.00
H924   H     0.36239   0.51552   0.89326   0.00000  Uiso   1.00
H925   H     0.33449   0.52144   0.97464   0.00000  Uiso   1.00
H926   H     0.33515   0.46040   0.52838   0.00000  Uiso   1.00
H927   H     0.52026   0.51002   0.58315   0.00000  Uiso   1.00
H928   H     0.48386   0.46599   0.92076   0.00000  Uiso   1.00
H929   H     0.62354   0.62641   0.70420   0.00000  Uiso   1.00
H930   H     0.37650   0.37360   0.79574   0.00000  Uiso   1.00
H931   H     0.52769   0.45642   0.80299   0.00000  Uiso   1.00
H932   H     0.47231   0.54357   0.69700   0.00000  Uiso   1.00
H933   H     0.44072   0.45655   0.80304   0.00000  Uiso   1.00
H934   H     0.55928   0.54345   0.69695   0.00000  Uiso   1.00
N935   N     0.45069   0.50001   0.74999   0.00000  Uiso   1.00
N936   N     0.54931   0.49999   0.75001   0.00000  Uiso   1.00
O937   O     0.37291   0.43989   0.75000   0.00000  Uiso   1.00
O938   O     0.62709   0.56011   0.75000   0.00000  Uiso   1.00
O939   O     0.62706   0.43988   0.75001   0.00000  Uiso   1.00
O940   O     0.37294   0.56012   0.74999   0.00000  Uiso   1.00
O941   O     0.35186   0.50001   0.81491   0.00000  Uiso   1.00
O942   O     0.64814   0.49999   0.68509   0.00000  Uiso   1.00
O943   O     0.60600   0.50000   0.81492   0.00000  Uiso   1.00
O944   O     0.39400   0.50000   0.68508   0.00000  Uiso   1.00
C945   C     0.61602   0.37442   0.69161   0.00000  Uiso   1.00
H946   H     0.64109   0.39661   0.66928   0.00000  Uiso   1.00
H947   H     0.60373   0.35176   0.67005   0.00000  Uiso   1.00
H948   H     0.58340   0.39086   0.71140   0.00000  Uiso   1.00
C949   C     0.38414   0.62560   0.80823   0.00000  Uiso   1.00
H950   H     0.35912   0.60340   0.83059   0.00000  Uiso   1.00
H951   H     0.41675   0.60920   0.78839   0.00000  Uiso   1.00
H952   H     0.39646   0.64827   0.82978   0.00000  Uiso   1.00
C953   C     0.66670   0.42078   0.74906   0.00000  Uiso   1.00
C954   C     0.99998   0.57923   0.75092   0.00000  Uiso   1.00
C955   C     0.86191   0.50652   0.54738   0.00000  Uiso   1.00
C956   C     0.80782   0.47460   0.95552   0.00000  Uiso   1.00
C957   C     0.91054   0.51136   0.52476   0.00000  Uiso   1.00
C958   C     0.75933   0.46899   0.97832   0.00000  Uiso   1.00
C959   C     0.97484   0.35369   0.72259   0.00000  Uiso   1.00
C960   C     0.69189   0.64632   0.77733   0.00000  Uiso   1.00
C961   C     0.97539   0.64418   0.72437   0.00000  Uiso   1.00
C962   C     0.69131   0.35583   0.77557   0.00000  Uiso   1.00
C963   C     0.66707   0.62386   0.75118   0.00000  Uiso   1.00
C964   C     0.99963   0.37615   0.74877   0.00000  Uiso   1.00
C965   C     0.84937   0.47585   0.77945   0.00000  Uiso   1.00
C966   C     0.81730   0.52415   0.72055   0.00000  Uiso   1.00
C967   C     0.79976   0.47589   0.77947   0.00000  Uiso   1.00
C968   C     0.86691   0.52410   0.72053   0.00000  Uiso   1.00
C969   C     0.97277   0.50012   0.83608   0.00000  Uiso   1.00
C970   C     0.69390   0.49943   0.66396   0.00000  Uiso   1.00
C971   C     0.95782   0.50087   0.88520   0.00000  Uiso   1.00
C972   C     0.70899   0.49512   0.61513   0.00000  Uiso   1.00
C973   C     0.97513   0.51319   0.95624   0.00000  Uiso   1.00
C974   C     0.69376   0.47218   0.54601   0.00000  Uiso   1.00
C975   C     0.99107   0.50989   0.90986   0.00000  Uiso   1.00
C976   C     0.67684   0.48051   0.59156   0.00000  Uiso   1.00
C977   C     0.90892   0.49389   0.90741   0.00000  Uiso   1.00
C978   C     0.75775   0.50221   0.59266   0.00000  Uiso   1.00
C979   C     0.89201   0.49602   0.95430   0.00000  Uiso   1.00
C980   C     0.77625   0.49239   0.54716   0.00000  Uiso   1.00
C981   C     0.92596   0.50676   0.97855   0.00000  Uiso   1.00
C982   C     0.74305   0.47797   0.52369   0.00000  Uiso   1.00
C983   C     0.84225   0.48912   0.97752   0.00000  Uiso   1.00
C984   C     0.82659   0.49642   0.52449   0.00000  Uiso   1.00
Cu985  Cu    0.71355   0.50001   0.75000   0.00000  Uiso   1.00
Cu986  Cu    0.95311   0.49999   0.75000   0.00000  Uiso   1.00
H987   H     0.93622   0.51931   0.54366   0.00000  Uiso   1.00
H988   H     0.73433   0.45753   0.96017   0.00000  Uiso   1.00
H989   H     0.78044   0.51553   0.61170   0.00000  Uiso   1.00
H990   H     0.88447   0.48805   0.88706   0.00000  Uiso   1.00
H991   H     0.97235   0.47454   0.60849   0.00000  Uiso   1.00
H992   H     0.69572   0.51552   0.89326   0.00000  Uiso   1.00
H993   H     0.66782   0.52144   0.97464   0.00000  Uiso   1.00
H994   H     0.66848   0.46040   0.52838   0.00000  Uiso   1.00
H995   H     0.85359   0.51002   0.58315   0.00000  Uiso   1.00
H996   H     0.81719   0.46599   0.92076   0.00000  Uiso   1.00
H997   H     0.95687   0.62641   0.70420   0.00000  Uiso   1.00
H998   H     0.70983   0.37360   0.79574   0.00000  Uiso   1.00
H999   H     0.86102   0.45642   0.80299   0.00000  Uiso   1.00
H1000  H     0.80564   0.54357   0.69700   0.00000  Uiso   1.00
H1001  H     0.77405   0.45655   0.80304   0.00000  Uiso   1.00
H1002  H     0.89261   0.54345   0.69695   0.00000  Uiso   1.00
N1003  N     0.78403   0.50001   0.74999   0.00000  Uiso   1.00
N1004  N     0.88264   0.49999   0.75001   0.00000  Uiso   1.00
O1005  O     0.70625   0.43989   0.75000   0.00000  Uiso   1.00
O1006  O     0.96042   0.56011   0.75000   0.00000  Uiso   1.00
O1007  O     0.96039   0.43988   0.75001   0.00000  Uiso   1.00
O1008  O     0.70628   0.56012   0.74999   0.00000  Uiso   1.00
O1009  O     0.68519   0.50001   0.81491   0.00000  Uiso   1.00
O1010  O     0.98148   0.49999   0.68509   0.00000  Uiso   1.00
O1011  O     0.93933   0.50000   0.81492   0.00000  Uiso   1.00
O1012  O     0.72733   0.50000   0.68508   0.00000  Uiso   1.00
C1013  C     0.94935   0.37442   0.69161   0.00000  Uiso   1.00
H1014  H     0.97442   0.39661   0.66928   0.00000  Uiso   1.00
H1015  H     0.93706   0.35176   0.67005   0.00000  Uiso   1.00
H1016  H     0.91673   0.39086   0.71140   0.00000  Uiso   1.00
C1017  C     0.71748   0.62560   0.80823   0.00000  Uiso   1.00
H1018  H     0.69246   0.60340   0.83059   0.00000  Uiso   1.00
H1019  H     0.75009   0.60920   0.78839   0.00000  Uiso   1.00
H1020  H     0.72980   0.64827   0.82978   0.00000  Uiso   1.00
C1021  C     0.00003   0.75411   0.74906   0.00000  Uiso   1.00
C1022  C     0.33331   0.91256   0.75092   0.00000  Uiso   1.00
C1023  C     0.19524   0.83985   0.54738   0.00000  Uiso   1.00
C1024  C     0.14115   0.80793   0.95552   0.00000  Uiso   1.00
C1025  C     0.24387   0.84470   0.52476   0.00000  Uiso   1.00
C1026  C     0.09267   0.80232   0.97832   0.00000  Uiso   1.00
C1027  C     0.30818   0.68703   0.72259   0.00000  Uiso   1.00
C1028  C     0.02522   0.97965   0.77733   0.00000  Uiso   1.00
C1029  C     0.30872   0.97752   0.72437   0.00000  Uiso   1.00
C1030  C     0.02464   0.68916   0.77557   0.00000  Uiso   1.00
C1031  C     0.00040   0.95719   0.75118   0.00000  Uiso   1.00
C1032  C     0.33296   0.70948   0.74877   0.00000  Uiso   1.00
C1033  C     0.18270   0.80918   0.77945   0.00000  Uiso   1.00
C1034  C     0.15064   0.85748   0.72055   0.00000  Uiso   1.00
C1035  C     0.13309   0.80923   0.77947   0.00000  Uiso   1.00
C1036  C     0.20024   0.85744   0.72053   0.00000  Uiso   1.00
C1037  C     0.30610   0.83345   0.83608   0.00000  Uiso   1.00
C1038  C     0.02723   0.83276   0.66396   0.00000  Uiso   1.00
C1039  C     0.29115   0.83420   0.88520   0.00000  Uiso   1.00
C1040  C     0.04233   0.82846   0.61513   0.00000  Uiso   1.00
C1041  C     0.30846   0.84652   0.95624   0.00000  Uiso   1.00
C1042  C     0.02710   0.80552   0.54601   0.00000  Uiso   1.00
C1043  C     0.32441   0.84322   0.90986   0.00000  Uiso   1.00
C1044  C     0.01017   0.81384   0.59156   0.00000  Uiso   1.00
C1045  C     0.24225   0.82723   0.90741   0.00000  Uiso   1.00
C1046  C     0.09108   0.83554   0.59266   0.00000  Uiso   1.00
C1047  C     0.22535   0.82936   0.95430   0.00000  Uiso   1.00
C1048  C     0.10958   0.82573   0.54716   0.00000  Uiso   1.00
C1049  C     0.25929   0.84009   0.97855   0.00000  Uiso   1.00
C1050  C     0.07638   0.81130   0.52369   0.00000  Uiso   1.00
C1051  C     0.17559   0.82246   0.97752   0.00000  Uiso   1.00
C1052  C     0.15992   0.82975   0.52449   0.00000  Uiso   1.00
Cu1053 Cu    0.04689   0.83334   0.75000   0.00000  Uiso   1.00
Cu1054 Cu    0.28645   0.83333   0.75000   0.00000  Uiso   1.00
H1055  H     0.26955   0.85265   0.54366   0.00000  Uiso   1.00
H1056  H     0.06767   0.79086   0.96017   0.00000  Uiso   1.00
H1057  H     0.11377   0.84886   0.61170   0.00000  Uiso   1.00
H1058  H     0.21780   0.82139   0.88706   0.00000  Uiso   1.00
H1059  H     0.30568   0.80788   0.60849   0.00000  Uiso   1.00
H1060  H     0.02906   0.84885   0.89326   0.00000  Uiso   1.00
H1061  H     0.00115   0.85477   0.97464   0.00000  Uiso   1.00
H1062  H     0.00181   0.79374   0.52838   0.00000  Uiso   1.00
H1063  H     0.18693   0.84335   0.58315   0.00000  Uiso   1.00
H1064  H     0.15053   0.79932   0.92076   0.00000  Uiso   1.00
H1065  H     0.29020   0.95975   0.70420   0.00000  Uiso   1.00
H1066  H     0.04317   0.70693   0.79574   0.00000  Uiso   1.00
H1067  H     0.19436   0.78976   0.80299   0.00000  Uiso   1.00
H1068  H     0.13898   0.87690   0.69700   0.00000  Uiso   1.00
H1069  H     0.10738   0.78988   0.80304   0.00000  Uiso   1.00
H1070  H     0.22595   0.87678   0.69695   0.00000  Uiso   1.00
N1071  N     0.11736   0.83334   0.74999   0.00000  Uiso   1.00
N1072  N     0.21597   0.83332   0.75001   0.00000  Uiso   1.00
O1073  O     0.03958   0.77322   0.75000   0.00000  Uiso   1.00
O1074  O     0.29375   0.89345   0.75000   0.00000  Uiso   1.00
O1075  O     0.29372   0.77321   0.75001   0.00000  Uiso   1.00
O1076  O     0.03961   0.89346   0.74999   0.00000  Uiso   1.00
O1077  O     0.01852   0.83334   0.81491   0.00000  Uiso   1.00
O1078  O     0.31481   0.83332   0.68509   0.00000  Uiso   1.00
O1079  O     0.27267   0.83333   0.81492   0.00000  Uiso   1.00
O1080  O     0.06067   0.83333   0.68508   0.00000  Uiso   1.00
C1081  C     0.28268   0.70776   0.69161   0.00000  Uiso   1.00
H1082  H     0.30775   0.72994   0.66928   0.00000  Uiso   1.00
H1083  H     0.27039   0.68509   0.67005   0.00000  Uiso   1.00
H1084  H     0.25006   0.72419   0.71140   0.00000  Uiso   1.00
C1085  C     0.05081   0.95893   0.80823   0.00000  Uiso   1.00
H1086  H     0.02579   0.93673   0.83059   0.00000  Uiso   1.00
H1087  H     0.08342   0.94253   0.78839   0.00000  Uiso   1.00
H1088  H     0.06313   0.98160   0.82978   0.00000  Uiso   1.00
C1089  C     0.33336   0.75411   0.74906   0.00000  Uiso   1.00
C1090  C     0.66664   0.91256   0.75092   0.00000  Uiso   1.00
C1091  C     0.52858   0.83985   0.54738   0.00000  Uiso   1.00
C1092  C     0.47448   0.80793   0.95552   0.00000  Uiso   1.00
C1093  C     0.57721   0.84470   0.52476   0.00000  Uiso   1.00
C1094  C     0.42600   0.80232   0.97832   0.00000  Uiso   1.00
C1095  C     0.64151   0.68703   0.72259   0.00000  Uiso   1.00
C1096  C     0.35855   0.97965   0.77733   0.00000  Uiso   1.00
C1097  C     0.64206   0.97752   0.72437   0.00000  Uiso   1.00
C1098  C     0.35798   0.68916   0.77557   0.00000  Uiso   1.00
C1099  C     0.33373   0.95719   0.75118   0.00000  Uiso   1.00
C1100  C     0.66629   0.70948   0.74877   0.00000  Uiso   1.00
C1101  C     0.51603   0.80918   0.77945   0.00000  Uiso   1.00
C1102  C     0.48397   0.85748   0.72055   0.00000  Uiso   1.00
C1103  C     0.46643   0.80923   0.77947   0.00000  Uiso   1.00
C1104  C     0.53357   0.85744   0.72053   0.00000  Uiso   1.00
C1105  C     0.63943   0.83345   0.83608   0.00000  Uiso   1.00
C1106  C     0.36056   0.83276   0.66396   0.00000  Uiso   1.00
C1107  C     0.62449   0.83420   0.88520   0.00000  Uiso   1.00
C1108  C     0.37566   0.82846   0.61513   0.00000  Uiso   1.00
C1109  C     0.64179   0.84652   0.95624   0.00000  Uiso   1.00
C1110  C     0.36043   0.80552   0.54601   0.00000  Uiso   1.00
C1111  C     0.65774   0.84322   0.90986   0.00000  Uiso   1.00
C1112  C     0.34350   0.81384   0.59156   0.00000  Uiso   1.00
C1113  C     0.57558   0.82723   0.90741   0.00000  Uiso   1.00
C1114  C     0.42441   0.83554   0.59266   0.00000  Uiso   1.00
C1115  C     0.55868   0.82936   0.95430   0.00000  Uiso   1.00
C1116  C     0.44292   0.82573   0.54716   0.00000  Uiso   1.00
C1117  C     0.59262   0.84009   0.97855   0.00000  Uiso   1.00
C1118  C     0.40972   0.81130   0.52369   0.00000  Uiso   1.00
C1119  C     0.50892   0.82246   0.97752   0.00000  Uiso   1.00
C1120  C     0.49325   0.82975   0.52449   0.00000  Uiso   1.00
Cu1121 Cu    0.38022   0.83334   0.75000   0.00000  Uiso   1.00
Cu1122 Cu    0.61978   0.83333   0.75000   0.00000  Uiso   1.00
H1123  H     0.60288   0.85265   0.54366   0.00000  Uiso   1.00
H1124  H     0.40100   0.79086   0.96017   0.00000  Uiso   1.00
H1125  H     0.44710   0.84886   0.61170   0.00000  Uiso   1.00
H1126  H     0.55114   0.82139   0.88706   0.00000  Uiso   1.00
H1127  H     0.63901   0.80788   0.60849   0.00000  Uiso   1.00
H1128  H     0.36239   0.84885   0.89326   0.00000  Uiso   1.00
H1129  H     0.33449   0.85477   0.97464   0.00000  Uiso   1.00
H1130  H     0.33515   0.79374   0.52838   0.00000  Uiso   1.00
H1131  H     0.52026   0.84335   0.58315   0.00000  Uiso   1.00
H1132  H     0.48386   0.79932   0.92076   0.00000  Uiso   1.00
H1133  H     0.62354   0.95975   0.70420   0.00000  Uiso   1.00
H1134  H     0.37650   0.70693   0.79574   0.00000  Uiso   1.00
H1135  H     0.52769   0.78976   0.80299   0.00000  Uiso   1.00
H1136  H     0.47231   0.87690   0.69700   0.00000  Uiso   1.00
H1137  H     0.44072   0.78988   0.80304   0.00000  Uiso   1.00
H1138  H     0.55928   0.87678   0.69695   0.00000  Uiso   1.00
N1139  N     0.45069   0.83334   0.74999   0.00000  Uiso   1.00
N1140  N     0.54931   0.83332   0.75001   0.00000  Uiso   1.00
O1141  O     0.37291   0.77322   0.75000   0.00000  Uiso   1.00
O1142  O     0.62709   0.89345   0.75000   0.00000  Uiso   1.00
O1143  O     0.62706   0.77321   0.75001   0.00000  Uiso   1.00
O1144  O     0.37294   0.89346   0.74999   0.00000  Uiso   1.00
O1145  O     0.35186   0.83334   0.81491   0.00000  Uiso   1.00
O1146  O     0.64814   0.83332   0.68509   0.00000  Uiso   1.00
O1147  O     0.60600   0.83333   0.81492   0.00000  Uiso   1.00
O1148  O     0.39400   0.83333   0.68508   0.00000  Uiso   1.00
C1149  C     0.61602   0.70776   0.69161   0.00000  Uiso   1.00
H1150  H     0.64109   0.72994   0.66928   0.00000  Uiso   1.00
H1151  H     0.60373   0.68509   0.67005   0.00000  Uiso   1.00
H1152  H     0.58340   0.72419   0.71140   0.00000  Uiso   1.00
C1153  C     0.38414   0.95893   0.80823   0.00000  Uiso   1.00
H1154  H     0.35912   0.93673   0.83059   0.00000  Uiso   1.00
H1155  H     0.41675   0.94253   0.78839   0.00000  Uiso   1.00
H1156  H     0.39646   0.98160   0.82978   0.00000  Uiso   1.00
C1157  C     0.66670   0.75411   0.74906   0.00000  Uiso   1.00
C1158  C     0.99998   0.91256   0.75092   0.00000  Uiso   1.00
C1159  C     0.86191   0.83985   0.54738   0.00000  Uiso   1.00
C1160  C     0.80782   0.80793   0.95552   0.00000  Uiso   1.00
C1161  C     0.91054   0.84470   0.52476   0.00000  Uiso   1.00
C1162  C     0.75933   0.80232   0.97832   0.00000  Uiso   1.00
C1163  C     0.97484   0.68703   0.72259   0.00000  Uiso   1.00
C1164  C     0.69189   0.97965   0.77733   0.00000  Uiso   1.00
C1165  C     0.97539   0.97752   0.72437   0.00000  Uiso   1.00
C1166  C     0.69131   0.68916   0.77557   0.00000  Uiso   1.00
C1167  C     0.66707   0.95719   0.75118   0.00000  Uiso   1.00
C1168  C     0.99963   0.70948   0.74877   0.00000  Uiso   1.00
C1169  C     0.84937   0.80918   0.77945   0.00000  Uiso   1.00
C1170  C     0.81730   0.85748   0.72055   0.00000  Uiso   1.00
C1171  C     0.79976   0.80923   0.77947   0.00000  Uiso   1.00
C1172  C     0.86691   0.85744   0.72053   0.00000  Uiso   1.00
C1173  C     0.97277   0.83345   0.83608   0.00000  Uiso   1.00
C1174  C     0.69390   0.83276   0.66396   0.00000  Uiso   1.00
C1175  C     0.95782   0.83420   0.88520   0.00000  Uiso   1.00
C1176  C     0.70899   0.82846   0.61513   0.00000  Uiso   1.00
C1177  C     0.97513   0.84652   0.95624   0.00000  Uiso   1.00
C1178  C     0.69376   0.80552   0.54601   0.00000  Uiso   1.00
C1179  C     0.99107   0.84322   0.90986   0.00000  Uiso   1.00
C1180  C     0.67684   0.81384   0.59156   0.00000  Uiso   1.00
C1181  C     0.90892   0.82723   0.90741   0.00000  Uiso   1.00
C1182  C     0.75775   0.83554   0.59266   0.00000  Uiso   1.00
C1183  C     0.89201   0.82936   0.95430   0.00000  Uiso   1.00
C1184  C     0.77625   0.82573   0.54716   0.00000  Uiso   1.00
C1185  C     0.92596   0.84009   0.97855   0.00000  Uiso   1.00
C1186  C     0.74305   0.81130   0.52369   0.00000  Uiso   1.00
C1187  C     0.84225   0.82246   0.97752   0.00000  Uiso   1.00
C1188  C     0.82659   0.82975   0.52449   0.00000  Uiso   1.00
Cu1189 Cu    0.71355   0.83334   0.75000   0.00000  Uiso   1.00
Cu1190 Cu    0.95311   0.83333   0.75000   0.00000  Uiso   1.00
H1191  H     0.93622   0.85265   0.54366   0.00000  Uiso   1.00
H1192  H     0.73433   0.79086   0.96017   0.00000  Uiso   1.00
H1193  H     0.78044   0.84886   0.61170   0.00000  Uiso   1.00
H1194  H     0.88447   0.82139   0.88706   0.00000  Uiso   1.00
H1195  H     0.97235   0.80788   0.60849   0.00000  Uiso   1.00
H1196  H     0.69572   0.84885   0.89326   0.00000  Uiso   1.00
H1197  H     0.66782   0.85477   0.97464   0.00000  Uiso   1.00
H1198  H     0.66848   0.79374   0.52838   0.00000  Uiso   1.00
H1199  H     0.85359   0.84335   0.58315   0.00000  Uiso   1.00
H1200  H     0.81719   0.79932   0.92076   0.00000  Uiso   1.00
H1201  H     0.95687   0.95975   0.70420   0.00000  Uiso   1.00
H1202  H     0.70983   0.70693   0.79574   0.00000  Uiso   1.00
H1203  H     0.86102   0.78976   0.80299   0.00000  Uiso   1.00
H1204  H     0.80564   0.87690   0.69700   0.00000  Uiso   1.00
H1205  H     0.77405   0.78988   0.80304   0.00000  Uiso   1.00
H1206  H     0.89261   0.87678   0.69695   0.00000  Uiso   1.00
N1207  N     0.78403   0.83334   0.74999   0.00000  Uiso   1.00
N1208  N     0.88264   0.83332   0.75001   0.00000  Uiso   1.00
O1209  O     0.70625   0.77322   0.75000   0.00000  Uiso   1.00
O1210  O     0.96042   0.89345   0.75000   0.00000  Uiso   1.00
O1211  O     0.96039   0.77321   0.75001   0.00000  Uiso   1.00
O1212  O     0.70628   0.89346   0.74999   0.00000  Uiso   1.00
O1213  O     0.68519   0.83334   0.81491   0.00000  Uiso   1.00
O1214  O     0.98148   0.83332   0.68509   0.00000  Uiso   1.00
O1215  O     0.93933   0.83333   0.81492   0.00000  Uiso   1.00
O1216  O     0.72733   0.83333   0.68508   0.00000  Uiso   1.00
C1217  C     0.94935   0.70776   0.69161   0.00000  Uiso   1.00
H1218  H     0.97442   0.72994   0.66928   0.00000  Uiso   1.00
H1219  H     0.93706   0.68509   0.67005   0.00000  Uiso   1.00
H1220  H     0.91673   0.72419   0.71140   0.00000  Uiso   1.00
C1221  C     0.71748   0.95893   0.80823   0.00000  Uiso   1.00
H1222  H     0.69246   0.93673   0.83059   0.00000  Uiso   1.00
H1223  H     0.75009   0.94253   0.78839   0.00000  Uiso   1.00
H1224  H     0.72980   0.98160   0.82978   0.00000  Uiso   1.00
loop_
_geom_bond_atom_site_label_1
_geom_bond_atom_site_label_2
_geom_bond_distance
_geom_bond_site_symmetry_2
_ccdc_geom_bond_type
C1     O53     1.292   .     A
C1     C148    1.447   1_455 S
C1     O191    1.288   1_455 S
C2     O54     1.292   .     A
C2     C79     1.447   .     S
C2     O124    1.288   .     S
C3     C5      1.386   .     A
C3     H43     1.076   .     S
C3     C32     1.417   .     A
C4     H44     1.076   .     S
C4     C6      1.387   .     A
C4     C31     1.417   .     A
C5     H35     1.084   .     S
C5     C641    1.390   1_554 S
C6     H36     1.084   .     S
C6     C642    1.390   .     S
C7     C12     1.411   .     A
C7     C61     1.510   .     S
C7     C417    1.390   1_545 S
C8     C11     1.412   .     A
C8     C65     1.510   .     S
C8     C214    1.390   .     S
C9     H45     1.085   .     S
C9     C211    1.390   .     S
C9     C79     1.399   .     S
C10    H46     1.085   .     S
C10    C416    1.390   1_545 S
C10    C148    1.398   1_455 S
C11    C145    1.399   1_455 S
C11    C138    1.447   1_455 S
C12    C69     1.447   .     S
C12    C78     1.398   .     S
C13    N52     1.368   .     A
C13    C15     1.417   .     A
C13    H47     1.082   .     S
C14    C16     1.417   .     A
C14    H48     1.082   .     S
C14    N51     1.368   .     A
C15    N51     1.367   .     A
C15    H49     1.082   .     S
C16    N52     1.367   .     A
C16    H50     1.082   .     S
C17    O59     1.295   .     A
C17    C19     1.467   .     S
C17    O125    1.296   .     S
C18    O60     1.294   .     A
C18    C20     1.466   .     S
C18    O194    1.296   1_455 S
C19    C23     1.399   .     A
C19    C25     1.399   .     A
C20    C24     1.399   .     A
C20    C26     1.398   .     A
C21    C29     1.404   .     A
C21    C23     1.391   .     A
C21    H109    1.083   .     S
C22    C24     1.392   .     A
C22    H42     1.084   .     S
C22    C30     1.404   .     A
C23    H108    1.083   .     S
C24    H175    1.083   1_455 S
C25    H38     1.075   .     S
C25    C27     1.405   .     A
C26    H37     1.075   .     S
C26    C28     1.405   .     A
C27    C29     1.418   .     A
C27    C31     1.427   .     A
C28    C32     1.426   .     A
C28    C30     1.418   .     A
C29    C617    1.390   .     S
C30    C618    1.390   1_554 S
C31    C644    1.425   .     S
C32    C643    1.425   1_554 S
Cu33   N51     2.013   .     S
Cu33   O57     1.957   .     S
Cu33   O56     1.962   .     S
Cu33   O60     1.944   .     S
Cu33   O53     1.959   .     S
Cu33   Cu170   2.679   1_455 S
Cu34   N52     2.013   .     S
Cu34   O55     1.962   .     S
Cu34   O54     1.959   .     S
Cu34   O58     1.957   .     S
Cu34   O59     1.944   .     S
Cu34   Cu101   2.679   .     S
H39    C92     1.083   .     S
H40    C159    1.083   1_455 S
H41    C157    1.083   1_455 S
O55    C69     1.288   .     S
O56    C138    1.288   1_455 S
O57    C153    1.296   1_455 S
O58    C86     1.296   .     S
C61    H64     1.110   .     S
C61    H62     1.111   .     S
C61    H63     1.111   .     S
C65    H68     1.111   .     S
C65    H66     1.111   .     S
C65    H67     1.110   .     S
C69    O121    1.292   .     A
C70    O122    1.292   .     A
C70    C147    1.447   .     S
C70    O192    1.288   .     S
C71    C73     1.386   .     A
C71    H111    1.076   .     S
C71    C100    1.417   .     A
C72    H112    1.076   .     S
C72    C74     1.387   .     A
C72    C99     1.417   .     A
C73    H103    1.084   .     S
C73    C709    1.390   1_554 S
C74    H104    1.084   .     S
C74    C710    1.390   .     S
C75    C80     1.411   .     A
C75    C129    1.510   .     S
C75    C485    1.390   1_545 S
C76    C79     1.412   .     A
C76    C133    1.510   .     S
C76    C282    1.390   .     S
C77    H113    1.085   .     S
C77    C279    1.390   .     S
C77    C147    1.399   .     S
C78    H114    1.085   .     S
C78    C484    1.390   1_545 S
C80    C137    1.447   .     S
C80    C146    1.398   .     S
C81    N120    1.368   .     A
C81    C83     1.417   .     A
C81    H115    1.082   .     S
C82    C84     1.417   .     A
C82    H116    1.082   .     S
C82    N119    1.368   .     A
C83    N119    1.367   .     A
C83    H117    1.082   .     S
C84    N120    1.367   .     A
C84    H118    1.082   .     S
C85    O127    1.295   .     A
C85    C87     1.467   .     S
C85    O193    1.296   .     S
C86    O128    1.294   .     A
C86    C88     1.466   .     S
C87    C91     1.399   .     A
C87    C93     1.399   .     A
C88    C92     1.399   .     A
C88    C94     1.398   .     A
C89    C97     1.404   .     A
C89    C91     1.391   .     A
C89    H177    1.083   .     S
C90    C92     1.392   .     A
C90    H110    1.084   .     S
C90    C98     1.404   .     A
C91    H176    1.083   .     S
C93    H106    1.075   .     S
C93    C95     1.405   .     A
C94    H105    1.075   .     S
C94    C96     1.405   .     A
C95    C97     1.418   .     A
C95    C99     1.427   .     A
C96    C100    1.426   .     A
C96    C98     1.418   .     A
C97    C685    1.390   .     S
C98    C686    1.390   1_554 S
C99    C712    1.425   .     S
C100   C711    1.425   1_554 S
Cu101  N119    2.013   .     S
Cu101  O125    1.957   .     S
Cu101  O124    1.962   .     S
Cu101  O128    1.944   .     S
Cu101  O121    1.959   .     S
Cu102  N120    2.013   .     S
Cu102  O123    1.962   .     S
Cu102  O122    1.959   .     S
Cu102  O126    1.957   .     S
Cu102  O127    1.944   .     S
Cu102  Cu169   2.679   .     S
H107   C160    1.083   .     S
O123   C137    1.288   .     S
O126   C154    1.296   .     S
C129   H132    1.110   .     S
C129   H130    1.111   .     S
C129   H131    1.111   .     S
C133   H136    1.111   .     S
C133   H134    1.111   .     S
C133   H135    1.110   .     S
C137   O189    1.292   .     A
C138   O190    1.292   .     A
C138   C11     1.447   1_655 S
C138   O56     1.288   1_655 S
C139   C141    1.386   .     A
C139   H179    1.076   .     S
C139   C168    1.417   .     A
C140   H180    1.076   .     S
C140   C142    1.387   .     A
C140   C167    1.417   .     A
C141   H171    1.084   .     S
C141   C777    1.390   1_554 S
C142   H172    1.084   .     S
C142   C778    1.390   .     S
C143   C148    1.411   .     A
C143   C197    1.510   .     S
C143   C553    1.390   1_545 S
C144   C147    1.412   .     A
C144   C201    1.510   .     S
C144   C350    1.390   .     S
C145   H181    1.085   .     S
C145   C347    1.390   .     S
C145   C11     1.399   1_655 S
C146   H182    1.085   .     S
C146   C552    1.390   1_545 S
C148   C1      1.447   1_655 S
C148   C10     1.398   1_655 S
C149   N188    1.368   .     A
C149   C151    1.417   .     A
C149   H183    1.082   .     S
C150   C152    1.417   .     A
C150   H184    1.082   .     S
C150   N187    1.368   .     A
C151   N187    1.367   .     A
C151   H185    1.082   .     S
C152   N188    1.367   .     A
C152   H186    1.082   .     S
C153   O195    1.295   .     A
C153   C155    1.467   .     S
C153   O57     1.296   1_655 S
C154   O196    1.294   .     A
C154   C156    1.466   .     S
C155   C159    1.399   .     A
C155   C161    1.399   .     A
C156   C160    1.399   .     A
C156   C162    1.398   .     A
C157   C165    1.404   .     A
C157   C159    1.391   .     A
C157   H41     1.083   1_655 S
C158   C160    1.392   .     A
C158   H178    1.084   .     S
C158   C166    1.404   .     A
C159   H40     1.083   1_655 S
C161   H174    1.075   .     S
C161   C163    1.405   .     A
C162   H173    1.075   .     S
C162   C164    1.405   .     A
C163   C165    1.418   .     A
C163   C167    1.427   .     A
C164   C168    1.426   .     A
C164   C166    1.418   .     A
C165   C753    1.390   .     S
C166   C754    1.390   1_554 S
C167   C780    1.425   .     S
C168   C779    1.425   1_554 S
Cu169  N187    2.013   .     S
Cu169  O193    1.957   .     S
Cu169  O192    1.962   .     S
Cu169  O196    1.944   .     S
Cu169  O189    1.959   .     S
Cu170  N188    2.013   .     S
Cu170  O191    1.962   .     S
Cu170  O190    1.959   .     S
Cu170  O194    1.957   .     S
Cu170  O195    1.944   .     S
Cu170  Cu33    2.679   1_655 S
H175   C24     1.083   1_655 S
O191   C1      1.288   1_655 S
O194   C18     1.296   1_655 S
C197   H200    1.110   .     S
C197   H198    1.111   .     S
C197   H199    1.111   .     S
C201   H204    1.111   .     S
C201   H202    1.111   .     S
C201   H203    1.110   .     S
C205   O257    1.292   .     A
C205   C352    1.447   1_455 S
C205   O395    1.288   1_455 S
C206   O258    1.292   .     A
C206   C283    1.447   .     S
C206   O328    1.288   .     S
C207   C209    1.386   .     A
C207   H247    1.076   .     S
C207   C236    1.417   .     A
C208   H248    1.076   .     S
C208   C210    1.387   .     A
C208   C235    1.417   .     A
C209   H239    1.084   .     S
C209   C845    1.390   1_554 S
C210   H240    1.084   .     S
C210   C846    1.390   .     S
C211   C216    1.411   .     A
C211   C265    1.510   .     S
C212   C215    1.412   .     A
C212   C269    1.510   .     S
C212   C418    1.390   .     S
C213   H249    1.085   .     S
C213   C415    1.390   .     S
C213   C283    1.399   .     S
C214   H250    1.085   .     S
C214   C352    1.398   1_455 S
C215   C349    1.399   1_455 S
C215   C342    1.447   1_455 S
C216   C273    1.447   .     S
C216   C282    1.398   .     S
C217   N256    1.368   .     A
C217   C219    1.417   .     A
C217   H251    1.082   .     S
C218   C220    1.417   .     A
C218   H252    1.082   .     S
C218   N255    1.368   .     A
C219   N255    1.367   .     A
C219   H253    1.082   .     S
C220   N256    1.367   .     A
C220   H254    1.082   .     S
C221   O263    1.295   .     A
C221   C223    1.467   .     S
C221   O329    1.296   .     S
C222   O264    1.294   .     A
C222   C224    1.466   .     S
C222   O398    1.296   1_455 S
C223   C227    1.399   .     A
C223   C229    1.399   .     A
C224   C228    1.399   .     A
C224   C230    1.398   .     A
C225   C233    1.404   .     A
C225   C227    1.391   .     A
C225   H313    1.083   .     S
C226   C228    1.392   .     A
C226   H246    1.084   .     S
C226   C234    1.404   .     A
C227   H312    1.083   .     S
C228   H379    1.083   1_455 S
C229   H242    1.075   .     S
C229   C231    1.405   .     A
C230   H241    1.075   .     S
C230   C232    1.405   .     A
C231   C233    1.418   .     A
C231   C235    1.427   .     A
C232   C236    1.426   .     A
C232   C234    1.418   .     A
C233   C821    1.390   .     S
C234   C822    1.390   1_554 S
C235   C848    1.425   .     S
C236   C847    1.425   1_554 S
Cu237  N255    2.013   .     S
Cu237  O261    1.957   .     S
Cu237  O260    1.962   .     S
Cu237  O264    1.944   .     S
Cu237  O257    1.959   .     S
Cu237  Cu374   2.679   1_455 S
Cu238  N256    2.013   .     S
Cu238  O259    1.962   .     S
Cu238  O258    1.959   .     S
Cu238  O262    1.957   .     S
Cu238  O263    1.944   .     S
Cu238  Cu305   2.679   .     S
H243   C296    1.083   .     S
H244   C363    1.083   1_455 S
H245   C361    1.083   1_455 S
O259   C273    1.288   .     S
O260   C342    1.288   1_455 S
O261   C357    1.296   1_455 S
O262   C290    1.296   .     S
C265   H268    1.110   .     S
C265   H266    1.111   .     S
C265   H267    1.111   .     S
C269   H272    1.111   .     S
C269   H270    1.111   .     S
C269   H271    1.110   .     S
C273   O325    1.292   .     A
C274   O326    1.292   .     A
C274   C351    1.447   .     S
C274   O396    1.288   .     S
C275   C277    1.386   .     A
C275   H315    1.076   .     S
C275   C304    1.417   .     A
C276   H316    1.076   .     S
C276   C278    1.387   .     A
C276   C303    1.417   .     A
C277   H307    1.084   .     S
C277   C913    1.390   1_554 S
C278   H308    1.084   .     S
C278   C914    1.390   .     S
C279   C284    1.411   .     A
C279   C333    1.510   .     S
C280   C283    1.412   .     A
C280   C337    1.510   .     S
C280   C486    1.390   .     S
C281   H317    1.085   .     S
C281   C483    1.390   .     S
C281   C351    1.399   .     S
C282   H318    1.085   .     S
C284   C341    1.447   .     S
C284   C350    1.398   .     S
C285   N324    1.368   .     A
C285   C287    1.417   .     A
C285   H319    1.082   .     S
C286   C288    1.417   .     A
C286   H320    1.082   .     S
C286   N323    1.368   .     A
C287   N323    1.367   .     A
C287   H321    1.082   .     S
C288   N324    1.367   .     A
C288   H322    1.082   .     S
C289   O331    1.295   .     A
C289   C291    1.467   .     S
C289   O397    1.296   .     S
C290   O332    1.294   .     A
C290   C292    1.466   .     S
C291   C295    1.399   .     A
C291   C297    1.399   .     A
C292   C296    1.399   .     A
C292   C298    1.398   .     A
C293   C301    1.404   .     A
C293   C295    1.391   .     A
C293   H381    1.083   .     S
C294   C296    1.392   .     A
C294   H314    1.084   .     S
C294   C302    1.404   .     A
C295   H380    1.083   .     S
C297   H310    1.075   .     S
C297   C299    1.405   .     A
C298   H309    1.075   .     S
C298   C300    1.405   .     A
C299   C301    1.418   .     A
C299   C303    1.427   .     A
C300   C304    1.426   .     A
C300   C302    1.418   .     A
C301   C889    1.390   .     S
C302   C890    1.390   1_554 S
C303   C916    1.425   .     S
C304   C915    1.425   1_554 S
Cu305  N323    2.013   .     S
Cu305  O329    1.957   .     S
Cu305  O328    1.962   .     S
Cu305  O332    1.944   .     S
Cu305  O325    1.959   .     S
Cu306  N324    2.013   .     S
Cu306  O327    1.962   .     S
Cu306  O326    1.959   .     S
Cu306  O330    1.957   .     S
Cu306  O331    1.944   .     S
Cu306  Cu373   2.679   .     S
H311   C364    1.083   .     S
O327   C341    1.288   .     S
O330   C358    1.296   .     S
C333   H336    1.110   .     S
C333   H334    1.111   .     S
C333   H335    1.111   .     S
C337   H340    1.111   .     S
C337   H338    1.111   .     S
C337   H339    1.110   .     S
C341   O393    1.292   .     A
C342   O394    1.292   .     A
C342   C215    1.447   1_655 S
C342   O260    1.288   1_655 S
C343   C345    1.386   .     A
C343   H383    1.076   .     S
C343   C372    1.417   .     A
C344   H384    1.076   .     S
C344   C346    1.387   .     A
C344   C371    1.417   .     A
C345   H375    1.084   .     S
C345   C981    1.390   1_554 S
C346   H376    1.084   .     S
C346   C982    1.390   .     S
C347   C352    1.411   .     A
C347   C401    1.510   .     S
C348   C351    1.412   .     A
C348   C405    1.510   .     S
C348   C554    1.390   .     S
C349   H385    1.085   .     S
C349   C551    1.390   .     S
C349   C215    1.399   1_655 S
C350   H386    1.085   .     S
C352   C205    1.447   1_655 S
C352   C214    1.398   1_655 S
C353   N392    1.368   .     A
C353   C355    1.417   .     A
C353   H387    1.082   .     S
C354   C356    1.417   .     A
C354   H388    1.082   .     S
C354   N391    1.368   .     A
C355   N391    1.367   .     A
C355   H389    1.082   .     S
C356   N392    1.367   .     A
C356   H390    1.082   .     S
C357   O399    1.295   .     A
C357   C359    1.467   .     S
C357   O261    1.296   1_655 S
C358   O400    1.294   .     A
C358   C360    1.466   .     S
C359   C363    1.399   .     A
C359   C365    1.399   .     A
C360   C364    1.399   .     A
C360   C366    1.398   .     A
C361   C369    1.404   .     A
C361   C363    1.391   .     A
C361   H245    1.083   1_655 S
C362   C364    1.392   .     A
C362   H382    1.084   .     S
C362   C370    1.404   .     A
C363   H244    1.083   1_655 S
C365   H378    1.075   .     S
C365   C367    1.405   .     A
C366   H377    1.075   .     S
C366   C368    1.405   .     A
C367   C369    1.418   .     A
C367   C371    1.427   .     A
C368   C372    1.426   .     A
C368   C370    1.418   .     A
C369   C957    1.390   .     S
C370   C958    1.390   1_554 S
C371   C984    1.425   .     S
C372   C983    1.425   1_554 S
Cu373  N391    2.013   .     S
Cu373  O397    1.957   .     S
Cu373  O396    1.962   .     S
Cu373  O400    1.944   .     S
Cu373  O393    1.959   .     S
Cu374  N392    2.013   .     S
Cu374  O395    1.962   .     S
Cu374  O394    1.959   .     S
Cu374  O398    1.957   .     S
Cu374  O399    1.944   .     S
Cu374  Cu237   2.679   1_655 S
H379   C228    1.083   1_655 S
O395   C205    1.288   1_655 S
O398   C222    1.296   1_655 S
C401   H404    1.110   .     S
C401   H402    1.111   .     S
C401   H403    1.111   .     S
C405   H408    1.111   .     S
C405   H406    1.111   .     S
C405   H407    1.110   .     S
C409   O461    1.292   .     A
C409   C556    1.447   1_455 S
C409   O599    1.288   1_455 S
C410   O462    1.292   .     A
C410   C487    1.447   .     S
C410   O532    1.288   .     S
C411   C413    1.386   .     A
C411   H451    1.076   .     S
C411   C440    1.417   .     A
C412   H452    1.076   .     S
C412   C414    1.387   .     A
C412   C439    1.417   .     A
C413   H443    1.084   .     S
C413   C1049   1.390   1_554 S
C414   H444    1.084   .     S
C414   C1050   1.390   .     S
C415   C420    1.411   .     A
C415   C469    1.510   .     S
C416   C419    1.412   .     A
C416   C473    1.510   .     S
C416   C10     1.390   1_565 S
C417   H453    1.085   .     S
C417   C7      1.390   1_565 S
C417   C487    1.399   .     S
C418   H454    1.085   .     S
C418   C556    1.398   1_455 S
C419   C553    1.399   1_455 S
C419   C546    1.447   1_455 S
C420   C477    1.447   .     S
C420   C486    1.398   .     S
C421   N460    1.368   .     A
C421   C423    1.417   .     A
C421   H455    1.082   .     S
C422   C424    1.417   .     A
C422   H456    1.082   .     S
C422   N459    1.368   .     A
C423   N459    1.367   .     A
C423   H457    1.082   .     S
C424   N460    1.367   .     A
C424   H458    1.082   .     S
C425   O467    1.295   .     A
C425   C427    1.467   .     S
C425   O533    1.296   .     S
C426   O468    1.294   .     A
C426   C428    1.466   .     S
C426   O602    1.296   1_455 S
C427   C431    1.399   .     A
C427   C433    1.399   .     A
C428   C432    1.399   .     A
C428   C434    1.398   .     A
C429   C437    1.404   .     A
C429   C431    1.391   .     A
C429   H517    1.083   .     S
C430   C432    1.392   .     A
C430   H450    1.084   .     S
C430   C438    1.404   .     A
C431   H516    1.083   .     S
C432   H583    1.083   1_455 S
C433   H446    1.075   .     S
C433   C435    1.405   .     A
C434   H445    1.075   .     S
C434   C436    1.405   .     A
C435   C437    1.418   .     A
C435   C439    1.427   .     A
C436   C440    1.426   .     A
C436   C438    1.418   .     A
C437   C1025   1.390   .     S
C438   C1026   1.390   1_554 S
C439   C1052   1.425   .     S
C440   C1051   1.425   1_554 S
Cu441  N459    2.013   .     S
Cu441  O465    1.957   .     S
Cu441  O464    1.962   .     S
Cu441  O468    1.944   .     S
Cu441  O461    1.959   .     S
Cu441  Cu578   2.679   1_455 S
Cu442  N460    2.013   .     S
Cu442  O463    1.962   .     S
Cu442  O462    1.959   .     S
Cu442  O466    1.957   .     S
Cu442  O467    1.944   .     S
Cu442  Cu509   2.679   .     S
H447   C500    1.083   .     S
H448   C567    1.083   1_455 S
H449   C565    1.083   1_455 S
O463   C477    1.288   .     S
O464   C546    1.288   1_455 S
O465   C561    1.296   1_455 S
O466   C494    1.296   .     S
C469   H472    1.110   .     S
C469   H470    1.111   .     S
C469   H471    1.111   .     S
C473   H476    1.111   .     S
C473   H474    1.111   .     S
C473   H475    1.110   .     S
C477   O529    1.292   .     A
C478   O530    1.292   .     A
C478   C555    1.447   .     S
C478   O600    1.288   .     S
C479   C481    1.386   .     A
C479   H519    1.076   .     S
C479   C508    1.417   .     A
C480   H520    1.076   .     S
C480   C482    1.387   .     A
C480   C507    1.417   .     A
C481   H511    1.084   .     S
C481   C1117   1.390   1_554 S
C482   H512    1.084   .     S
C482   C1118   1.390   .     S
C483   C488    1.411   .     A
C483   C537    1.510   .     S
C484   C487    1.412   .     A
C484   C541    1.510   .     S
C484   C78     1.390   1_565 S
C485   H521    1.085   .     S
C485   C75     1.390   1_565 S
C485   C555    1.399   .     S
C486   H522    1.085   .     S
C488   C545    1.447   .     S
C488   C554    1.398   .     S
C489   N528    1.368   .     A
C489   C491    1.417   .     A
C489   H523    1.082   .     S
C490   C492    1.417   .     A
C490   H524    1.082   .     S
C490   N527    1.368   .     A
C491   N527    1.367   .     A
C491   H525    1.082   .     S
C492   N528    1.367   .     A
C492   H526    1.082   .     S
C493   O535    1.295   .     A
C493   C495    1.467   .     S
C493   O601    1.296   .     S
C494   O536    1.294   .     A
C494   C496    1.466   .     S
C495   C499    1.399   .     A
C495   C501    1.399   .     A
C496   C500    1.399   .     A
C496   C502    1.398   .     A
C497   C505    1.404   .     A
C497   C499    1.391   .     A
C497   H585    1.083   .     S
C498   C500    1.392   .     A
C498   H518    1.084   .     S
C498   C506    1.404   .     A
C499   H584    1.083   .     S
C501   H514    1.075   .     S
C501   C503    1.405   .     A
C502   H513    1.075   .     S
C502   C504    1.405   .     A
C503   C505    1.418   .     A
C503   C507    1.427   .     A
C504   C508    1.426   .     A
C504   C506    1.418   .     A
C505   C1093   1.390   .     S
C506   C1094   1.390   1_554 S
C507   C1120   1.425   .     S
C508   C1119   1.425   1_554 S
Cu509  N527    2.013   .     S
Cu509  O533    1.957   .     S
Cu509  O532    1.962   .     S
Cu509  O536    1.944   .     S
Cu509  O529    1.959   .     S
Cu510  N528    2.013   .     S
Cu510  O531    1.962   .     S
Cu510  O530    1.959   .     S
Cu510  O534    1.957   .     S
Cu510  O535    1.944   .     S
Cu510  Cu577   2.679   .     S
H515   C568    1.083   .     S
O531   C545    1.288   .     S
O534   C562    1.296   .     S
C537   H540    1.110   .     S
C537   H538    1.111   .     S
C537   H539    1.111   .     S
C541   H544    1.111   .     S
C541   H542    1.111   .     S
C541   H543    1.110   .     S
C545   O597    1.292   .     A
C546   O598    1.292   .     A
C546   C419    1.447   1_655 S
C546   O464    1.288   1_655 S
C547   C549    1.386   .     A
C547   H587    1.076   .     S
C547   C576    1.417   .     A
C548   H588    1.076   .     S
C548   C550    1.387   .     A
C548   C575    1.417   .     A
C549   H579    1.084   .     S
C549   C1185   1.390   1_554 S
C550   H580    1.084   .     S
C550   C1186   1.390   .     S
C551   C556    1.411   .     A
C551   C605    1.510   .     S
C552   C555    1.412   .     A
C552   C609    1.510   .     S
C552   C146    1.390   1_565 S
C553   H589    1.085   .     S
C553   C143    1.390   1_565 S
C553   C419    1.399   1_655 S
C554   H590    1.085   .     S
C556   C409    1.447   1_655 S
C556   C418    1.398   1_655 S
C557   N596    1.368   .     A
C557   C559    1.417   .     A
C557   H591    1.082   .     S
C558   C560    1.417   .     A
C558   H592    1.082   .     S
C558   N595    1.368   .     A
C559   N595    1.367   .     A
C559   H593    1.082   .     S
C560   N596    1.367   .     A
C560   H594    1.082   .     S
C561   O603    1.295   .     A
C561   C563    1.467   .     S
C561   O465    1.296   1_655 S
C562   O604    1.294   .     A
C562   C564    1.466   .     S
C563   C567    1.399   .     A
C563   C569    1.399   .     A
C564   C568    1.399   .     A
C564   C570    1.398   .     A
C565   C573    1.404   .     A
C565   C567    1.391   .     A
C565   H449    1.083   1_655 S
C566   C568    1.392   .     A
C566   H586    1.084   .     S
C566   C574    1.404   .     A
C567   H448    1.083   1_655 S
C569   H582    1.075   .     S
C569   C571    1.405   .     A
C570   H581    1.075   .     S
C570   C572    1.405   .     A
C571   C573    1.418   .     A
C571   C575    1.427   .     A
C572   C576    1.426   .     A
C572   C574    1.418   .     A
C573   C1161   1.390   .     S
C574   C1162   1.390   1_554 S
C575   C1188   1.425   .     S
C576   C1187   1.425   1_554 S
Cu577  N595    2.013   .     S
Cu577  O601    1.957   .     S
Cu577  O600    1.962   .     S
Cu577  O604    1.944   .     S
Cu577  O597    1.959   .     S
Cu578  N596    2.013   .     S
Cu578  O599    1.962   .     S
Cu578  O598    1.959   .     S
Cu578  O602    1.957   .     S
Cu578  O603    1.944   .     S
Cu578  Cu441   2.679   1_655 S
H583   C432    1.083   1_655 S
O599   C409    1.288   1_655 S
O602   C426    1.296   1_655 S
C605   H608    1.110   .     S
C605   H606    1.111   .     S
C605   H607    1.111   .     S
C609   H612    1.111   .     S
C609   H610    1.111   .     S
C609   H611    1.110   .     S
C613   O665    1.292   .     A
C613   C760    1.447   1_455 S
C613   O803    1.288   1_455 S
C614   O666    1.292   .     A
C614   C691    1.447   .     S
C614   O736    1.288   .     S
C615   C617    1.386   .     A
C615   H655    1.076   .     S
C615   C644    1.417   .     A
C616   H656    1.076   .     S
C616   C618    1.387   .     A
C616   C643    1.417   .     A
C617   H647    1.084   .     S
C618   H648    1.084   .     S
C618   C30     1.390   1_556 S
C619   C624    1.411   .     A
C619   C673    1.510   .     S
C619   C1029   1.390   1_545 S
C620   C623    1.412   .     A
C620   C677    1.510   .     S
C620   C826    1.390   .     S
C621   H657    1.085   .     S
C621   C823    1.390   .     S
C621   C691    1.399   .     S
C622   H658    1.085   .     S
C622   C1028   1.390   1_545 S
C622   C760    1.398   1_455 S
C623   C757    1.399   1_455 S
C623   C750    1.447   1_455 S
C624   C681    1.447   .     S
C624   C690    1.398   .     S
C625   N664    1.368   .     A
C625   C627    1.417   .     A
C625   H659    1.082   .     S
C626   C628    1.417   .     A
C626   H660    1.082   .     S
C626   N663    1.368   .     A
C627   N663    1.367   .     A
C627   H661    1.082   .     S
C628   N664    1.367   .     A
C628   H662    1.082   .     S
C629   O671    1.295   .     A
C629   C631    1.467   .     S
C629   O737    1.296   .     S
C630   O672    1.294   .     A
C630   C632    1.466   .     S
C630   O806    1.296   1_455 S
C631   C635    1.399   .     A
C631   C637    1.399   .     A
C632   C636    1.399   .     A
C632   C638    1.398   .     A
C633   C641    1.404   .     A
C633   C635    1.391   .     A
C633   H721    1.083   .     S
C634   C636    1.392   .     A
C634   H654    1.084   .     S
C634   C642    1.404   .     A
C635   H720    1.083   .     S
C636   H787    1.083   1_455 S
C637   H650    1.075   .     S
C637   C639    1.405   .     A
C638   H649    1.075   .     S
C638   C640    1.405   .     A
C639   C641    1.418   .     A
C639   C643    1.427   .     A
C640   C644    1.426   .     A
C640   C642    1.418   .     A
C641   C5      1.390   1_556 S
C643   C32     1.425   1_556 S
Cu645  N663    2.013   .     S
Cu645  O669    1.957   .     S
Cu645  O668    1.962   .     S
Cu645  O672    1.944   .     S
Cu645  O665    1.959   .     S
Cu645  Cu782   2.679   1_455 S
Cu646  N664    2.013   .     S
Cu646  O667    1.962   .     S
Cu646  O666    1.959   .     S
Cu646  O670    1.957   .     S
Cu646  O671    1.944   .     S
Cu646  Cu713   2.679   .     S
H651   C704    1.083   .     S
H652   C771    1.083   1_455 S
H653   C769    1.083   1_455 S
O667   C681    1.288   .     S
O668   C750    1.288   1_455 S
O669   C765    1.296   1_455 S
O670   C698    1.296   .     S
C673   H676    1.110   .     S
C673   H674    1.111   .     S
C673   H675    1.111   .     S
C677   H680    1.111   .     S
C677   H678    1.111   .     S
C677   H679    1.110   .     S
C681   O733    1.292   .     A
C682   O734    1.292   .     A
C682   C759    1.447   .     S
C682   O804    1.288   .     S
C683   C685    1.386   .     A
C683   H723    1.076   .     S
C683   C712    1.417   .     A
C684   H724    1.076   .     S
C684   C686    1.387   .     A
C684   C711    1.417   .     A
C685   H715    1.084   .     S
C686   H716    1.084   .     S
C686   C98     1.390   1_556 S
C687   C692    1.411   .     A
C687   C741    1.510   .     S
C687   C1097   1.390   1_545 S
C688   C691    1.412   .     A
C688   C745    1.510   .     S
C688   C894    1.390   .     S
C689   H725    1.085   .     S
C689   C891    1.390   .     S
C689   C759    1.399   .     S
C690   H726    1.085   .     S
C690   C1096   1.390   1_545 S
C692   C749    1.447   .     S
C692   C758    1.398   .     S
C693   N732    1.368   .     A
C693   C695    1.417   .     A
C693   H727    1.082   .     S
C694   C696    1.417   .     A
C694   H728    1.082   .     S
C694   N731    1.368   .     A
C695   N731    1.367   .     A
C695   H729    1.082   .     S
C696   N732    1.367   .     A
C696   H730    1.082   .     S
C697   O739    1.295   .     A
C697   C699    1.467   .     S
C697   O805    1.296   .     S
C698   O740    1.294   .     A
C698   C700    1.466   .     S
C699   C703    1.399   .     A
C699   C705    1.399   .     A
C700   C704    1.399   .     A
C700   C706    1.398   .     A
C701   C709    1.404   .     A
C701   C703    1.391   .     A
C701   H789    1.083   .     S
C702   C704    1.392   .     A
C702   H722    1.084   .     S
C702   C710    1.404   .     A
C703   H788    1.083   .     S
C705   H718    1.075   .     S
C705   C707    1.405   .     A
C706   H717    1.075   .     S
C706   C708    1.405   .     A
C707   C709    1.418   .     A
C707   C711    1.427   .     A
C708   C712    1.426   .     A
C708   C710    1.418   .     A
C709   C73     1.390   1_556 S
C711   C100    1.425   1_556 S
Cu713  N731    2.013   .     S
Cu713  O737    1.957   .     S
Cu713  O736    1.962   .     S
Cu713  O740    1.944   .     S
Cu713  O733    1.959   .     S
Cu714  N732    2.013   .     S
Cu714  O735    1.962   .     S
Cu714  O734    1.959   .     S
Cu714  O738    1.957   .     S
Cu714  O739    1.944   .     S
Cu714  Cu781   2.679   .     S
H719   C772    1.083   .     S
O735   C749    1.288   .     S
O738   C766    1.296   .     S
C741   H744    1.110   .     S
C741   H742    1.111   .     S
C741   H743    1.111   .     S
C745   H748    1.111   .     S
C745   H746    1.111   .     S
C745   H747    1.110   .     S
C749   O801    1.292   .     A
C750   O802    1.292   .     A
C750   C623    1.447   1_655 S
C750   O668    1.288   1_655 S
C751   C753    1.386   .     A
C751   H791    1.076   .     S
C751   C780    1.417   .     A
C752   H792    1.076   .     S
C752   C754    1.387   .     A
C752   C779    1.417   .     A
C753   H783    1.084   .     S
C754   H784    1.084   .     S
C754   C166    1.390   1_556 S
C755   C760    1.411   .     A
C755   C809    1.510   .     S
C755   C1165   1.390   1_545 S
C756   C759    1.412   .     A
C756   C813    1.510   .     S
C756   C962    1.390   .     S
C757   H793    1.085   .     S
C757   C959    1.390   .     S
C757   C623    1.399   1_655 S
C758   H794    1.085   .     S
C758   C1164   1.390   1_545 S
C760   C613    1.447   1_655 S
C760   C622    1.398   1_655 S
C761   N800    1.368   .     A
C761   C763    1.417   .     A
C761   H795    1.082   .     S
C762   C764    1.417   .     A
C762   H796    1.082   .     S
C762   N799    1.368   .     A
C763   N799    1.367   .     A
C763   H797    1.082   .     S
C764   N800    1.367   .     A
C764   H798    1.082   .     S
C765   O807    1.295   .     A
C765   C767    1.467   .     S
C765   O669    1.296   1_655 S
C766   O808    1.294   .     A
C766   C768    1.466   .     S
C767   C771    1.399   .     A
C767   C773    1.399   .     A
C768   C772    1.399   .     A
C768   C774    1.398   .     A
C769   C777    1.404   .     A
C769   C771    1.391   .     A
C769   H653    1.083   1_655 S
C770   C772    1.392   .     A
C770   H790    1.084   .     S
C770   C778    1.404   .     A
C771   H652    1.083   1_655 S
C773   H786    1.075   .     S
C773   C775    1.405   .     A
C774   H785    1.075   .     S
C774   C776    1.405   .     A
C775   C777    1.418   .     A
C775   C779    1.427   .     A
C776   C780    1.426   .     A
C776   C778    1.418   .     A
C777   C141    1.390   1_556 S
C779   C168    1.425   1_556 S
Cu781  N799    2.013   .     S
Cu781  O805    1.957   .     S
Cu781  O804    1.962   .     S
Cu781  O808    1.944   .     S
Cu781  O801    1.959   .     S
Cu782  N800    2.013   .     S
Cu782  O803    1.962   .     S
Cu782  O802    1.959   .     S
Cu782  O806    1.957   .     S
Cu782  O807    1.944   .     S
Cu782  Cu645   2.679   1_655 S
H787   C636    1.083   1_655 S
O803   C613    1.288   1_655 S
O806   C630    1.296   1_655 S
C809   H812    1.110   .     S
C809   H810    1.111   .     S
C809   H811    1.111   .     S
C813   H816    1.111   .     S
C813   H814    1.111   .     S
C813   H815    1.110   .     S
C817   O869    1.292   .     A
C817   C964    1.447   1_455 S
C817   O1007   1.288   1_455 S
C818   O870    1.292   .     A
C818   C895    1.447   .     S
C818   O940    1.288   .     S
C819   C821    1.386   .     A
C819   H859    1.076   .     S
C819   C848    1.417   .     A
C820   H860    1.076   .     S
C820   C822    1.387   .     A
C820   C847    1.417   .     A
C821   H851    1.084   .     S
C822   H852    1.084   .     S
C822   C234    1.390   1_556 S
C823   C828    1.411   .     A
C823   C877    1.510   .     S
C824   C827    1.412   .     A
C824   C881    1.510   .     S
C824   C1030   1.390   .     S
C825   H861    1.085   .     S
C825   C1027   1.390   .     S
C825   C895    1.399   .     S
C826   H862    1.085   .     S
C826   C964    1.398   1_455 S
C827   C961    1.399   1_455 S
C827   C954    1.447   1_455 S
C828   C885    1.447   .     S
C828   C894    1.398   .     S
C829   N868    1.368   .     A
C829   C831    1.417   .     A
C829   H863    1.082   .     S
C830   C832    1.417   .     A
C830   H864    1.082   .     S
C830   N867    1.368   .     A
C831   N867    1.367   .     A
C831   H865    1.082   .     S
C832   N868    1.367   .     A
C832   H866    1.082   .     S
C833   O875    1.295   .     A
C833   C835    1.467   .     S
C833   O941    1.296   .     S
C834   O876    1.294   .     A
C834   C836    1.466   .     S
C834   O1010   1.296   1_455 S
C835   C839    1.399   .     A
C835   C841    1.399   .     A
C836   C840    1.399   .     A
C836   C842    1.398   .     A
C837   C845    1.404   .     A
C837   C839    1.391   .     A
C837   H925    1.083   .     S
C838   C840    1.392   .     A
C838   H858    1.084   .     S
C838   C846    1.404   .     A
C839   H924    1.083   .     S
C840   H991    1.083   1_455 S
C841   H854    1.075   .     S
C841   C843    1.405   .     A
C842   H853    1.075   .     S
C842   C844    1.405   .     A
C843   C845    1.418   .     A
C843   C847    1.427   .     A
C844   C848    1.426   .     A
C844   C846    1.418   .     A
C845   C209    1.390   1_556 S
C847   C236    1.425   1_556 S
Cu849  N867    2.013   .     S
Cu849  O873    1.957   .     S
Cu849  O872    1.962   .     S
Cu849  O876    1.944   .     S
Cu849  O869    1.959   .     S
Cu849  Cu986   2.679   1_455 S
Cu850  N868    2.013   .     S
Cu850  O871    1.962   .     S
Cu850  O870    1.959   .     S
Cu850  O874    1.957   .     S
Cu850  O875    1.944   .     S
Cu850  Cu917   2.679   .     S
H855   C908    1.083   .     S
H856   C975    1.083   1_455 S
H857   C973    1.083   1_455 S
O871   C885    1.288   .     S
O872   C954    1.288   1_455 S
O873   C969    1.296   1_455 S
O874   C902    1.296   .     S
C877   H880    1.110   .     S
C877   H878    1.111   .     S
C877   H879    1.111   .     S
C881   H884    1.111   .     S
C881   H882    1.111   .     S
C881   H883    1.110   .     S
C885   O937    1.292   .     A
C886   O938    1.292   .     A
C886   C963    1.447   .     S
C886   O1008   1.288   .     S
C887   C889    1.386   .     A
C887   H927    1.076   .     S
C887   C916    1.417   .     A
C888   H928    1.076   .     S
C888   C890    1.387   .     A
C888   C915    1.417   .     A
C889   H919    1.084   .     S
C890   H920    1.084   .     S
C890   C302    1.390   1_556 S
C891   C896    1.411   .     A
C891   C945    1.510   .     S
C892   C895    1.412   .     A
C892   C949    1.510   .     S
C892   C1098   1.390   .     S
C893   H929    1.085   .     S
C893   C1095   1.390   .     S
C893   C963    1.399   .     S
C894   H930    1.085   .     S
C896   C953    1.447   .     S
C896   C962    1.398   .     S
C897   N936    1.368   .     A
C897   C899    1.417   .     A
C897   H931    1.082   .     S
C898   C900    1.417   .     A
C898   H932    1.082   .     S
C898   N935    1.368   .     A
C899   N935    1.367   .     A
C899   H933    1.082   .     S
C900   N936    1.367   .     A
C900   H934    1.082   .     S
C901   O943    1.295   .     A
C901   C903    1.467   .     S
C901   O1009   1.296   .     S
C902   O944    1.294   .     A
C902   C904    1.466   .     S
C903   C907    1.399   .     A
C903   C909    1.399   .     A
C904   C908    1.399   .     A
C904   C910    1.398   .     A
C905   C913    1.404   .     A
C905   C907    1.391   .     A
C905   H993    1.083   .     S
C906   C908    1.392   .     A
C906   H926    1.084   .     S
C906   C914    1.404   .     A
C907   H992    1.083   .     S
C909   H922    1.075   .     S
C909   C911    1.405   .     A
C910   H921    1.075   .     S
C910   C912    1.405   .     A
C911   C913    1.418   .     A
C911   C915    1.427   .     A
C912   C916    1.426   .     A
C912   C914    1.418   .     A
C913   C277    1.390   1_556 S
C915   C304    1.425   1_556 S
Cu917  N935    2.013   .     S
Cu917  O941    1.957   .     S
Cu917  O940    1.962   .     S
Cu917  O944    1.944   .     S
Cu917  O937    1.959   .     S
Cu918  N936    2.013   .     S
Cu918  O939    1.962   .     S
Cu918  O938    1.959   .     S
Cu918  O942    1.957   .     S
Cu918  O943    1.944   .     S
Cu918  Cu985   2.679   .     S
H923   C976    1.083   .     S
O939   C953    1.288   .     S
O942   C970    1.296   .     S
C945   H948    1.110   .     S
C945   H946    1.111   .     S
C945   H947    1.111   .     S
C949   H952    1.111   .     S
C949   H950    1.111   .     S
C949   H951    1.110   .     S
C953   O1005   1.292   .     A
C954   O1006   1.292   .     A
C954   C827    1.447   1_655 S
C954   O872    1.288   1_655 S
C955   C957    1.386   .     A
C955   H995    1.076   .     S
C955   C984    1.417   .     A
C956   H996    1.076   .     S
C956   C958    1.387   .     A
C956   C983    1.417   .     A
C957   H987    1.084   .     S
C958   H988    1.084   .     S
C958   C370    1.390   1_556 S
C959   C964    1.411   .     A
C959   C1013   1.510   .     S
C960   C963    1.412   .     A
C960   C1017   1.510   .     S
C960   C1166   1.390   .     S
C961   H997    1.085   .     S
C961   C1163   1.390   .     S
C961   C827    1.399   1_655 S
C962   H998    1.085   .     S
C964   C817    1.447   1_655 S
C964   C826    1.398   1_655 S
C965   N1004   1.368   .     A
C965   C967    1.417   .     A
C965   H999    1.082   .     S
C966   C968    1.417   .     A
C966   H1000   1.082   .     S
C966   N1003   1.368   .     A
C967   N1003   1.367   .     A
C967   H1001   1.082   .     S
C968   N1004   1.367   .     A
C968   H1002   1.082   .     S
C969   O1011   1.295   .     A
C969   C971    1.467   .     S
C969   O873    1.296   1_655 S
C970   O1012   1.294   .     A
C970   C972    1.466   .     S
C971   C975    1.399   .     A
C971   C977    1.399   .     A
C972   C976    1.399   .     A
C972   C978    1.398   .     A
C973   C981    1.404   .     A
C973   C975    1.391   .     A
C973   H857    1.083   1_655 S
C974   C976    1.392   .     A
C974   H994    1.084   .     S
C974   C982    1.404   .     A
C975   H856    1.083   1_655 S
C977   H990    1.075   .     S
C977   C979    1.405   .     A
C978   H989    1.075   .     S
C978   C980    1.405   .     A
C979   C981    1.418   .     A
C979   C983    1.427   .     A
C980   C984    1.426   .     A
C980   C982    1.418   .     A
C981   C345    1.390   1_556 S
C983   C372    1.425   1_556 S
Cu985  N1003   2.013   .     S
Cu985  O1009   1.957   .     S
Cu985  O1008   1.962   .     S
Cu985  O1012   1.944   .     S
Cu985  O1005   1.959   .     S
Cu986  N1004   2.013   .     S
Cu986  O1007   1.962   .     S
Cu986  O1006   1.959   .     S
Cu986  O1010   1.957   .     S
Cu986  O1011   1.944   .     S
Cu986  Cu849   2.679   1_655 S
H991   C840    1.083   1_655 S
O1007  C817    1.288   1_655 S
O1010  C834    1.296   1_655 S
C1013  H1016   1.110   .     S
C1013  H1014   1.111   .     S
C1013  H1015   1.111   .     S
C1017  H1020   1.111   .     S
C1017  H1018   1.111   .     S
C1017  H1019   1.110   .     S
C1021  O1073   1.292   .     A
C1021  C1168   1.447   1_455 S
C1021  O1211   1.288   1_455 S
C1022  O1074   1.292   .     A
C1022  C1099   1.447   .     S
C1022  O1144   1.288   .     S
C1023  C1025   1.386   .     A
C1023  H1063   1.076   .     S
C1023  C1052   1.417   .     A
C1024  H1064   1.076   .     S
C1024  C1026   1.387   .     A
C1024  C1051   1.417   .     A
C1025  H1055   1.084   .     S
C1026  H1056   1.084   .     S
C1026  C438    1.390   1_556 S
C1027  C1032   1.411   .     A
C1027  C1081   1.510   .     S
C1028  C1031   1.412   .     A
C1028  C1085   1.510   .     S
C1028  C622    1.390   1_565 S
C1029  H1065   1.085   .     S
C1029  C619    1.390   1_565 S
C1029  C1099   1.399   .     S
C1030  H1066   1.085   .     S
C1030  C1168   1.398   1_455 S
C1031  C1165   1.399   1_455 S
C1031  C1158   1.447   1_455 S
C1032  C1089   1.447   .     S
C1032  C1098   1.398   .     S
C1033  N1072   1.368   .     A
C1033  C1035   1.417   .     A
C1033  H1067   1.082   .     S
C1034  C1036   1.417   .     A
C1034  H1068   1.082   .     S
C1034  N1071   1.368   .     A
C1035  N1071   1.367   .     A
C1035  H1069   1.082   .     S
C1036  N1072   1.367   .     A
C1036  H1070   1.082   .     S
C1037  O1079   1.295   .     A
C1037  C1039   1.467   .     S
C1037  O1145   1.296   .     S
C1038  O1080   1.294   .     A
C1038  C1040   1.466   .     S
C1038  O1214   1.296   1_455 S
C1039  C1043   1.399   .     A
C1039  C1045   1.399   .     A
C1040  C1044   1.399   .     A
C1040  C1046   1.398   .     A
C1041  C1049   1.404   .     A
C1041  C1043   1.391   .     A
C1041  H1129   1.083   .     S
C1042  C1044   1.392   .     A
C1042  H1062   1.084   .     S
C1042  C1050   1.404   .     A
C1043  H1128   1.083   .     S
C1044  H1195   1.083   1_455 S
C1045  H1058   1.075   .     S
C1045  C1047   1.405   .     A
C1046  H1057   1.075   .     S
C1046  C1048   1.405   .     A
C1047  C1049   1.418   .     A
C1047  C1051   1.427   .     A
C1048  C1052   1.426   .     A
C1048  C1050   1.418   .     A
C1049  C413    1.390   1_556 S
C1051  C440    1.425   1_556 S
Cu1053 N1071   2.013   .     S
Cu1053 O1077   1.957   .     S
Cu1053 O1076   1.962   .     S
Cu1053 O1080   1.944   .     S
Cu1053 O1073   1.959   .     S
Cu1053 Cu1190  2.679   1_455 S
Cu1054 N1072   2.013   .     S
Cu1054 O1075   1.962   .     S
Cu1054 O1074   1.959   .     S
Cu1054 O1078   1.957   .     S
Cu1054 O1079   1.944   .     S
Cu1054 Cu1121  2.679   .     S
H1059  C1112   1.083   .     S
H1060  C1179   1.083   1_455 S
H1061  C1177   1.083   1_455 S
O1075  C1089   1.288   .     S
O1076  C1158   1.288   1_455 S
O1077  C1173   1.296   1_455 S
O1078  C1106   1.296   .     S
C1081  H1084   1.110   .     S
C1081  H1082   1.111   .     S
C1081  H1083   1.111   .     S
C1085  H1088   1.111   .     S
C1085  H1086   1.111   .     S
C1085  H1087   1.110   .     S
C1089  O1141   1.292   .     A
C1090  O1142   1.292   .     A
C1090  C1167   1.447   .     S
C1090  O1212   1.288   .     S
C1091  C1093   1.386   .     A
C1091  H1131   1.076   .     S
C1091  C1120   1.417   .     A
C1092  H1132   1.076   .     S
C1092  C1094   1.387   .     A
C1092  C1119   1.417   .     A
C1093  H1123   1.084   .     S
C1094  H1124   1.084   .     S
C1094  C506    1.390   1_556 S
C1095  C1100   1.411   .     A
C1095  C1149   1.510   .     S
C1096  C1099   1.412   .     A
C1096  C1153   1.510   .     S
C1096  C690    1.390   1_565 S
C1097  H1133   1.085   .     S
C1097  C687    1.390   1_565 S
C1097  C1167   1.399   .     S
C1098  H1134   1.085   .     S
C1100  C1157   1.447   .     S
C1100  C1166   1.398   .     S
C1101  N1140   1.368   .     A
C1101  C1103   1.417   .     A
C1101  H1135   1.082   .     S
C1102  C1104   1.417   .     A
C1102  H1136   1.082   .     S
C1102  N1139   1.368   .     A
C1103  N1139   1.367   .     A
C1103  H1137   1.082   .     S
C1104  N1140   1.367   .     A
C1104  H1138   1.082   .     S
C1105  O1147   1.295   .     A
C1105  C1107   1.467   .     S
C1105  O1213   1.296   .     S
C1106  O1148   1.294   .     A
C1106  C1108   1.466   .     S
C1107  C1111   1.399   .     A
C1107  C1113   1.399   .     A
C1108  C1112   1.399   .     A
C1108  C1114   1.398   .     A
C1109  C1117   1.404   .     A
C1109  C1111   1.391   .     A
C1109  H1197   1.083   .     S
C1110  C1112   1.392   .     A
C1110  H1130   1.084   .     S
C1110  C1118   1.404   .     A
C1111  H1196   1.083   .     S
C1113  H1126   1.075   .     S
C1113  C1115   1.405   .     A
C1114  H1125   1.075   .     S
C1114  C1116   1.405   .     A
C1115  C1117   1.418   .     A
C1115  C1119   1.427   .     A
C1116  C1120   1.426   .     A
C1116  C1118   1.418   .     A
C1117  C481    1.390   1_556 S
C1119  C508    1.425   1_556 S
Cu1121 N1139   2.013   .     S
Cu1121 O1145   1.957   .     S
Cu1121 O1144   1.962   .     S
Cu1121 O1148   1.944   .     S
Cu1121 O1141   1.959   .     S
Cu1122 N1140   2.013   .     S
Cu1122 O1143   1.962   .     S
Cu1122 O1142   1.959   .     S
Cu1122 O1146   1.957   .     S
Cu1122 O1147   1.944   .     S
Cu1122 Cu1189  2.679   .     S
H1127  C1180   1.083   .     S
O1143  C1157   1.288   .     S
O1146  C1174   1.296   .     S
C1149  H1152   1.110   .     S
C1149  H1150   1.111   .     S
C1149  H1151   1.111   .     S
C1153  H1156   1.111   .     S
C1153  H1154   1.111   .     S
C1153  H1155   1.110   .     S
C1157  O1209   1.292   .     A
C1158  O1210   1.292   .     A
C1158  C1031   1.447   1_655 S
C1158  O1076   1.288   1_655 S
C1159  C1161   1.386   .     A
C1159  H1199   1.076   .     S
C1159  C1188   1.417   .     A
C1160  H1200   1.076   .     S
C1160  C1162   1.387   .     A
C1160  C1187   1.417   .     A
C1161  H1191   1.084   .     S
C1162  H1192   1.084   .     S
C1162  C574    1.390   1_556 S
C1163  C1168   1.411   .     A
C1163  C1217   1.510   .     S
C1164  C1167   1.412   .     A
C1164  C1221   1.510   .     S
C1164  C758    1.390   1_565 S
C1165  H1201   1.085   .     S
C1165  C755    1.390   1_565 S
C1165  C1031   1.399   1_655 S
C1166  H1202   1.085   .     S
C1168  C1021   1.447   1_655 S
C1168  C1030   1.398   1_655 S
C1169  N1208   1.368   .     A
C1169  C1171   1.417   .     A
C1169  H1203   1.082   .     S
C1170  C1172   1.417   .     A
C1170  H1204   1.082   .     S
C1170  N1207   1.368   .     A
C1171  N1207   1.367   .     A
C1171  H1205   1.082   .     S
C1172  N1208   1.367   .     A
C1172  H1206   1.082   .     S
C1173  O1215   1.295   .     A
C1173  C1175   1.467   .     S
C1173  O1077   1.296   1_655 S
C1174  O1216   1.294   .     A
C1174  C1176   1.466   .     S
C1175  C1179   1.399   .     A
C1175  C1181   1.399   .     A
C1176  C1180   1.399   .     A
C1176  C1182   1.398   .     A
C1177  C1185   1.404   .     A
C1177  C1179   1.391   .     A
C1177  H1061   1.083   1_655 S
C1178  C1180   1.392   .     A
C1178  H1198   1.084   .     S
C1178  C1186   1.404   .     A
C1179  H1060   1.083   1_655 S
C1181  H1194   1.075   .     S
C1181  C1183   1.405   .     A
C1182  H1193   1.075   .     S
C1182  C1184   1.405   .     A
C1183  C1185   1.418   .     A
C1183  C1187   1.427   .     A
C1184  C1188   1.426   .     A
C1184  C1186   1.418   .     A
C1185  C549    1.390   1_556 S
C1187  C576    1.425   1_556 S
Cu1189 N1207   2.013   .     S
Cu1189 O1213   1.957   .     S
Cu1189 O1212   1.962   .     S
Cu1189 O1216   1.944   .     S
Cu1189 O1209   1.959   .     S
Cu1190 N1208   2.013   .     S
Cu1190 O1211   1.962   .     S
Cu1190 O1210   1.959   .     S
Cu1190 O1214   1.957   .     S
Cu1190 O1215   1.944   .     S
Cu1190 Cu1053  2.679   1_655 S
H1195  C1044   1.083   1_655 S
O1211  C1021   1.288   1_655 S
O1214  C1038   1.296   1_655 S
C1217  H1220   1.110   .     S
C1217  H1218   1.111   .     S
C1217  H1219   1.111   .     S
C1221  H1224   1.111   .     S
C1221  H1222   1.111   .     S
C1221  H1223   1.110   .     S
