data_str_m2_o10_o18_pcu_sym.30
_audit_creation_date              2020-01-03
_audit_creation_method            'Materials Studio'
_symmetry_space_group_name_H-M    'P1'
_symmetry_Int_Tables_number       1
_symmetry_cell_setting            triclinic
loop_
_symmetry_equiv_pos_as_xyz
  x,y,z
_cell_length_a                    23.6725
_cell_length_b                    27.9179
_cell_length_c                    33.2811
_cell_angle_alpha                 83.9922
_cell_angle_beta                  81.5363
_cell_angle_gamma                 102.6808
loop_
_atom_site_label
_atom_site_type_symbol
_atom_site_fract_x
_atom_site_fract_y
_atom_site_fract_z
_atom_site_U_iso_or_equiv
_atom_site_adp_type
_atom_site_occupancy
C1     C     0.18023   0.26626   0.25406   0.00000  Uiso   1.00
C2     C     0.20291   0.17733   0.16716   0.00000  Uiso   1.00
C3     C     0.11387   0.15175   0.38059   0.00000  Uiso   1.00
C4     C     0.21944   0.18159   0.11940   0.00000  Uiso   1.00
C5     C     0.04629   0.16128   0.44135   0.00000  Uiso   1.00
C6     C     0.28697   0.17218   0.05855   0.00000  Uiso   1.00
C7     C     0.05942   0.15508   0.39890   0.00000  Uiso   1.00
C8     C     0.27389   0.17832   0.10104   0.00000  Uiso   1.00
C9     C     0.15163   0.14377   0.40929   0.00000  Uiso   1.00
C10    C     0.18162   0.18952   0.09074   0.00000  Uiso   1.00
C11    C     0.13606   0.15025   0.45272   0.00000  Uiso   1.00
C12    C     0.15310   0.06707   0.24594   0.00000  Uiso   1.00
C13    C     0.19717   0.18307   0.04731   0.00000  Uiso   1.00
C14    C     0.08069   0.16147   0.46917   0.00000  Uiso   1.00
C15    C     0.25251   0.17199   0.03077   0.00000  Uiso   1.00
C16    C     0.17530   0.14907   0.48275   0.00000  Uiso   1.00
C17    C     0.15792   0.18416   0.01734   0.00000  Uiso   1.00
C18    C     0.10377   0.21258   0.02584   0.00000  Uiso   1.00
C19    C     0.22950   0.12066   0.47429   0.00000  Uiso   1.00
C20    C     0.07726   0.17325   0.01149   0.00000  Uiso   1.00
C21    C     0.25590   0.16025   0.48841   0.00000  Uiso   1.00
C22    C     0.18992   0.32222   0.25231   0.00000  Uiso   1.00
C23    C     0.14341   0.01111   0.24769   0.00000  Uiso   1.00
C24    C     0.13042   0.15600   0.33284   0.00000  Uiso   1.00
Cl25   Cl    0.12599   0.22665   0.10931   0.00000  Uiso   1.00
Cl26   Cl    0.20722   0.10656   0.39078   0.00000  Uiso   1.00
Cu27   Cu    0.10737   0.16108   0.24516   0.00000  Uiso   1.00
Cu28   Cu    0.22596   0.17225   0.25483   0.00000  Uiso   1.00
H29    H     0.04598   0.14534   0.02043   0.00000  Uiso   1.00
H30    H     0.09860   0.32097   0.24371   0.00000  Uiso   1.00
H31    H     0.00383   0.21326   0.27489   0.00000  Uiso   1.00
H32    H     0.32951   0.12007   0.22511   0.00000  Uiso   1.00
H33    H     0.28726   0.18832   0.47931   0.00000  Uiso   1.00
H34    H     0.30867   0.18145   0.11969   0.00000  Uiso   1.00
H35    H     0.02468   0.15196   0.38022   0.00000  Uiso   1.00
H36    H     0.00067   0.13107   0.44257   0.00000  Uiso   1.00
H37    H     0.33257   0.20254   0.05722   0.00000  Uiso   1.00
H38    H     0.09127   0.23562   0.05390   0.00000  Uiso   1.00
H39    H     0.24188   0.09761   0.44622   0.00000  Uiso   1.00
H40    H     0.23473   0.01236   0.25629   0.00000  Uiso   1.00
N41    N     0.31506   0.18068   0.26212   0.00000  Uiso   1.00
N42    N     0.01827   0.15265   0.23788   0.00000  Uiso   1.00
O43    O     0.12815   0.23809   0.24686   0.00000  Uiso   1.00
O44    O     0.20518   0.09524   0.25314   0.00000  Uiso   1.00
O45    O     0.22829   0.24753   0.25502   0.00000  Uiso   1.00
O46    O     0.10504   0.08580   0.24497   0.00000  Uiso   1.00
O47    O     0.08851   0.15930   0.30854   0.00000  Uiso   1.00
O48    O     0.24482   0.17403   0.19145   0.00000  Uiso   1.00
O49    O     0.18866   0.16874   0.31671   0.00000  Uiso   1.00
O50    O     0.14468   0.16460   0.18329   0.00000  Uiso   1.00
C51    C     0.51357   0.26626   0.25406   0.00000  Uiso   1.00
C52    C     0.53624   0.17733   0.16716   0.00000  Uiso   1.00
C53    C     0.44720   0.15175   0.38059   0.00000  Uiso   1.00
C54    C     0.55277   0.18159   0.11940   0.00000  Uiso   1.00
C55    C     0.37963   0.16128   0.44135   0.00000  Uiso   1.00
C56    C     0.62030   0.17218   0.05855   0.00000  Uiso   1.00
C57    C     0.39275   0.15508   0.39890   0.00000  Uiso   1.00
C58    C     0.60722   0.17832   0.10104   0.00000  Uiso   1.00
C59    C     0.48497   0.14377   0.40929   0.00000  Uiso   1.00
C60    C     0.51495   0.18952   0.09074   0.00000  Uiso   1.00
C61    C     0.46939   0.15025   0.45272   0.00000  Uiso   1.00
C62    C     0.48643   0.06707   0.24594   0.00000  Uiso   1.00
C63    C     0.53050   0.18307   0.04731   0.00000  Uiso   1.00
C64    C     0.41403   0.16147   0.46917   0.00000  Uiso   1.00
C65    C     0.58585   0.17199   0.03077   0.00000  Uiso   1.00
C66    C     0.50864   0.14907   0.48275   0.00000  Uiso   1.00
C67    C     0.49125   0.18416   0.01734   0.00000  Uiso   1.00
C68    C     0.43710   0.21258   0.02584   0.00000  Uiso   1.00
C69    C     0.56283   0.12066   0.47429   0.00000  Uiso   1.00
C70    C     0.41060   0.17325   0.01149   0.00000  Uiso   1.00
C71    C     0.58923   0.16025   0.48841   0.00000  Uiso   1.00
C72    C     0.52325   0.32222   0.25231   0.00000  Uiso   1.00
C73    C     0.47675   0.01111   0.24769   0.00000  Uiso   1.00
C74    C     0.46376   0.15600   0.33284   0.00000  Uiso   1.00
Cl75   Cl    0.45932   0.22665   0.10931   0.00000  Uiso   1.00
Cl76   Cl    0.54055   0.10656   0.39078   0.00000  Uiso   1.00
Cu77   Cu    0.44071   0.16108   0.24516   0.00000  Uiso   1.00
Cu78   Cu    0.55929   0.17225   0.25483   0.00000  Uiso   1.00
H79    H     0.37931   0.14534   0.02043   0.00000  Uiso   1.00
H80    H     0.43194   0.32097   0.24371   0.00000  Uiso   1.00
H81    H     0.33716   0.21326   0.27489   0.00000  Uiso   1.00
H82    H     0.66284   0.12007   0.22511   0.00000  Uiso   1.00
H83    H     0.62059   0.18832   0.47931   0.00000  Uiso   1.00
H84    H     0.64200   0.18145   0.11969   0.00000  Uiso   1.00
H85    H     0.35801   0.15196   0.38022   0.00000  Uiso   1.00
H86    H     0.33401   0.13107   0.44257   0.00000  Uiso   1.00
H87    H     0.66590   0.20254   0.05722   0.00000  Uiso   1.00
H88    H     0.42460   0.23562   0.05390   0.00000  Uiso   1.00
H89    H     0.57522   0.09761   0.44622   0.00000  Uiso   1.00
H90    H     0.56806   0.01236   0.25629   0.00000  Uiso   1.00
N91    N     0.64839   0.18068   0.26212   0.00000  Uiso   1.00
N92    N     0.35161   0.15265   0.23788   0.00000  Uiso   1.00
O93    O     0.46148   0.23809   0.24686   0.00000  Uiso   1.00
O94    O     0.53852   0.09524   0.25314   0.00000  Uiso   1.00
O95    O     0.56163   0.24753   0.25502   0.00000  Uiso   1.00
O96    O     0.43837   0.08580   0.24497   0.00000  Uiso   1.00
O97    O     0.42185   0.15930   0.30854   0.00000  Uiso   1.00
O98    O     0.57815   0.17403   0.19145   0.00000  Uiso   1.00
O99    O     0.52199   0.16874   0.31671   0.00000  Uiso   1.00
O100   O     0.47801   0.16460   0.18329   0.00000  Uiso   1.00
C101   C     0.84690   0.26626   0.25406   0.00000  Uiso   1.00
C102   C     0.86958   0.17733   0.16716   0.00000  Uiso   1.00
C103   C     0.78053   0.15175   0.38059   0.00000  Uiso   1.00
C104   C     0.88611   0.18159   0.11940   0.00000  Uiso   1.00
C105   C     0.71296   0.16128   0.44135   0.00000  Uiso   1.00
C106   C     0.95364   0.17218   0.05855   0.00000  Uiso   1.00
C107   C     0.72608   0.15508   0.39890   0.00000  Uiso   1.00
C108   C     0.94056   0.17832   0.10104   0.00000  Uiso   1.00
C109   C     0.81830   0.14377   0.40929   0.00000  Uiso   1.00
C110   C     0.84828   0.18952   0.09074   0.00000  Uiso   1.00
C111   C     0.80272   0.15025   0.45272   0.00000  Uiso   1.00
C112   C     0.81977   0.06707   0.24594   0.00000  Uiso   1.00
C113   C     0.86384   0.18307   0.04731   0.00000  Uiso   1.00
C114   C     0.74736   0.16147   0.46917   0.00000  Uiso   1.00
C115   C     0.91918   0.17199   0.03077   0.00000  Uiso   1.00
C116   C     0.84197   0.14907   0.48275   0.00000  Uiso   1.00
C117   C     0.82458   0.18416   0.01734   0.00000  Uiso   1.00
C118   C     0.77044   0.21258   0.02584   0.00000  Uiso   1.00
C119   C     0.89617   0.12066   0.47429   0.00000  Uiso   1.00
C120   C     0.74393   0.17325   0.01149   0.00000  Uiso   1.00
C121   C     0.92256   0.16025   0.48841   0.00000  Uiso   1.00
C122   C     0.85659   0.32222   0.25231   0.00000  Uiso   1.00
C123   C     0.81008   0.01111   0.24769   0.00000  Uiso   1.00
C124   C     0.79709   0.15600   0.33284   0.00000  Uiso   1.00
Cl125  Cl    0.79265   0.22665   0.10931   0.00000  Uiso   1.00
Cl126  Cl    0.87388   0.10656   0.39078   0.00000  Uiso   1.00
Cu127  Cu    0.77404   0.16108   0.24516   0.00000  Uiso   1.00
Cu128  Cu    0.89263   0.17225   0.25483   0.00000  Uiso   1.00
H129   H     0.71264   0.14534   0.02043   0.00000  Uiso   1.00
H130   H     0.76527   0.32097   0.24371   0.00000  Uiso   1.00
H131   H     0.67049   0.21326   0.27489   0.00000  Uiso   1.00
H132   H     0.99617   0.12007   0.22511   0.00000  Uiso   1.00
H133   H     0.95393   0.18832   0.47931   0.00000  Uiso   1.00
H134   H     0.97533   0.18145   0.11969   0.00000  Uiso   1.00
H135   H     0.69134   0.15196   0.38022   0.00000  Uiso   1.00
H136   H     0.66734   0.13107   0.44257   0.00000  Uiso   1.00
H137   H     0.99923   0.20254   0.05722   0.00000  Uiso   1.00
H138   H     0.75793   0.23562   0.05390   0.00000  Uiso   1.00
H139   H     0.90855   0.09761   0.44622   0.00000  Uiso   1.00
H140   H     0.90140   0.01236   0.25629   0.00000  Uiso   1.00
N141   N     0.98173   0.18068   0.26212   0.00000  Uiso   1.00
N142   N     0.68494   0.15265   0.23788   0.00000  Uiso   1.00
O143   O     0.79482   0.23809   0.24686   0.00000  Uiso   1.00
O144   O     0.87185   0.09524   0.25314   0.00000  Uiso   1.00
O145   O     0.89496   0.24753   0.25502   0.00000  Uiso   1.00
O146   O     0.77171   0.08580   0.24497   0.00000  Uiso   1.00
O147   O     0.75518   0.15930   0.30854   0.00000  Uiso   1.00
O148   O     0.91149   0.17403   0.19145   0.00000  Uiso   1.00
O149   O     0.85532   0.16874   0.31671   0.00000  Uiso   1.00
O150   O     0.81134   0.16460   0.18329   0.00000  Uiso   1.00
C151   C     0.18023   0.59959   0.25406   0.00000  Uiso   1.00
C152   C     0.20291   0.51067   0.16716   0.00000  Uiso   1.00
C153   C     0.11387   0.48508   0.38059   0.00000  Uiso   1.00
C154   C     0.21944   0.51492   0.11940   0.00000  Uiso   1.00
C155   C     0.04629   0.49461   0.44135   0.00000  Uiso   1.00
C156   C     0.28697   0.50552   0.05855   0.00000  Uiso   1.00
C157   C     0.05942   0.48841   0.39890   0.00000  Uiso   1.00
C158   C     0.27389   0.51165   0.10104   0.00000  Uiso   1.00
C159   C     0.15163   0.47710   0.40929   0.00000  Uiso   1.00
C160   C     0.18162   0.52286   0.09074   0.00000  Uiso   1.00
C161   C     0.13606   0.48358   0.45272   0.00000  Uiso   1.00
C162   C     0.15310   0.40041   0.24594   0.00000  Uiso   1.00
C163   C     0.19717   0.51640   0.04731   0.00000  Uiso   1.00
C164   C     0.08069   0.49480   0.46917   0.00000  Uiso   1.00
C165   C     0.25251   0.50532   0.03077   0.00000  Uiso   1.00
C166   C     0.17530   0.48241   0.48275   0.00000  Uiso   1.00
C167   C     0.15792   0.51750   0.01734   0.00000  Uiso   1.00
C168   C     0.10377   0.54591   0.02584   0.00000  Uiso   1.00
C169   C     0.22950   0.45399   0.47429   0.00000  Uiso   1.00
C170   C     0.07726   0.50659   0.01149   0.00000  Uiso   1.00
C171   C     0.25590   0.49358   0.48841   0.00000  Uiso   1.00
C172   C     0.18992   0.65555   0.25231   0.00000  Uiso   1.00
C173   C     0.14341   0.34445   0.24769   0.00000  Uiso   1.00
C174   C     0.13042   0.48933   0.33284   0.00000  Uiso   1.00
Cl175  Cl    0.12599   0.55998   0.10931   0.00000  Uiso   1.00
Cl176  Cl    0.20722   0.43989   0.39078   0.00000  Uiso   1.00
Cu177  Cu    0.10737   0.49441   0.24516   0.00000  Uiso   1.00
Cu178  Cu    0.22596   0.50559   0.25483   0.00000  Uiso   1.00
H179   H     0.04598   0.47868   0.02043   0.00000  Uiso   1.00
H180   H     0.09860   0.65430   0.24371   0.00000  Uiso   1.00
H181   H     0.00383   0.54660   0.27489   0.00000  Uiso   1.00
H182   H     0.32951   0.45340   0.22511   0.00000  Uiso   1.00
H183   H     0.28726   0.52166   0.47931   0.00000  Uiso   1.00
H184   H     0.30867   0.51479   0.11969   0.00000  Uiso   1.00
H185   H     0.02468   0.48529   0.38022   0.00000  Uiso   1.00
H186   H     0.00067   0.46441   0.44257   0.00000  Uiso   1.00
H187   H     0.33257   0.53588   0.05722   0.00000  Uiso   1.00
H188   H     0.09127   0.56895   0.05390   0.00000  Uiso   1.00
H189   H     0.24188   0.43095   0.44622   0.00000  Uiso   1.00
H190   H     0.23473   0.34570   0.25629   0.00000  Uiso   1.00
N191   N     0.31506   0.51401   0.26212   0.00000  Uiso   1.00
N192   N     0.01827   0.48599   0.23788   0.00000  Uiso   1.00
O193   O     0.12815   0.57142   0.24686   0.00000  Uiso   1.00
O194   O     0.20518   0.42858   0.25314   0.00000  Uiso   1.00
O195   O     0.22829   0.58086   0.25502   0.00000  Uiso   1.00
O196   O     0.10504   0.41914   0.24497   0.00000  Uiso   1.00
O197   O     0.08851   0.49263   0.30854   0.00000  Uiso   1.00
O198   O     0.24482   0.50737   0.19145   0.00000  Uiso   1.00
O199   O     0.18866   0.50207   0.31671   0.00000  Uiso   1.00
O200   O     0.14468   0.49793   0.18329   0.00000  Uiso   1.00
C201   C     0.51357   0.59959   0.25406   0.00000  Uiso   1.00
C202   C     0.53624   0.51067   0.16716   0.00000  Uiso   1.00
C203   C     0.44720   0.48508   0.38059   0.00000  Uiso   1.00
C204   C     0.55277   0.51492   0.11940   0.00000  Uiso   1.00
C205   C     0.37963   0.49461   0.44135   0.00000  Uiso   1.00
C206   C     0.62030   0.50552   0.05855   0.00000  Uiso   1.00
C207   C     0.39275   0.48841   0.39890   0.00000  Uiso   1.00
C208   C     0.60722   0.51165   0.10104   0.00000  Uiso   1.00
C209   C     0.48497   0.47710   0.40929   0.00000  Uiso   1.00
C210   C     0.51495   0.52286   0.09074   0.00000  Uiso   1.00
C211   C     0.46939   0.48358   0.45272   0.00000  Uiso   1.00
C212   C     0.48643   0.40041   0.24594   0.00000  Uiso   1.00
C213   C     0.53050   0.51640   0.04731   0.00000  Uiso   1.00
C214   C     0.41403   0.49480   0.46917   0.00000  Uiso   1.00
C215   C     0.58585   0.50532   0.03077   0.00000  Uiso   1.00
C216   C     0.50864   0.48241   0.48275   0.00000  Uiso   1.00
C217   C     0.49125   0.51750   0.01734   0.00000  Uiso   1.00
C218   C     0.43710   0.54591   0.02584   0.00000  Uiso   1.00
C219   C     0.56283   0.45399   0.47429   0.00000  Uiso   1.00
C220   C     0.41060   0.50659   0.01149   0.00000  Uiso   1.00
C221   C     0.58923   0.49358   0.48841   0.00000  Uiso   1.00
C222   C     0.52325   0.65555   0.25231   0.00000  Uiso   1.00
C223   C     0.47675   0.34445   0.24769   0.00000  Uiso   1.00
C224   C     0.46376   0.48933   0.33284   0.00000  Uiso   1.00
Cl225  Cl    0.45932   0.55998   0.10931   0.00000  Uiso   1.00
Cl226  Cl    0.54055   0.43989   0.39078   0.00000  Uiso   1.00
Cu227  Cu    0.44071   0.49441   0.24516   0.00000  Uiso   1.00
Cu228  Cu    0.55929   0.50559   0.25483   0.00000  Uiso   1.00
H229   H     0.37931   0.47868   0.02043   0.00000  Uiso   1.00
H230   H     0.43194   0.65430   0.24371   0.00000  Uiso   1.00
H231   H     0.33716   0.54660   0.27489   0.00000  Uiso   1.00
H232   H     0.66284   0.45340   0.22511   0.00000  Uiso   1.00
H233   H     0.62059   0.52166   0.47931   0.00000  Uiso   1.00
H234   H     0.64200   0.51479   0.11969   0.00000  Uiso   1.00
H235   H     0.35801   0.48529   0.38022   0.00000  Uiso   1.00
H236   H     0.33401   0.46441   0.44257   0.00000  Uiso   1.00
H237   H     0.66590   0.53588   0.05722   0.00000  Uiso   1.00
H238   H     0.42460   0.56895   0.05390   0.00000  Uiso   1.00
H239   H     0.57522   0.43095   0.44622   0.00000  Uiso   1.00
H240   H     0.56806   0.34570   0.25629   0.00000  Uiso   1.00
N241   N     0.64839   0.51401   0.26212   0.00000  Uiso   1.00
N242   N     0.35161   0.48599   0.23788   0.00000  Uiso   1.00
O243   O     0.46148   0.57142   0.24686   0.00000  Uiso   1.00
O244   O     0.53852   0.42858   0.25314   0.00000  Uiso   1.00
O245   O     0.56163   0.58086   0.25502   0.00000  Uiso   1.00
O246   O     0.43837   0.41914   0.24497   0.00000  Uiso   1.00
O247   O     0.42185   0.49263   0.30854   0.00000  Uiso   1.00
O248   O     0.57815   0.50737   0.19145   0.00000  Uiso   1.00
O249   O     0.52199   0.50207   0.31671   0.00000  Uiso   1.00
O250   O     0.47801   0.49793   0.18329   0.00000  Uiso   1.00
C251   C     0.84690   0.59959   0.25406   0.00000  Uiso   1.00
C252   C     0.86958   0.51067   0.16716   0.00000  Uiso   1.00
C253   C     0.78053   0.48508   0.38059   0.00000  Uiso   1.00
C254   C     0.88611   0.51492   0.11940   0.00000  Uiso   1.00
C255   C     0.71296   0.49461   0.44135   0.00000  Uiso   1.00
C256   C     0.95364   0.50552   0.05855   0.00000  Uiso   1.00
C257   C     0.72608   0.48841   0.39890   0.00000  Uiso   1.00
C258   C     0.94056   0.51165   0.10104   0.00000  Uiso   1.00
C259   C     0.81830   0.47710   0.40929   0.00000  Uiso   1.00
C260   C     0.84828   0.52286   0.09074   0.00000  Uiso   1.00
C261   C     0.80272   0.48358   0.45272   0.00000  Uiso   1.00
C262   C     0.81977   0.40041   0.24594   0.00000  Uiso   1.00
C263   C     0.86384   0.51640   0.04731   0.00000  Uiso   1.00
C264   C     0.74736   0.49480   0.46917   0.00000  Uiso   1.00
C265   C     0.91918   0.50532   0.03077   0.00000  Uiso   1.00
C266   C     0.84197   0.48241   0.48275   0.00000  Uiso   1.00
C267   C     0.82458   0.51750   0.01734   0.00000  Uiso   1.00
C268   C     0.77044   0.54591   0.02584   0.00000  Uiso   1.00
C269   C     0.89617   0.45399   0.47429   0.00000  Uiso   1.00
C270   C     0.74393   0.50659   0.01149   0.00000  Uiso   1.00
C271   C     0.92256   0.49358   0.48841   0.00000  Uiso   1.00
C272   C     0.85659   0.65555   0.25231   0.00000  Uiso   1.00
C273   C     0.81008   0.34445   0.24769   0.00000  Uiso   1.00
C274   C     0.79709   0.48933   0.33284   0.00000  Uiso   1.00
Cl275  Cl    0.79265   0.55998   0.10931   0.00000  Uiso   1.00
Cl276  Cl    0.87388   0.43989   0.39078   0.00000  Uiso   1.00
Cu277  Cu    0.77404   0.49441   0.24516   0.00000  Uiso   1.00
Cu278  Cu    0.89263   0.50559   0.25483   0.00000  Uiso   1.00
H279   H     0.71264   0.47868   0.02043   0.00000  Uiso   1.00
H280   H     0.76527   0.65430   0.24371   0.00000  Uiso   1.00
H281   H     0.67049   0.54660   0.27489   0.00000  Uiso   1.00
H282   H     0.99617   0.45340   0.22511   0.00000  Uiso   1.00
H283   H     0.95393   0.52166   0.47931   0.00000  Uiso   1.00
H284   H     0.97533   0.51479   0.11969   0.00000  Uiso   1.00
H285   H     0.69134   0.48529   0.38022   0.00000  Uiso   1.00
H286   H     0.66734   0.46441   0.44257   0.00000  Uiso   1.00
H287   H     0.99923   0.53588   0.05722   0.00000  Uiso   1.00
H288   H     0.75793   0.56895   0.05390   0.00000  Uiso   1.00
H289   H     0.90855   0.43095   0.44622   0.00000  Uiso   1.00
H290   H     0.90140   0.34570   0.25629   0.00000  Uiso   1.00
N291   N     0.98173   0.51401   0.26212   0.00000  Uiso   1.00
N292   N     0.68494   0.48599   0.23788   0.00000  Uiso   1.00
O293   O     0.79482   0.57142   0.24686   0.00000  Uiso   1.00
O294   O     0.87185   0.42858   0.25314   0.00000  Uiso   1.00
O295   O     0.89496   0.58086   0.25502   0.00000  Uiso   1.00
O296   O     0.77171   0.41914   0.24497   0.00000  Uiso   1.00
O297   O     0.75518   0.49263   0.30854   0.00000  Uiso   1.00
O298   O     0.91149   0.50737   0.19145   0.00000  Uiso   1.00
O299   O     0.85532   0.50207   0.31671   0.00000  Uiso   1.00
O300   O     0.81134   0.49793   0.18329   0.00000  Uiso   1.00
C301   C     0.18023   0.93293   0.25406   0.00000  Uiso   1.00
C302   C     0.20291   0.84400   0.16716   0.00000  Uiso   1.00
C303   C     0.11387   0.81842   0.38059   0.00000  Uiso   1.00
C304   C     0.21944   0.84826   0.11940   0.00000  Uiso   1.00
C305   C     0.04629   0.82795   0.44135   0.00000  Uiso   1.00
C306   C     0.28697   0.83885   0.05855   0.00000  Uiso   1.00
C307   C     0.05942   0.82175   0.39890   0.00000  Uiso   1.00
C308   C     0.27389   0.84499   0.10104   0.00000  Uiso   1.00
C309   C     0.15163   0.81044   0.40929   0.00000  Uiso   1.00
C310   C     0.18162   0.85619   0.09074   0.00000  Uiso   1.00
C311   C     0.13606   0.81692   0.45272   0.00000  Uiso   1.00
C312   C     0.15310   0.73374   0.24594   0.00000  Uiso   1.00
C313   C     0.19717   0.84974   0.04731   0.00000  Uiso   1.00
C314   C     0.08069   0.82813   0.46917   0.00000  Uiso   1.00
C315   C     0.25251   0.83865   0.03077   0.00000  Uiso   1.00
C316   C     0.17530   0.81574   0.48275   0.00000  Uiso   1.00
C317   C     0.15792   0.85083   0.01734   0.00000  Uiso   1.00
C318   C     0.10377   0.87924   0.02584   0.00000  Uiso   1.00
C319   C     0.22950   0.78732   0.47429   0.00000  Uiso   1.00
C320   C     0.07726   0.83992   0.01149   0.00000  Uiso   1.00
C321   C     0.25590   0.82691   0.48841   0.00000  Uiso   1.00
C322   C     0.18992   0.98889   0.25231   0.00000  Uiso   1.00
C323   C     0.14341   0.67778   0.24769   0.00000  Uiso   1.00
C324   C     0.13042   0.82267   0.33284   0.00000  Uiso   1.00
Cl325  Cl    0.12599   0.89332   0.10931   0.00000  Uiso   1.00
Cl326  Cl    0.20722   0.77323   0.39078   0.00000  Uiso   1.00
Cu327  Cu    0.10737   0.82775   0.24516   0.00000  Uiso   1.00
Cu328  Cu    0.22596   0.83892   0.25483   0.00000  Uiso   1.00
H329   H     0.04598   0.81201   0.02043   0.00000  Uiso   1.00
H330   H     0.09860   0.98764   0.24371   0.00000  Uiso   1.00
H331   H     0.00383   0.87993   0.27489   0.00000  Uiso   1.00
H332   H     0.32951   0.78674   0.22511   0.00000  Uiso   1.00
H333   H     0.28726   0.85499   0.47931   0.00000  Uiso   1.00
H334   H     0.30867   0.84812   0.11969   0.00000  Uiso   1.00
H335   H     0.02468   0.81863   0.38022   0.00000  Uiso   1.00
H336   H     0.00067   0.79774   0.44257   0.00000  Uiso   1.00
H337   H     0.33257   0.86921   0.05722   0.00000  Uiso   1.00
H338   H     0.09127   0.90229   0.05390   0.00000  Uiso   1.00
H339   H     0.24188   0.76428   0.44622   0.00000  Uiso   1.00
H340   H     0.23473   0.67903   0.25629   0.00000  Uiso   1.00
N341   N     0.31506   0.84735   0.26212   0.00000  Uiso   1.00
N342   N     0.01827   0.81932   0.23788   0.00000  Uiso   1.00
O343   O     0.12815   0.90476   0.24686   0.00000  Uiso   1.00
O344   O     0.20518   0.76191   0.25314   0.00000  Uiso   1.00
O345   O     0.22829   0.91420   0.25502   0.00000  Uiso   1.00
O346   O     0.10504   0.75247   0.24497   0.00000  Uiso   1.00
O347   O     0.08851   0.82597   0.30854   0.00000  Uiso   1.00
O348   O     0.24482   0.84070   0.19145   0.00000  Uiso   1.00
O349   O     0.18866   0.83540   0.31671   0.00000  Uiso   1.00
O350   O     0.14468   0.83126   0.18329   0.00000  Uiso   1.00
C351   C     0.51357   0.93293   0.25406   0.00000  Uiso   1.00
C352   C     0.53624   0.84400   0.16716   0.00000  Uiso   1.00
C353   C     0.44720   0.81842   0.38059   0.00000  Uiso   1.00
C354   C     0.55277   0.84826   0.11940   0.00000  Uiso   1.00
C355   C     0.37963   0.82795   0.44135   0.00000  Uiso   1.00
C356   C     0.62030   0.83885   0.05855   0.00000  Uiso   1.00
C357   C     0.39275   0.82175   0.39890   0.00000  Uiso   1.00
C358   C     0.60722   0.84499   0.10104   0.00000  Uiso   1.00
C359   C     0.48497   0.81044   0.40929   0.00000  Uiso   1.00
C360   C     0.51495   0.85619   0.09074   0.00000  Uiso   1.00
C361   C     0.46939   0.81692   0.45272   0.00000  Uiso   1.00
C362   C     0.48643   0.73374   0.24594   0.00000  Uiso   1.00
C363   C     0.53050   0.84974   0.04731   0.00000  Uiso   1.00
C364   C     0.41403   0.82813   0.46917   0.00000  Uiso   1.00
C365   C     0.58585   0.83865   0.03077   0.00000  Uiso   1.00
C366   C     0.50864   0.81574   0.48275   0.00000  Uiso   1.00
C367   C     0.49125   0.85083   0.01734   0.00000  Uiso   1.00
C368   C     0.43710   0.87924   0.02584   0.00000  Uiso   1.00
C369   C     0.56283   0.78732   0.47429   0.00000  Uiso   1.00
C370   C     0.41060   0.83992   0.01149   0.00000  Uiso   1.00
C371   C     0.58923   0.82691   0.48841   0.00000  Uiso   1.00
C372   C     0.52325   0.98889   0.25231   0.00000  Uiso   1.00
C373   C     0.47675   0.67778   0.24769   0.00000  Uiso   1.00
C374   C     0.46376   0.82267   0.33284   0.00000  Uiso   1.00
Cl375  Cl    0.45932   0.89332   0.10931   0.00000  Uiso   1.00
Cl376  Cl    0.54055   0.77323   0.39078   0.00000  Uiso   1.00
Cu377  Cu    0.44071   0.82775   0.24516   0.00000  Uiso   1.00
Cu378  Cu    0.55929   0.83892   0.25483   0.00000  Uiso   1.00
H379   H     0.37931   0.81201   0.02043   0.00000  Uiso   1.00
H380   H     0.43194   0.98764   0.24371   0.00000  Uiso   1.00
H381   H     0.33716   0.87993   0.27489   0.00000  Uiso   1.00
H382   H     0.66284   0.78674   0.22511   0.00000  Uiso   1.00
H383   H     0.62059   0.85499   0.47931   0.00000  Uiso   1.00
H384   H     0.64200   0.84812   0.11969   0.00000  Uiso   1.00
H385   H     0.35801   0.81863   0.38022   0.00000  Uiso   1.00
H386   H     0.33401   0.79774   0.44257   0.00000  Uiso   1.00
H387   H     0.66590   0.86921   0.05722   0.00000  Uiso   1.00
H388   H     0.42460   0.90229   0.05390   0.00000  Uiso   1.00
H389   H     0.57522   0.76428   0.44622   0.00000  Uiso   1.00
H390   H     0.56806   0.67903   0.25629   0.00000  Uiso   1.00
N391   N     0.64839   0.84735   0.26212   0.00000  Uiso   1.00
N392   N     0.35161   0.81932   0.23788   0.00000  Uiso   1.00
O393   O     0.46148   0.90476   0.24686   0.00000  Uiso   1.00
O394   O     0.53852   0.76191   0.25314   0.00000  Uiso   1.00
O395   O     0.56163   0.91420   0.25502   0.00000  Uiso   1.00
O396   O     0.43837   0.75247   0.24497   0.00000  Uiso   1.00
O397   O     0.42185   0.82597   0.30854   0.00000  Uiso   1.00
O398   O     0.57815   0.84070   0.19145   0.00000  Uiso   1.00
O399   O     0.52199   0.83540   0.31671   0.00000  Uiso   1.00
O400   O     0.47801   0.83126   0.18329   0.00000  Uiso   1.00
C401   C     0.84690   0.93293   0.25406   0.00000  Uiso   1.00
C402   C     0.86958   0.84400   0.16716   0.00000  Uiso   1.00
C403   C     0.78053   0.81842   0.38059   0.00000  Uiso   1.00
C404   C     0.88611   0.84826   0.11940   0.00000  Uiso   1.00
C405   C     0.71296   0.82795   0.44135   0.00000  Uiso   1.00
C406   C     0.95364   0.83885   0.05855   0.00000  Uiso   1.00
C407   C     0.72608   0.82175   0.39890   0.00000  Uiso   1.00
C408   C     0.94056   0.84499   0.10104   0.00000  Uiso   1.00
C409   C     0.81830   0.81044   0.40929   0.00000  Uiso   1.00
C410   C     0.84828   0.85619   0.09074   0.00000  Uiso   1.00
C411   C     0.80272   0.81692   0.45272   0.00000  Uiso   1.00
C412   C     0.81977   0.73374   0.24594   0.00000  Uiso   1.00
C413   C     0.86384   0.84974   0.04731   0.00000  Uiso   1.00
C414   C     0.74736   0.82813   0.46917   0.00000  Uiso   1.00
C415   C     0.91918   0.83865   0.03077   0.00000  Uiso   1.00
C416   C     0.84197   0.81574   0.48275   0.00000  Uiso   1.00
C417   C     0.82458   0.85083   0.01734   0.00000  Uiso   1.00
C418   C     0.77044   0.87924   0.02584   0.00000  Uiso   1.00
C419   C     0.89617   0.78732   0.47429   0.00000  Uiso   1.00
C420   C     0.74393   0.83992   0.01149   0.00000  Uiso   1.00
C421   C     0.92256   0.82691   0.48841   0.00000  Uiso   1.00
C422   C     0.85659   0.98889   0.25231   0.00000  Uiso   1.00
C423   C     0.81008   0.67778   0.24769   0.00000  Uiso   1.00
C424   C     0.79709   0.82267   0.33284   0.00000  Uiso   1.00
Cl425  Cl    0.79265   0.89332   0.10931   0.00000  Uiso   1.00
Cl426  Cl    0.87388   0.77323   0.39078   0.00000  Uiso   1.00
Cu427  Cu    0.77404   0.82775   0.24516   0.00000  Uiso   1.00
Cu428  Cu    0.89263   0.83892   0.25483   0.00000  Uiso   1.00
H429   H     0.71264   0.81201   0.02043   0.00000  Uiso   1.00
H430   H     0.76527   0.98764   0.24371   0.00000  Uiso   1.00
H431   H     0.67049   0.87993   0.27489   0.00000  Uiso   1.00
H432   H     0.99617   0.78674   0.22511   0.00000  Uiso   1.00
H433   H     0.95393   0.85499   0.47931   0.00000  Uiso   1.00
H434   H     0.97533   0.84812   0.11969   0.00000  Uiso   1.00
H435   H     0.69134   0.81863   0.38022   0.00000  Uiso   1.00
H436   H     0.66734   0.79774   0.44257   0.00000  Uiso   1.00
H437   H     0.99923   0.86921   0.05722   0.00000  Uiso   1.00
H438   H     0.75793   0.90229   0.05390   0.00000  Uiso   1.00
H439   H     0.90855   0.76428   0.44622   0.00000  Uiso   1.00
H440   H     0.90140   0.67903   0.25629   0.00000  Uiso   1.00
N441   N     0.98173   0.84735   0.26212   0.00000  Uiso   1.00
N442   N     0.68494   0.81932   0.23788   0.00000  Uiso   1.00
O443   O     0.79482   0.90476   0.24686   0.00000  Uiso   1.00
O444   O     0.87185   0.76191   0.25314   0.00000  Uiso   1.00
O445   O     0.89496   0.91420   0.25502   0.00000  Uiso   1.00
O446   O     0.77171   0.75247   0.24497   0.00000  Uiso   1.00
O447   O     0.75518   0.82597   0.30854   0.00000  Uiso   1.00
O448   O     0.91149   0.84070   0.19145   0.00000  Uiso   1.00
O449   O     0.85532   0.83540   0.31671   0.00000  Uiso   1.00
O450   O     0.81134   0.83126   0.18329   0.00000  Uiso   1.00
C451   C     0.18023   0.26626   0.75406   0.00000  Uiso   1.00
C452   C     0.20291   0.17733   0.66716   0.00000  Uiso   1.00
C453   C     0.11387   0.15175   0.88059   0.00000  Uiso   1.00
C454   C     0.21944   0.18159   0.61940   0.00000  Uiso   1.00
C455   C     0.04629   0.16128   0.94135   0.00000  Uiso   1.00
C456   C     0.28697   0.17218   0.55855   0.00000  Uiso   1.00
C457   C     0.05942   0.15508   0.89890   0.00000  Uiso   1.00
C458   C     0.27389   0.17832   0.60104   0.00000  Uiso   1.00
C459   C     0.15163   0.14377   0.90929   0.00000  Uiso   1.00
C460   C     0.18162   0.18952   0.59074   0.00000  Uiso   1.00
C461   C     0.13606   0.15025   0.95272   0.00000  Uiso   1.00
C462   C     0.15310   0.06707   0.74594   0.00000  Uiso   1.00
C463   C     0.19717   0.18307   0.54731   0.00000  Uiso   1.00
C464   C     0.08069   0.16147   0.96917   0.00000  Uiso   1.00
C465   C     0.25251   0.17199   0.53077   0.00000  Uiso   1.00
C466   C     0.17530   0.14907   0.98275   0.00000  Uiso   1.00
C467   C     0.15792   0.18416   0.51734   0.00000  Uiso   1.00
C468   C     0.10377   0.21258   0.52584   0.00000  Uiso   1.00
C469   C     0.22950   0.12066   0.97429   0.00000  Uiso   1.00
C470   C     0.07726   0.17325   0.51149   0.00000  Uiso   1.00
C471   C     0.25590   0.16025   0.98841   0.00000  Uiso   1.00
C472   C     0.18992   0.32222   0.75231   0.00000  Uiso   1.00
C473   C     0.14341   0.01111   0.74769   0.00000  Uiso   1.00
C474   C     0.13042   0.15600   0.83284   0.00000  Uiso   1.00
Cl475  Cl    0.12599   0.22665   0.60931   0.00000  Uiso   1.00
Cl476  Cl    0.20722   0.10656   0.89078   0.00000  Uiso   1.00
Cu477  Cu    0.10737   0.16108   0.74516   0.00000  Uiso   1.00
Cu478  Cu    0.22596   0.17225   0.75483   0.00000  Uiso   1.00
H479   H     0.04598   0.14534   0.52043   0.00000  Uiso   1.00
H480   H     0.09860   0.32097   0.74371   0.00000  Uiso   1.00
H481   H     0.00383   0.21326   0.77489   0.00000  Uiso   1.00
H482   H     0.32951   0.12007   0.72511   0.00000  Uiso   1.00
H483   H     0.28726   0.18832   0.97931   0.00000  Uiso   1.00
H484   H     0.30867   0.18145   0.61969   0.00000  Uiso   1.00
H485   H     0.02468   0.15196   0.88022   0.00000  Uiso   1.00
H486   H     0.00067   0.13107   0.94257   0.00000  Uiso   1.00
H487   H     0.33257   0.20254   0.55722   0.00000  Uiso   1.00
H488   H     0.09127   0.23562   0.55390   0.00000  Uiso   1.00
H489   H     0.24188   0.09761   0.94622   0.00000  Uiso   1.00
H490   H     0.23473   0.01236   0.75629   0.00000  Uiso   1.00
N491   N     0.31506   0.18068   0.76212   0.00000  Uiso   1.00
N492   N     0.01827   0.15265   0.73788   0.00000  Uiso   1.00
O493   O     0.12815   0.23809   0.74686   0.00000  Uiso   1.00
O494   O     0.20518   0.09524   0.75314   0.00000  Uiso   1.00
O495   O     0.22829   0.24753   0.75502   0.00000  Uiso   1.00
O496   O     0.10504   0.08580   0.74497   0.00000  Uiso   1.00
O497   O     0.08851   0.15930   0.80854   0.00000  Uiso   1.00
O498   O     0.24482   0.17403   0.69145   0.00000  Uiso   1.00
O499   O     0.18866   0.16874   0.81671   0.00000  Uiso   1.00
O500   O     0.14468   0.16460   0.68329   0.00000  Uiso   1.00
C501   C     0.51357   0.26626   0.75406   0.00000  Uiso   1.00
C502   C     0.53624   0.17733   0.66716   0.00000  Uiso   1.00
C503   C     0.44720   0.15175   0.88059   0.00000  Uiso   1.00
C504   C     0.55277   0.18159   0.61940   0.00000  Uiso   1.00
C505   C     0.37963   0.16128   0.94135   0.00000  Uiso   1.00
C506   C     0.62030   0.17218   0.55855   0.00000  Uiso   1.00
C507   C     0.39275   0.15508   0.89890   0.00000  Uiso   1.00
C508   C     0.60722   0.17832   0.60104   0.00000  Uiso   1.00
C509   C     0.48497   0.14377   0.90929   0.00000  Uiso   1.00
C510   C     0.51495   0.18952   0.59074   0.00000  Uiso   1.00
C511   C     0.46939   0.15025   0.95272   0.00000  Uiso   1.00
C512   C     0.48643   0.06707   0.74594   0.00000  Uiso   1.00
C513   C     0.53050   0.18307   0.54731   0.00000  Uiso   1.00
C514   C     0.41403   0.16147   0.96917   0.00000  Uiso   1.00
C515   C     0.58585   0.17199   0.53077   0.00000  Uiso   1.00
C516   C     0.50864   0.14907   0.98275   0.00000  Uiso   1.00
C517   C     0.49125   0.18416   0.51734   0.00000  Uiso   1.00
C518   C     0.43710   0.21258   0.52584   0.00000  Uiso   1.00
C519   C     0.56283   0.12066   0.97429   0.00000  Uiso   1.00
C520   C     0.41060   0.17325   0.51149   0.00000  Uiso   1.00
C521   C     0.58923   0.16025   0.98841   0.00000  Uiso   1.00
C522   C     0.52325   0.32222   0.75231   0.00000  Uiso   1.00
C523   C     0.47675   0.01111   0.74769   0.00000  Uiso   1.00
C524   C     0.46376   0.15600   0.83284   0.00000  Uiso   1.00
Cl525  Cl    0.45932   0.22665   0.60931   0.00000  Uiso   1.00
Cl526  Cl    0.54055   0.10656   0.89078   0.00000  Uiso   1.00
Cu527  Cu    0.44071   0.16108   0.74516   0.00000  Uiso   1.00
Cu528  Cu    0.55929   0.17225   0.75483   0.00000  Uiso   1.00
H529   H     0.37931   0.14534   0.52043   0.00000  Uiso   1.00
H530   H     0.43194   0.32097   0.74371   0.00000  Uiso   1.00
H531   H     0.33716   0.21326   0.77489   0.00000  Uiso   1.00
H532   H     0.66284   0.12007   0.72511   0.00000  Uiso   1.00
H533   H     0.62059   0.18832   0.97931   0.00000  Uiso   1.00
H534   H     0.64200   0.18145   0.61969   0.00000  Uiso   1.00
H535   H     0.35801   0.15196   0.88022   0.00000  Uiso   1.00
H536   H     0.33401   0.13107   0.94257   0.00000  Uiso   1.00
H537   H     0.66590   0.20254   0.55722   0.00000  Uiso   1.00
H538   H     0.42460   0.23562   0.55390   0.00000  Uiso   1.00
H539   H     0.57522   0.09761   0.94622   0.00000  Uiso   1.00
H540   H     0.56806   0.01236   0.75629   0.00000  Uiso   1.00
N541   N     0.64839   0.18068   0.76212   0.00000  Uiso   1.00
N542   N     0.35161   0.15265   0.73788   0.00000  Uiso   1.00
O543   O     0.46148   0.23809   0.74686   0.00000  Uiso   1.00
O544   O     0.53852   0.09524   0.75314   0.00000  Uiso   1.00
O545   O     0.56163   0.24753   0.75502   0.00000  Uiso   1.00
O546   O     0.43837   0.08580   0.74497   0.00000  Uiso   1.00
O547   O     0.42185   0.15930   0.80854   0.00000  Uiso   1.00
O548   O     0.57815   0.17403   0.69145   0.00000  Uiso   1.00
O549   O     0.52199   0.16874   0.81671   0.00000  Uiso   1.00
O550   O     0.47801   0.16460   0.68329   0.00000  Uiso   1.00
C551   C     0.84690   0.26626   0.75406   0.00000  Uiso   1.00
C552   C     0.86958   0.17733   0.66716   0.00000  Uiso   1.00
C553   C     0.78053   0.15175   0.88059   0.00000  Uiso   1.00
C554   C     0.88611   0.18159   0.61940   0.00000  Uiso   1.00
C555   C     0.71296   0.16128   0.94135   0.00000  Uiso   1.00
C556   C     0.95364   0.17218   0.55855   0.00000  Uiso   1.00
C557   C     0.72608   0.15508   0.89890   0.00000  Uiso   1.00
C558   C     0.94056   0.17832   0.60104   0.00000  Uiso   1.00
C559   C     0.81830   0.14377   0.90929   0.00000  Uiso   1.00
C560   C     0.84828   0.18952   0.59074   0.00000  Uiso   1.00
C561   C     0.80272   0.15025   0.95272   0.00000  Uiso   1.00
C562   C     0.81977   0.06707   0.74594   0.00000  Uiso   1.00
C563   C     0.86384   0.18307   0.54731   0.00000  Uiso   1.00
C564   C     0.74736   0.16147   0.96917   0.00000  Uiso   1.00
C565   C     0.91918   0.17199   0.53077   0.00000  Uiso   1.00
C566   C     0.84197   0.14907   0.98275   0.00000  Uiso   1.00
C567   C     0.82458   0.18416   0.51734   0.00000  Uiso   1.00
C568   C     0.77044   0.21258   0.52584   0.00000  Uiso   1.00
C569   C     0.89617   0.12066   0.97429   0.00000  Uiso   1.00
C570   C     0.74393   0.17325   0.51149   0.00000  Uiso   1.00
C571   C     0.92256   0.16025   0.98841   0.00000  Uiso   1.00
C572   C     0.85659   0.32222   0.75231   0.00000  Uiso   1.00
C573   C     0.81008   0.01111   0.74769   0.00000  Uiso   1.00
C574   C     0.79709   0.15600   0.83284   0.00000  Uiso   1.00
Cl575  Cl    0.79265   0.22665   0.60931   0.00000  Uiso   1.00
Cl576  Cl    0.87388   0.10656   0.89078   0.00000  Uiso   1.00
Cu577  Cu    0.77404   0.16108   0.74516   0.00000  Uiso   1.00
Cu578  Cu    0.89263   0.17225   0.75483   0.00000  Uiso   1.00
H579   H     0.71264   0.14534   0.52043   0.00000  Uiso   1.00
H580   H     0.76527   0.32097   0.74371   0.00000  Uiso   1.00
H581   H     0.67049   0.21326   0.77489   0.00000  Uiso   1.00
H582   H     0.99617   0.12007   0.72511   0.00000  Uiso   1.00
H583   H     0.95393   0.18832   0.97931   0.00000  Uiso   1.00
H584   H     0.97533   0.18145   0.61969   0.00000  Uiso   1.00
H585   H     0.69134   0.15196   0.88022   0.00000  Uiso   1.00
H586   H     0.66734   0.13107   0.94257   0.00000  Uiso   1.00
H587   H     0.99923   0.20254   0.55722   0.00000  Uiso   1.00
H588   H     0.75793   0.23562   0.55390   0.00000  Uiso   1.00
H589   H     0.90855   0.09761   0.94622   0.00000  Uiso   1.00
H590   H     0.90140   0.01236   0.75629   0.00000  Uiso   1.00
N591   N     0.98173   0.18068   0.76212   0.00000  Uiso   1.00
N592   N     0.68494   0.15265   0.73788   0.00000  Uiso   1.00
O593   O     0.79482   0.23809   0.74686   0.00000  Uiso   1.00
O594   O     0.87185   0.09524   0.75314   0.00000  Uiso   1.00
O595   O     0.89496   0.24753   0.75502   0.00000  Uiso   1.00
O596   O     0.77171   0.08580   0.74497   0.00000  Uiso   1.00
O597   O     0.75518   0.15930   0.80854   0.00000  Uiso   1.00
O598   O     0.91149   0.17403   0.69145   0.00000  Uiso   1.00
O599   O     0.85532   0.16874   0.81671   0.00000  Uiso   1.00
O600   O     0.81134   0.16460   0.68329   0.00000  Uiso   1.00
C601   C     0.18023   0.59959   0.75406   0.00000  Uiso   1.00
C602   C     0.20291   0.51067   0.66716   0.00000  Uiso   1.00
C603   C     0.11387   0.48508   0.88059   0.00000  Uiso   1.00
C604   C     0.21944   0.51492   0.61940   0.00000  Uiso   1.00
C605   C     0.04629   0.49461   0.94135   0.00000  Uiso   1.00
C606   C     0.28697   0.50552   0.55855   0.00000  Uiso   1.00
C607   C     0.05942   0.48841   0.89890   0.00000  Uiso   1.00
C608   C     0.27389   0.51165   0.60104   0.00000  Uiso   1.00
C609   C     0.15163   0.47710   0.90929   0.00000  Uiso   1.00
C610   C     0.18162   0.52286   0.59074   0.00000  Uiso   1.00
C611   C     0.13606   0.48358   0.95272   0.00000  Uiso   1.00
C612   C     0.15310   0.40041   0.74594   0.00000  Uiso   1.00
C613   C     0.19717   0.51640   0.54731   0.00000  Uiso   1.00
C614   C     0.08069   0.49480   0.96917   0.00000  Uiso   1.00
C615   C     0.25251   0.50532   0.53077   0.00000  Uiso   1.00
C616   C     0.17530   0.48241   0.98275   0.00000  Uiso   1.00
C617   C     0.15792   0.51750   0.51734   0.00000  Uiso   1.00
C618   C     0.10377   0.54591   0.52584   0.00000  Uiso   1.00
C619   C     0.22950   0.45399   0.97429   0.00000  Uiso   1.00
C620   C     0.07726   0.50659   0.51149   0.00000  Uiso   1.00
C621   C     0.25590   0.49358   0.98841   0.00000  Uiso   1.00
C622   C     0.18992   0.65555   0.75231   0.00000  Uiso   1.00
C623   C     0.14341   0.34445   0.74769   0.00000  Uiso   1.00
C624   C     0.13042   0.48933   0.83284   0.00000  Uiso   1.00
Cl625  Cl    0.12599   0.55998   0.60931   0.00000  Uiso   1.00
Cl626  Cl    0.20722   0.43989   0.89078   0.00000  Uiso   1.00
Cu627  Cu    0.10737   0.49441   0.74516   0.00000  Uiso   1.00
Cu628  Cu    0.22596   0.50559   0.75483   0.00000  Uiso   1.00
H629   H     0.04598   0.47868   0.52043   0.00000  Uiso   1.00
H630   H     0.09860   0.65430   0.74371   0.00000  Uiso   1.00
H631   H     0.00383   0.54660   0.77489   0.00000  Uiso   1.00
H632   H     0.32951   0.45340   0.72511   0.00000  Uiso   1.00
H633   H     0.28726   0.52166   0.97931   0.00000  Uiso   1.00
H634   H     0.30867   0.51479   0.61969   0.00000  Uiso   1.00
H635   H     0.02468   0.48529   0.88022   0.00000  Uiso   1.00
H636   H     0.00067   0.46441   0.94257   0.00000  Uiso   1.00
H637   H     0.33257   0.53588   0.55722   0.00000  Uiso   1.00
H638   H     0.09127   0.56895   0.55390   0.00000  Uiso   1.00
H639   H     0.24188   0.43095   0.94622   0.00000  Uiso   1.00
H640   H     0.23473   0.34570   0.75629   0.00000  Uiso   1.00
N641   N     0.31506   0.51401   0.76212   0.00000  Uiso   1.00
N642   N     0.01827   0.48599   0.73788   0.00000  Uiso   1.00
O643   O     0.12815   0.57142   0.74686   0.00000  Uiso   1.00
O644   O     0.20518   0.42858   0.75314   0.00000  Uiso   1.00
O645   O     0.22829   0.58086   0.75502   0.00000  Uiso   1.00
O646   O     0.10504   0.41914   0.74497   0.00000  Uiso   1.00
O647   O     0.08851   0.49263   0.80854   0.00000  Uiso   1.00
O648   O     0.24482   0.50737   0.69145   0.00000  Uiso   1.00
O649   O     0.18866   0.50207   0.81671   0.00000  Uiso   1.00
O650   O     0.14468   0.49793   0.68329   0.00000  Uiso   1.00
C651   C     0.51357   0.59959   0.75406   0.00000  Uiso   1.00
C652   C     0.53624   0.51067   0.66716   0.00000  Uiso   1.00
C653   C     0.44720   0.48508   0.88059   0.00000  Uiso   1.00
C654   C     0.55277   0.51492   0.61940   0.00000  Uiso   1.00
C655   C     0.37963   0.49461   0.94135   0.00000  Uiso   1.00
C656   C     0.62030   0.50552   0.55855   0.00000  Uiso   1.00
C657   C     0.39275   0.48841   0.89890   0.00000  Uiso   1.00
C658   C     0.60722   0.51165   0.60104   0.00000  Uiso   1.00
C659   C     0.48497   0.47710   0.90929   0.00000  Uiso   1.00
C660   C     0.51495   0.52286   0.59074   0.00000  Uiso   1.00
C661   C     0.46939   0.48358   0.95272   0.00000  Uiso   1.00
C662   C     0.48643   0.40041   0.74594   0.00000  Uiso   1.00
C663   C     0.53050   0.51640   0.54731   0.00000  Uiso   1.00
C664   C     0.41403   0.49480   0.96917   0.00000  Uiso   1.00
C665   C     0.58585   0.50532   0.53077   0.00000  Uiso   1.00
C666   C     0.50864   0.48241   0.98275   0.00000  Uiso   1.00
C667   C     0.49125   0.51750   0.51734   0.00000  Uiso   1.00
C668   C     0.43710   0.54591   0.52584   0.00000  Uiso   1.00
C669   C     0.56283   0.45399   0.97429   0.00000  Uiso   1.00
C670   C     0.41060   0.50659   0.51149   0.00000  Uiso   1.00
C671   C     0.58923   0.49358   0.98841   0.00000  Uiso   1.00
C672   C     0.52325   0.65555   0.75231   0.00000  Uiso   1.00
C673   C     0.47675   0.34445   0.74769   0.00000  Uiso   1.00
C674   C     0.46376   0.48933   0.83284   0.00000  Uiso   1.00
Cl675  Cl    0.45932   0.55998   0.60931   0.00000  Uiso   1.00
Cl676  Cl    0.54055   0.43989   0.89078   0.00000  Uiso   1.00
Cu677  Cu    0.44071   0.49441   0.74516   0.00000  Uiso   1.00
Cu678  Cu    0.55929   0.50559   0.75483   0.00000  Uiso   1.00
H679   H     0.37931   0.47868   0.52043   0.00000  Uiso   1.00
H680   H     0.43194   0.65430   0.74371   0.00000  Uiso   1.00
H681   H     0.33716   0.54660   0.77489   0.00000  Uiso   1.00
H682   H     0.66284   0.45340   0.72511   0.00000  Uiso   1.00
H683   H     0.62059   0.52166   0.97931   0.00000  Uiso   1.00
H684   H     0.64200   0.51479   0.61969   0.00000  Uiso   1.00
H685   H     0.35801   0.48529   0.88022   0.00000  Uiso   1.00
H686   H     0.33401   0.46441   0.94257   0.00000  Uiso   1.00
H687   H     0.66590   0.53588   0.55722   0.00000  Uiso   1.00
H688   H     0.42460   0.56895   0.55390   0.00000  Uiso   1.00
H689   H     0.57522   0.43095   0.94622   0.00000  Uiso   1.00
H690   H     0.56806   0.34570   0.75629   0.00000  Uiso   1.00
N691   N     0.64839   0.51401   0.76212   0.00000  Uiso   1.00
N692   N     0.35161   0.48599   0.73788   0.00000  Uiso   1.00
O693   O     0.46148   0.57142   0.74686   0.00000  Uiso   1.00
O694   O     0.53852   0.42858   0.75314   0.00000  Uiso   1.00
O695   O     0.56163   0.58086   0.75502   0.00000  Uiso   1.00
O696   O     0.43837   0.41914   0.74497   0.00000  Uiso   1.00
O697   O     0.42185   0.49263   0.80854   0.00000  Uiso   1.00
O698   O     0.57815   0.50737   0.69145   0.00000  Uiso   1.00
O699   O     0.52199   0.50207   0.81671   0.00000  Uiso   1.00
O700   O     0.47801   0.49793   0.68329   0.00000  Uiso   1.00
C701   C     0.84690   0.59959   0.75406   0.00000  Uiso   1.00
C702   C     0.86958   0.51067   0.66716   0.00000  Uiso   1.00
C703   C     0.78053   0.48508   0.88059   0.00000  Uiso   1.00
C704   C     0.88611   0.51492   0.61940   0.00000  Uiso   1.00
C705   C     0.71296   0.49461   0.94135   0.00000  Uiso   1.00
C706   C     0.95364   0.50552   0.55855   0.00000  Uiso   1.00
C707   C     0.72608   0.48841   0.89890   0.00000  Uiso   1.00
C708   C     0.94056   0.51165   0.60104   0.00000  Uiso   1.00
C709   C     0.81830   0.47710   0.90929   0.00000  Uiso   1.00
C710   C     0.84828   0.52286   0.59074   0.00000  Uiso   1.00
C711   C     0.80272   0.48358   0.95272   0.00000  Uiso   1.00
C712   C     0.81977   0.40041   0.74594   0.00000  Uiso   1.00
C713   C     0.86384   0.51640   0.54731   0.00000  Uiso   1.00
C714   C     0.74736   0.49480   0.96917   0.00000  Uiso   1.00
C715   C     0.91918   0.50532   0.53077   0.00000  Uiso   1.00
C716   C     0.84197   0.48241   0.98275   0.00000  Uiso   1.00
C717   C     0.82458   0.51750   0.51734   0.00000  Uiso   1.00
C718   C     0.77044   0.54591   0.52584   0.00000  Uiso   1.00
C719   C     0.89617   0.45399   0.97429   0.00000  Uiso   1.00
C720   C     0.74393   0.50659   0.51149   0.00000  Uiso   1.00
C721   C     0.92256   0.49358   0.98841   0.00000  Uiso   1.00
C722   C     0.85659   0.65555   0.75231   0.00000  Uiso   1.00
C723   C     0.81008   0.34445   0.74769   0.00000  Uiso   1.00
C724   C     0.79709   0.48933   0.83284   0.00000  Uiso   1.00
Cl725  Cl    0.79265   0.55998   0.60931   0.00000  Uiso   1.00
Cl726  Cl    0.87388   0.43989   0.89078   0.00000  Uiso   1.00
Cu727  Cu    0.77404   0.49441   0.74516   0.00000  Uiso   1.00
Cu728  Cu    0.89263   0.50559   0.75483   0.00000  Uiso   1.00
H729   H     0.71264   0.47868   0.52043   0.00000  Uiso   1.00
H730   H     0.76527   0.65430   0.74371   0.00000  Uiso   1.00
H731   H     0.67049   0.54660   0.77489   0.00000  Uiso   1.00
H732   H     0.99617   0.45340   0.72511   0.00000  Uiso   1.00
H733   H     0.95393   0.52166   0.97931   0.00000  Uiso   1.00
H734   H     0.97533   0.51479   0.61969   0.00000  Uiso   1.00
H735   H     0.69134   0.48529   0.88022   0.00000  Uiso   1.00
H736   H     0.66734   0.46441   0.94257   0.00000  Uiso   1.00
H737   H     0.99923   0.53588   0.55722   0.00000  Uiso   1.00
H738   H     0.75793   0.56895   0.55390   0.00000  Uiso   1.00
H739   H     0.90855   0.43095   0.94622   0.00000  Uiso   1.00
H740   H     0.90140   0.34570   0.75629   0.00000  Uiso   1.00
N741   N     0.98173   0.51401   0.76212   0.00000  Uiso   1.00
N742   N     0.68494   0.48599   0.73788   0.00000  Uiso   1.00
O743   O     0.79482   0.57142   0.74686   0.00000  Uiso   1.00
O744   O     0.87185   0.42858   0.75314   0.00000  Uiso   1.00
O745   O     0.89496   0.58086   0.75502   0.00000  Uiso   1.00
O746   O     0.77171   0.41914   0.74497   0.00000  Uiso   1.00
O747   O     0.75518   0.49263   0.80854   0.00000  Uiso   1.00
O748   O     0.91149   0.50737   0.69145   0.00000  Uiso   1.00
O749   O     0.85532   0.50207   0.81671   0.00000  Uiso   1.00
O750   O     0.81134   0.49793   0.68329   0.00000  Uiso   1.00
C751   C     0.18023   0.93293   0.75406   0.00000  Uiso   1.00
C752   C     0.20291   0.84400   0.66716   0.00000  Uiso   1.00
C753   C     0.11387   0.81842   0.88059   0.00000  Uiso   1.00
C754   C     0.21944   0.84826   0.61940   0.00000  Uiso   1.00
C755   C     0.04629   0.82795   0.94135   0.00000  Uiso   1.00
C756   C     0.28697   0.83885   0.55855   0.00000  Uiso   1.00
C757   C     0.05942   0.82175   0.89890   0.00000  Uiso   1.00
C758   C     0.27389   0.84499   0.60104   0.00000  Uiso   1.00
C759   C     0.15163   0.81044   0.90929   0.00000  Uiso   1.00
C760   C     0.18162   0.85619   0.59074   0.00000  Uiso   1.00
C761   C     0.13606   0.81692   0.95272   0.00000  Uiso   1.00
C762   C     0.15310   0.73374   0.74594   0.00000  Uiso   1.00
C763   C     0.19717   0.84974   0.54731   0.00000  Uiso   1.00
C764   C     0.08069   0.82813   0.96917   0.00000  Uiso   1.00
C765   C     0.25251   0.83865   0.53077   0.00000  Uiso   1.00
C766   C     0.17530   0.81574   0.98275   0.00000  Uiso   1.00
C767   C     0.15792   0.85083   0.51734   0.00000  Uiso   1.00
C768   C     0.10377   0.87924   0.52584   0.00000  Uiso   1.00
C769   C     0.22950   0.78732   0.97429   0.00000  Uiso   1.00
C770   C     0.07726   0.83992   0.51149   0.00000  Uiso   1.00
C771   C     0.25590   0.82691   0.98841   0.00000  Uiso   1.00
C772   C     0.18992   0.98889   0.75231   0.00000  Uiso   1.00
C773   C     0.14341   0.67778   0.74769   0.00000  Uiso   1.00
C774   C     0.13042   0.82267   0.83284   0.00000  Uiso   1.00
Cl775  Cl    0.12599   0.89332   0.60931   0.00000  Uiso   1.00
Cl776  Cl    0.20722   0.77323   0.89078   0.00000  Uiso   1.00
Cu777  Cu    0.10737   0.82775   0.74516   0.00000  Uiso   1.00
Cu778  Cu    0.22596   0.83892   0.75483   0.00000  Uiso   1.00
H779   H     0.04598   0.81201   0.52043   0.00000  Uiso   1.00
H780   H     0.09860   0.98764   0.74371   0.00000  Uiso   1.00
H781   H     0.00383   0.87993   0.77489   0.00000  Uiso   1.00
H782   H     0.32951   0.78674   0.72511   0.00000  Uiso   1.00
H783   H     0.28726   0.85499   0.97931   0.00000  Uiso   1.00
H784   H     0.30867   0.84812   0.61969   0.00000  Uiso   1.00
H785   H     0.02468   0.81863   0.88022   0.00000  Uiso   1.00
H786   H     0.00067   0.79774   0.94257   0.00000  Uiso   1.00
H787   H     0.33257   0.86921   0.55722   0.00000  Uiso   1.00
H788   H     0.09127   0.90229   0.55390   0.00000  Uiso   1.00
H789   H     0.24188   0.76428   0.94622   0.00000  Uiso   1.00
H790   H     0.23473   0.67903   0.75629   0.00000  Uiso   1.00
N791   N     0.31506   0.84735   0.76212   0.00000  Uiso   1.00
N792   N     0.01827   0.81932   0.73788   0.00000  Uiso   1.00
O793   O     0.12815   0.90476   0.74686   0.00000  Uiso   1.00
O794   O     0.20518   0.76191   0.75314   0.00000  Uiso   1.00
O795   O     0.22829   0.91420   0.75502   0.00000  Uiso   1.00
O796   O     0.10504   0.75247   0.74497   0.00000  Uiso   1.00
O797   O     0.08851   0.82597   0.80854   0.00000  Uiso   1.00
O798   O     0.24482   0.84070   0.69145   0.00000  Uiso   1.00
O799   O     0.18866   0.83540   0.81671   0.00000  Uiso   1.00
O800   O     0.14468   0.83126   0.68329   0.00000  Uiso   1.00
C801   C     0.51357   0.93293   0.75406   0.00000  Uiso   1.00
C802   C     0.53624   0.84400   0.66716   0.00000  Uiso   1.00
C803   C     0.44720   0.81842   0.88059   0.00000  Uiso   1.00
C804   C     0.55277   0.84826   0.61940   0.00000  Uiso   1.00
C805   C     0.37963   0.82795   0.94135   0.00000  Uiso   1.00
C806   C     0.62030   0.83885   0.55855   0.00000  Uiso   1.00
C807   C     0.39275   0.82175   0.89890   0.00000  Uiso   1.00
C808   C     0.60722   0.84499   0.60104   0.00000  Uiso   1.00
C809   C     0.48497   0.81044   0.90929   0.00000  Uiso   1.00
C810   C     0.51495   0.85619   0.59074   0.00000  Uiso   1.00
C811   C     0.46939   0.81692   0.95272   0.00000  Uiso   1.00
C812   C     0.48643   0.73374   0.74594   0.00000  Uiso   1.00
C813   C     0.53050   0.84974   0.54731   0.00000  Uiso   1.00
C814   C     0.41403   0.82813   0.96917   0.00000  Uiso   1.00
C815   C     0.58585   0.83865   0.53077   0.00000  Uiso   1.00
C816   C     0.50864   0.81574   0.98275   0.00000  Uiso   1.00
C817   C     0.49125   0.85083   0.51734   0.00000  Uiso   1.00
C818   C     0.43710   0.87924   0.52584   0.00000  Uiso   1.00
C819   C     0.56283   0.78732   0.97429   0.00000  Uiso   1.00
C820   C     0.41060   0.83992   0.51149   0.00000  Uiso   1.00
C821   C     0.58923   0.82691   0.98841   0.00000  Uiso   1.00
C822   C     0.52325   0.98889   0.75231   0.00000  Uiso   1.00
C823   C     0.47675   0.67778   0.74769   0.00000  Uiso   1.00
C824   C     0.46376   0.82267   0.83284   0.00000  Uiso   1.00
Cl825  Cl    0.45932   0.89332   0.60931   0.00000  Uiso   1.00
Cl826  Cl    0.54055   0.77323   0.89078   0.00000  Uiso   1.00
Cu827  Cu    0.44071   0.82775   0.74516   0.00000  Uiso   1.00
Cu828  Cu    0.55929   0.83892   0.75483   0.00000  Uiso   1.00
H829   H     0.37931   0.81201   0.52043   0.00000  Uiso   1.00
H830   H     0.43194   0.98764   0.74371   0.00000  Uiso   1.00
H831   H     0.33716   0.87993   0.77489   0.00000  Uiso   1.00
H832   H     0.66284   0.78674   0.72511   0.00000  Uiso   1.00
H833   H     0.62059   0.85499   0.97931   0.00000  Uiso   1.00
H834   H     0.64200   0.84812   0.61969   0.00000  Uiso   1.00
H835   H     0.35801   0.81863   0.88022   0.00000  Uiso   1.00
H836   H     0.33401   0.79774   0.94257   0.00000  Uiso   1.00
H837   H     0.66590   0.86921   0.55722   0.00000  Uiso   1.00
H838   H     0.42460   0.90229   0.55390   0.00000  Uiso   1.00
H839   H     0.57522   0.76428   0.94622   0.00000  Uiso   1.00
H840   H     0.56806   0.67903   0.75629   0.00000  Uiso   1.00
N841   N     0.64839   0.84735   0.76212   0.00000  Uiso   1.00
N842   N     0.35161   0.81932   0.73788   0.00000  Uiso   1.00
O843   O     0.46148   0.90476   0.74686   0.00000  Uiso   1.00
O844   O     0.53852   0.76191   0.75314   0.00000  Uiso   1.00
O845   O     0.56163   0.91420   0.75502   0.00000  Uiso   1.00
O846   O     0.43837   0.75247   0.74497   0.00000  Uiso   1.00
O847   O     0.42185   0.82597   0.80854   0.00000  Uiso   1.00
O848   O     0.57815   0.84070   0.69145   0.00000  Uiso   1.00
O849   O     0.52199   0.83540   0.81671   0.00000  Uiso   1.00
O850   O     0.47801   0.83126   0.68329   0.00000  Uiso   1.00
C851   C     0.84690   0.93293   0.75406   0.00000  Uiso   1.00
C852   C     0.86958   0.84400   0.66716   0.00000  Uiso   1.00
C853   C     0.78053   0.81842   0.88059   0.00000  Uiso   1.00
C854   C     0.88611   0.84826   0.61940   0.00000  Uiso   1.00
C855   C     0.71296   0.82795   0.94135   0.00000  Uiso   1.00
C856   C     0.95364   0.83885   0.55855   0.00000  Uiso   1.00
C857   C     0.72608   0.82175   0.89890   0.00000  Uiso   1.00
C858   C     0.94056   0.84499   0.60104   0.00000  Uiso   1.00
C859   C     0.81830   0.81044   0.90929   0.00000  Uiso   1.00
C860   C     0.84828   0.85619   0.59074   0.00000  Uiso   1.00
C861   C     0.80272   0.81692   0.95272   0.00000  Uiso   1.00
C862   C     0.81977   0.73374   0.74594   0.00000  Uiso   1.00
C863   C     0.86384   0.84974   0.54731   0.00000  Uiso   1.00
C864   C     0.74736   0.82813   0.96917   0.00000  Uiso   1.00
C865   C     0.91918   0.83865   0.53077   0.00000  Uiso   1.00
C866   C     0.84197   0.81574   0.98275   0.00000  Uiso   1.00
C867   C     0.82458   0.85083   0.51734   0.00000  Uiso   1.00
C868   C     0.77044   0.87924   0.52584   0.00000  Uiso   1.00
C869   C     0.89617   0.78732   0.97429   0.00000  Uiso   1.00
C870   C     0.74393   0.83992   0.51149   0.00000  Uiso   1.00
C871   C     0.92256   0.82691   0.98841   0.00000  Uiso   1.00
C872   C     0.85659   0.98889   0.75231   0.00000  Uiso   1.00
C873   C     0.81008   0.67778   0.74769   0.00000  Uiso   1.00
C874   C     0.79709   0.82267   0.83284   0.00000  Uiso   1.00
Cl875  Cl    0.79265   0.89332   0.60931   0.00000  Uiso   1.00
Cl876  Cl    0.87388   0.77323   0.89078   0.00000  Uiso   1.00
Cu877  Cu    0.77404   0.82775   0.74516   0.00000  Uiso   1.00
Cu878  Cu    0.89263   0.83892   0.75483   0.00000  Uiso   1.00
H879   H     0.71264   0.81201   0.52043   0.00000  Uiso   1.00
H880   H     0.76527   0.98764   0.74371   0.00000  Uiso   1.00
H881   H     0.67049   0.87993   0.77489   0.00000  Uiso   1.00
H882   H     0.99617   0.78674   0.72511   0.00000  Uiso   1.00
H883   H     0.95393   0.85499   0.97931   0.00000  Uiso   1.00
H884   H     0.97533   0.84812   0.61969   0.00000  Uiso   1.00
H885   H     0.69134   0.81863   0.88022   0.00000  Uiso   1.00
H886   H     0.66734   0.79774   0.94257   0.00000  Uiso   1.00
H887   H     0.99923   0.86921   0.55722   0.00000  Uiso   1.00
H888   H     0.75793   0.90229   0.55390   0.00000  Uiso   1.00
H889   H     0.90855   0.76428   0.94622   0.00000  Uiso   1.00
H890   H     0.90140   0.67903   0.75629   0.00000  Uiso   1.00
N891   N     0.98173   0.84735   0.76212   0.00000  Uiso   1.00
N892   N     0.68494   0.81932   0.73788   0.00000  Uiso   1.00
O893   O     0.79482   0.90476   0.74686   0.00000  Uiso   1.00
O894   O     0.87185   0.76191   0.75314   0.00000  Uiso   1.00
O895   O     0.89496   0.91420   0.75502   0.00000  Uiso   1.00
O896   O     0.77171   0.75247   0.74497   0.00000  Uiso   1.00
O897   O     0.75518   0.82597   0.80854   0.00000  Uiso   1.00
O898   O     0.91149   0.84070   0.69145   0.00000  Uiso   1.00
O899   O     0.85532   0.83540   0.81671   0.00000  Uiso   1.00
O900   O     0.81134   0.83126   0.68329   0.00000  Uiso   1.00
loop_
_geom_bond_atom_site_label_1
_geom_bond_atom_site_label_2
_geom_bond_distance
_geom_bond_site_symmetry_2
_ccdc_geom_bond_type
C1     C22     1.522   .     S
C1     O45     1.355   .     A
C1     O43     1.377   .     A
C2     C4      1.565   .     S
C2     O50     1.357   .     A
C2     O48     1.381   .     A
C3     C9      1.434   .     A
C3     C24     1.565   .     S
C3     C7      1.369   .     A
C4     C8      1.369   .     A
C4     C10     1.434   .     A
C5     C14     1.320   .     A
C5     H36     1.208   .     S
C5     C7      1.438   .     A
C6     H37     1.209   .     S
C6     C8      1.439   .     A
C6     C15     1.320   .     A
C7     H35     1.096   .     S
C8     H34     1.096   .     S
C9     C11     1.478   .     A
C9     Cl26    1.920   .     S
C10    Cl25    1.919   .     S
C10    C13     1.478   .     A
C11    C14     1.456   .     A
C11    C16     1.464   .     A
C12    C23     1.522   .     S
C12    O44     1.377   .     A
C12    O46     1.355   .     A
C13    C17     1.462   .     A
C13    C15     1.455   .     A
C14    C470    1.474   .     S
C15    C471    1.475   1_554 S
C16    C19     1.656   .     A
C16    C467    1.652   .     S
C17    C18     1.655   .     A
C17    C466    1.652   1_554 S
C18    C20     1.312   .     A
C18    H38     1.226   .     S
C19    H39     1.225   .     S
C19    C21     1.313   .     A
C20    H29     0.937   .     S
C20    C464    1.474   1_554 S
C21    H33     0.941   .     S
C21    C465    1.475   .     S
C22    C173    1.397   .     S
C22    H190    1.152   .     S
C23    C322    1.397   1_545 S
C23    H330    1.152   1_545 S
C24    O49     1.357   .     A
C24    O47     1.381   .     A
Cu27   O50     2.101   .     S
Cu27   N42     2.123   .     S
Cu27   O46     2.091   .     S
Cu27   O43     2.106   .     S
Cu27   O47     2.084   .     S
Cu28   O49     2.101   .     S
Cu28   O45     2.091   .     S
Cu28   N41     2.123   .     S
Cu28   O48     2.084   .     S
Cu28   O44     2.106   .     S
H30    C173    1.152   .     S
H31    N141    1.104   1_455 S
H32    N92     1.104   .     S
H40    C322    1.152   1_545 S
N41    H81     1.104   .     S
N41    N92     1.495   .     S
N42    N141    1.495   1_455 S
N42    H132    1.104   1_455 S
C51    C72     1.522   .     S
C51    O95     1.355   .     A
C51    O93     1.377   .     A
C52    C54     1.565   .     S
C52    O100    1.357   .     A
C52    O98     1.381   .     A
C53    C59     1.434   .     A
C53    C74     1.565   .     S
C53    C57     1.369   .     A
C54    C58     1.369   .     A
C54    C60     1.434   .     A
C55    C64     1.320   .     A
C55    H86     1.208   .     S
C55    C57     1.438   .     A
C56    H87     1.209   .     S
C56    C58     1.439   .     A
C56    C65     1.320   .     A
C57    H85     1.096   .     S
C58    H84     1.096   .     S
C59    C61     1.478   .     A
C59    Cl76    1.920   .     S
C60    Cl75    1.919   .     S
C60    C63     1.478   .     A
C61    C64     1.456   .     A
C61    C66     1.464   .     A
C62    C73     1.522   .     S
C62    O94     1.377   .     A
C62    O96     1.355   .     A
C63    C67     1.462   .     A
C63    C65     1.455   .     A
C64    C520    1.474   .     S
C65    C521    1.475   1_554 S
C66    C69     1.656   .     A
C66    C517    1.652   .     S
C67    C68     1.655   .     A
C67    C516    1.652   1_554 S
C68    C70     1.312   .     A
C68    H88     1.226   .     S
C69    H89     1.225   .     S
C69    C71     1.313   .     A
C70    H79     0.937   .     S
C70    C514    1.474   1_554 S
C71    H83     0.941   .     S
C71    C515    1.475   .     S
C72    C223    1.397   .     S
C72    H240    1.152   .     S
C73    C372    1.397   1_545 S
C73    H380    1.152   1_545 S
C74    O99     1.357   .     A
C74    O97     1.381   .     A
Cu77   O100    2.101   .     S
Cu77   N92     2.123   .     S
Cu77   O96     2.091   .     S
Cu77   O93     2.106   .     S
Cu77   O97     2.084   .     S
Cu78   O99     2.101   .     S
Cu78   O95     2.091   .     S
Cu78   N91     2.123   .     S
Cu78   O98     2.084   .     S
Cu78   O94     2.106   .     S
H80    C223    1.152   .     S
H82    N142    1.104   .     S
H90    C372    1.152   1_545 S
N91    H131    1.104   .     S
N91    N142    1.495   .     S
C101   C122    1.522   .     S
C101   O145    1.355   .     A
C101   O143    1.377   .     A
C102   C104    1.565   .     S
C102   O150    1.357   .     A
C102   O148    1.381   .     A
C103   C109    1.434   .     A
C103   C124    1.565   .     S
C103   C107    1.369   .     A
C104   C108    1.369   .     A
C104   C110    1.434   .     A
C105   C114    1.320   .     A
C105   H136    1.208   .     S
C105   C107    1.438   .     A
C106   H137    1.209   .     S
C106   C108    1.439   .     A
C106   C115    1.320   .     A
C107   H135    1.096   .     S
C108   H134    1.096   .     S
C109   C111    1.478   .     A
C109   Cl126   1.920   .     S
C110   Cl125   1.919   .     S
C110   C113    1.478   .     A
C111   C114    1.456   .     A
C111   C116    1.464   .     A
C112   C123    1.522   .     S
C112   O144    1.377   .     A
C112   O146    1.355   .     A
C113   C117    1.462   .     A
C113   C115    1.455   .     A
C114   C570    1.474   .     S
C115   C571    1.475   1_554 S
C116   C119    1.656   .     A
C116   C567    1.652   .     S
C117   C118    1.655   .     A
C117   C566    1.652   1_554 S
C118   C120    1.312   .     A
C118   H138    1.226   .     S
C119   H139    1.225   .     S
C119   C121    1.313   .     A
C120   H129    0.937   .     S
C120   C564    1.474   1_554 S
C121   H133    0.941   .     S
C121   C565    1.475   .     S
C122   C273    1.397   .     S
C122   H290    1.152   .     S
C123   C422    1.397   1_545 S
C123   H430    1.152   1_545 S
C124   O149    1.357   .     A
C124   O147    1.381   .     A
Cu127  O150    2.101   .     S
Cu127  N142    2.123   .     S
Cu127  O146    2.091   .     S
Cu127  O143    2.106   .     S
Cu127  O147    2.084   .     S
Cu128  O149    2.101   .     S
Cu128  O145    2.091   .     S
Cu128  N141    2.123   .     S
Cu128  O148    2.084   .     S
Cu128  O144    2.106   .     S
H130   C273    1.152   .     S
H132   N42     1.104   1_655 S
H140   C422    1.152   1_545 S
N141   H31     1.104   1_655 S
N141   N42     1.495   1_655 S
C151   C172    1.522   .     S
C151   O195    1.355   .     A
C151   O193    1.377   .     A
C152   C154    1.565   .     S
C152   O200    1.357   .     A
C152   O198    1.381   .     A
C153   C159    1.434   .     A
C153   C174    1.565   .     S
C153   C157    1.369   .     A
C154   C158    1.369   .     A
C154   C160    1.434   .     A
C155   C164    1.320   .     A
C155   H186    1.208   .     S
C155   C157    1.438   .     A
C156   H187    1.209   .     S
C156   C158    1.439   .     A
C156   C165    1.320   .     A
C157   H185    1.096   .     S
C158   H184    1.096   .     S
C159   C161    1.478   .     A
C159   Cl176   1.920   .     S
C160   Cl175   1.919   .     S
C160   C163    1.478   .     A
C161   C164    1.456   .     A
C161   C166    1.464   .     A
C162   C173    1.522   .     S
C162   O194    1.377   .     A
C162   O196    1.355   .     A
C163   C167    1.462   .     A
C163   C165    1.455   .     A
C164   C620    1.474   .     S
C165   C621    1.475   1_554 S
C166   C169    1.656   .     A
C166   C617    1.652   .     S
C167   C168    1.655   .     A
C167   C616    1.652   1_554 S
C168   C170    1.312   .     A
C168   H188    1.226   .     S
C169   H189    1.225   .     S
C169   C171    1.313   .     A
C170   H179    0.937   .     S
C170   C614    1.474   1_554 S
C171   H183    0.941   .     S
C171   C615    1.475   .     S
C172   C323    1.397   .     S
C172   H340    1.152   .     S
C174   O199    1.357   .     A
C174   O197    1.381   .     A
Cu177  O200    2.101   .     S
Cu177  N192    2.123   .     S
Cu177  O196    2.091   .     S
Cu177  O193    2.106   .     S
Cu177  O197    2.084   .     S
Cu178  O199    2.101   .     S
Cu178  O195    2.091   .     S
Cu178  N191    2.123   .     S
Cu178  O198    2.084   .     S
Cu178  O194    2.106   .     S
H180   C323    1.152   .     S
H181   N291    1.104   1_455 S
H182   N242    1.104   .     S
N191   H231    1.104   .     S
N191   N242    1.495   .     S
N192   N291    1.495   1_455 S
N192   H282    1.104   1_455 S
C201   C222    1.522   .     S
C201   O245    1.355   .     A
C201   O243    1.377   .     A
C202   C204    1.565   .     S
C202   O250    1.357   .     A
C202   O248    1.381   .     A
C203   C209    1.434   .     A
C203   C224    1.565   .     S
C203   C207    1.369   .     A
C204   C208    1.369   .     A
C204   C210    1.434   .     A
C205   C214    1.320   .     A
C205   H236    1.208   .     S
C205   C207    1.438   .     A
C206   H237    1.209   .     S
C206   C208    1.439   .     A
C206   C215    1.320   .     A
C207   H235    1.096   .     S
C208   H234    1.096   .     S
C209   C211    1.478   .     A
C209   Cl226   1.920   .     S
C210   Cl225   1.919   .     S
C210   C213    1.478   .     A
C211   C214    1.456   .     A
C211   C216    1.464   .     A
C212   C223    1.522   .     S
C212   O244    1.377   .     A
C212   O246    1.355   .     A
C213   C217    1.462   .     A
C213   C215    1.455   .     A
C214   C670    1.474   .     S
C215   C671    1.475   1_554 S
C216   C219    1.656   .     A
C216   C667    1.652   .     S
C217   C218    1.655   .     A
C217   C666    1.652   1_554 S
C218   C220    1.312   .     A
C218   H238    1.226   .     S
C219   H239    1.225   .     S
C219   C221    1.313   .     A
C220   H229    0.937   .     S
C220   C664    1.474   1_554 S
C221   H233    0.941   .     S
C221   C665    1.475   .     S
C222   C373    1.397   .     S
C222   H390    1.152   .     S
C224   O249    1.357   .     A
C224   O247    1.381   .     A
Cu227  O250    2.101   .     S
Cu227  N242    2.123   .     S
Cu227  O246    2.091   .     S
Cu227  O243    2.106   .     S
Cu227  O247    2.084   .     S
Cu228  O249    2.101   .     S
Cu228  O245    2.091   .     S
Cu228  N241    2.123   .     S
Cu228  O248    2.084   .     S
Cu228  O244    2.106   .     S
H230   C373    1.152   .     S
H232   N292    1.104   .     S
N241   H281    1.104   .     S
N241   N292    1.495   .     S
C251   C272    1.522   .     S
C251   O295    1.355   .     A
C251   O293    1.377   .     A
C252   C254    1.565   .     S
C252   O300    1.357   .     A
C252   O298    1.381   .     A
C253   C259    1.434   .     A
C253   C274    1.565   .     S
C253   C257    1.369   .     A
C254   C258    1.369   .     A
C254   C260    1.434   .     A
C255   C264    1.320   .     A
C255   H286    1.208   .     S
C255   C257    1.438   .     A
C256   H287    1.209   .     S
C256   C258    1.439   .     A
C256   C265    1.320   .     A
C257   H285    1.096   .     S
C258   H284    1.096   .     S
C259   C261    1.478   .     A
C259   Cl276   1.920   .     S
C260   Cl275   1.919   .     S
C260   C263    1.478   .     A
C261   C264    1.456   .     A
C261   C266    1.464   .     A
C262   C273    1.522   .     S
C262   O294    1.377   .     A
C262   O296    1.355   .     A
C263   C267    1.462   .     A
C263   C265    1.455   .     A
C264   C720    1.474   .     S
C265   C721    1.475   1_554 S
C266   C269    1.656   .     A
C266   C717    1.652   .     S
C267   C268    1.655   .     A
C267   C716    1.652   1_554 S
C268   C270    1.312   .     A
C268   H288    1.226   .     S
C269   H289    1.225   .     S
C269   C271    1.313   .     A
C270   H279    0.937   .     S
C270   C714    1.474   1_554 S
C271   H283    0.941   .     S
C271   C715    1.475   .     S
C272   C423    1.397   .     S
C272   H440    1.152   .     S
C274   O299    1.357   .     A
C274   O297    1.381   .     A
Cu277  O300    2.101   .     S
Cu277  N292    2.123   .     S
Cu277  O296    2.091   .     S
Cu277  O293    2.106   .     S
Cu277  O297    2.084   .     S
Cu278  O299    2.101   .     S
Cu278  O295    2.091   .     S
Cu278  N291    2.123   .     S
Cu278  O298    2.084   .     S
Cu278  O294    2.106   .     S
H280   C423    1.152   .     S
H282   N192    1.104   1_655 S
N291   H181    1.104   1_655 S
N291   N192    1.495   1_655 S
C301   C322    1.522   .     S
C301   O345    1.355   .     A
C301   O343    1.377   .     A
C302   C304    1.565   .     S
C302   O350    1.357   .     A
C302   O348    1.381   .     A
C303   C309    1.434   .     A
C303   C324    1.565   .     S
C303   C307    1.369   .     A
C304   C308    1.369   .     A
C304   C310    1.434   .     A
C305   C314    1.320   .     A
C305   H336    1.208   .     S
C305   C307    1.438   .     A
C306   H337    1.209   .     S
C306   C308    1.439   .     A
C306   C315    1.320   .     A
C307   H335    1.096   .     S
C308   H334    1.096   .     S
C309   C311    1.478   .     A
C309   Cl326   1.920   .     S
C310   Cl325   1.919   .     S
C310   C313    1.478   .     A
C311   C314    1.456   .     A
C311   C316    1.464   .     A
C312   C323    1.522   .     S
C312   O344    1.377   .     A
C312   O346    1.355   .     A
C313   C317    1.462   .     A
C313   C315    1.455   .     A
C314   C770    1.474   .     S
C315   C771    1.475   1_554 S
C316   C319    1.656   .     A
C316   C767    1.652   .     S
C317   C318    1.655   .     A
C317   C766    1.652   1_554 S
C318   C320    1.312   .     A
C318   H338    1.226   .     S
C319   H339    1.225   .     S
C319   C321    1.313   .     A
C320   H329    0.937   .     S
C320   C764    1.474   1_554 S
C321   H333    0.941   .     S
C321   C765    1.475   .     S
C322   C23     1.397   1_565 S
C322   H40     1.152   1_565 S
C324   O349    1.357   .     A
C324   O347    1.381   .     A
Cu327  O350    2.101   .     S
Cu327  N342    2.123   .     S
Cu327  O346    2.091   .     S
Cu327  O343    2.106   .     S
Cu327  O347    2.084   .     S
Cu328  O349    2.101   .     S
Cu328  O345    2.091   .     S
Cu328  N341    2.123   .     S
Cu328  O348    2.084   .     S
Cu328  O344    2.106   .     S
H330   C23     1.152   1_565 S
H331   N441    1.104   1_455 S
H332   N392    1.104   .     S
N341   H381    1.104   .     S
N341   N392    1.495   .     S
N342   N441    1.495   1_455 S
N342   H432    1.104   1_455 S
C351   C372    1.522   .     S
C351   O395    1.355   .     A
C351   O393    1.377   .     A
C352   C354    1.565   .     S
C352   O400    1.357   .     A
C352   O398    1.381   .     A
C353   C359    1.434   .     A
C353   C374    1.565   .     S
C353   C357    1.369   .     A
C354   C358    1.369   .     A
C354   C360    1.434   .     A
C355   C364    1.320   .     A
C355   H386    1.208   .     S
C355   C357    1.438   .     A
C356   H387    1.209   .     S
C356   C358    1.439   .     A
C356   C365    1.320   .     A
C357   H385    1.096   .     S
C358   H384    1.096   .     S
C359   C361    1.478   .     A
C359   Cl376   1.920   .     S
C360   Cl375   1.919   .     S
C360   C363    1.478   .     A
C361   C364    1.456   .     A
C361   C366    1.464   .     A
C362   C373    1.522   .     S
C362   O394    1.377   .     A
C362   O396    1.355   .     A
C363   C367    1.462   .     A
C363   C365    1.455   .     A
C364   C820    1.474   .     S
C365   C821    1.475   1_554 S
C366   C369    1.656   .     A
C366   C817    1.652   .     S
C367   C368    1.655   .     A
C367   C816    1.652   1_554 S
C368   C370    1.312   .     A
C368   H388    1.226   .     S
C369   H389    1.225   .     S
C369   C371    1.313   .     A
C370   H379    0.937   .     S
C370   C814    1.474   1_554 S
C371   H383    0.941   .     S
C371   C815    1.475   .     S
C372   C73     1.397   1_565 S
C372   H90     1.152   1_565 S
C374   O399    1.357   .     A
C374   O397    1.381   .     A
Cu377  O400    2.101   .     S
Cu377  N392    2.123   .     S
Cu377  O396    2.091   .     S
Cu377  O393    2.106   .     S
Cu377  O397    2.084   .     S
Cu378  O399    2.101   .     S
Cu378  O395    2.091   .     S
Cu378  N391    2.123   .     S
Cu378  O398    2.084   .     S
Cu378  O394    2.106   .     S
H380   C73     1.152   1_565 S
H382   N442    1.104   .     S
N391   H431    1.104   .     S
N391   N442    1.495   .     S
C401   C422    1.522   .     S
C401   O445    1.355   .     A
C401   O443    1.377   .     A
C402   C404    1.565   .     S
C402   O450    1.357   .     A
C402   O448    1.381   .     A
C403   C409    1.434   .     A
C403   C424    1.565   .     S
C403   C407    1.369   .     A
C404   C408    1.369   .     A
C404   C410    1.434   .     A
C405   C414    1.320   .     A
C405   H436    1.208   .     S
C405   C407    1.438   .     A
C406   H437    1.209   .     S
C406   C408    1.439   .     A
C406   C415    1.320   .     A
C407   H435    1.096   .     S
C408   H434    1.096   .     S
C409   C411    1.478   .     A
C409   Cl426   1.920   .     S
C410   Cl425   1.919   .     S
C410   C413    1.478   .     A
C411   C414    1.456   .     A
C411   C416    1.464   .     A
C412   C423    1.522   .     S
C412   O444    1.377   .     A
C412   O446    1.355   .     A
C413   C417    1.462   .     A
C413   C415    1.455   .     A
C414   C870    1.474   .     S
C415   C871    1.475   1_554 S
C416   C419    1.656   .     A
C416   C867    1.652   .     S
C417   C418    1.655   .     A
C417   C866    1.652   1_554 S
C418   C420    1.312   .     A
C418   H438    1.226   .     S
C419   H439    1.225   .     S
C419   C421    1.313   .     A
C420   H429    0.937   .     S
C420   C864    1.474   1_554 S
C421   H433    0.941   .     S
C421   C865    1.475   .     S
C422   C123    1.397   1_565 S
C422   H140    1.152   1_565 S
C424   O449    1.357   .     A
C424   O447    1.381   .     A
Cu427  O450    2.101   .     S
Cu427  N442    2.123   .     S
Cu427  O446    2.091   .     S
Cu427  O443    2.106   .     S
Cu427  O447    2.084   .     S
Cu428  O449    2.101   .     S
Cu428  O445    2.091   .     S
Cu428  N441    2.123   .     S
Cu428  O448    2.084   .     S
Cu428  O444    2.106   .     S
H430   C123    1.152   1_565 S
H432   N342    1.104   1_655 S
N441   H331    1.104   1_655 S
N441   N342    1.495   1_655 S
C451   C472    1.522   .     S
C451   O495    1.355   .     A
C451   O493    1.377   .     A
C452   C454    1.565   .     S
C452   O500    1.357   .     A
C452   O498    1.381   .     A
C453   C459    1.434   .     A
C453   C474    1.565   .     S
C453   C457    1.369   .     A
C454   C458    1.369   .     A
C454   C460    1.434   .     A
C455   C464    1.320   .     A
C455   H486    1.208   .     S
C455   C457    1.438   .     A
C456   H487    1.209   .     S
C456   C458    1.439   .     A
C456   C465    1.320   .     A
C457   H485    1.096   .     S
C458   H484    1.096   .     S
C459   C461    1.478   .     A
C459   Cl476   1.920   .     S
C460   Cl475   1.919   .     S
C460   C463    1.478   .     A
C461   C464    1.456   .     A
C461   C466    1.464   .     A
C462   C473    1.522   .     S
C462   O494    1.377   .     A
C462   O496    1.355   .     A
C463   C467    1.462   .     A
C463   C465    1.455   .     A
C464   C20     1.474   1_556 S
C466   C469    1.656   .     A
C466   C17     1.652   1_556 S
C467   C468    1.655   .     A
C468   C470    1.312   .     A
C468   H488    1.226   .     S
C469   H489    1.225   .     S
C469   C471    1.313   .     A
C470   H479    0.937   .     S
C471   H483    0.941   .     S
C471   C15     1.475   1_556 S
C472   C623    1.397   .     S
C472   H640    1.152   .     S
C473   C772    1.397   1_545 S
C473   H780    1.152   1_545 S
C474   O499    1.357   .     A
C474   O497    1.381   .     A
Cu477  O500    2.101   .     S
Cu477  N492    2.123   .     S
Cu477  O496    2.091   .     S
Cu477  O493    2.106   .     S
Cu477  O497    2.084   .     S
Cu478  O499    2.101   .     S
Cu478  O495    2.091   .     S
Cu478  N491    2.123   .     S
Cu478  O498    2.084   .     S
Cu478  O494    2.106   .     S
H480   C623    1.152   .     S
H481   N591    1.104   1_455 S
H482   N542    1.104   .     S
H490   C772    1.152   1_545 S
N491   H531    1.104   .     S
N491   N542    1.495   .     S
N492   N591    1.495   1_455 S
N492   H582    1.104   1_455 S
C501   C522    1.522   .     S
C501   O545    1.355   .     A
C501   O543    1.377   .     A
C502   C504    1.565   .     S
C502   O550    1.357   .     A
C502   O548    1.381   .     A
C503   C509    1.434   .     A
C503   C524    1.565   .     S
C503   C507    1.369   .     A
C504   C508    1.369   .     A
C504   C510    1.434   .     A
C505   C514    1.320   .     A
C505   H536    1.208   .     S
C505   C507    1.438   .     A
C506   H537    1.209   .     S
C506   C508    1.439   .     A
C506   C515    1.320   .     A
C507   H535    1.096   .     S
C508   H534    1.096   .     S
C509   C511    1.478   .     A
C509   Cl526   1.920   .     S
C510   Cl525   1.919   .     S
C510   C513    1.478   .     A
C511   C514    1.456   .     A
C511   C516    1.464   .     A
C512   C523    1.522   .     S
C512   O544    1.377   .     A
C512   O546    1.355   .     A
C513   C517    1.462   .     A
C513   C515    1.455   .     A
C514   C70     1.474   1_556 S
C516   C519    1.656   .     A
C516   C67     1.652   1_556 S
C517   C518    1.655   .     A
C518   C520    1.312   .     A
C518   H538    1.226   .     S
C519   H539    1.225   .     S
C519   C521    1.313   .     A
C520   H529    0.937   .     S
C521   H533    0.941   .     S
C521   C65     1.475   1_556 S
C522   C673    1.397   .     S
C522   H690    1.152   .     S
C523   C822    1.397   1_545 S
C523   H830    1.152   1_545 S
C524   O549    1.357   .     A
C524   O547    1.381   .     A
Cu527  O550    2.101   .     S
Cu527  N542    2.123   .     S
Cu527  O546    2.091   .     S
Cu527  O543    2.106   .     S
Cu527  O547    2.084   .     S
Cu528  O549    2.101   .     S
Cu528  O545    2.091   .     S
Cu528  N541    2.123   .     S
Cu528  O548    2.084   .     S
Cu528  O544    2.106   .     S
H530   C673    1.152   .     S
H532   N592    1.104   .     S
H540   C822    1.152   1_545 S
N541   H581    1.104   .     S
N541   N592    1.495   .     S
C551   C572    1.522   .     S
C551   O595    1.355   .     A
C551   O593    1.377   .     A
C552   C554    1.565   .     S
C552   O600    1.357   .     A
C552   O598    1.381   .     A
C553   C559    1.434   .     A
C553   C574    1.565   .     S
C553   C557    1.369   .     A
C554   C558    1.369   .     A
C554   C560    1.434   .     A
C555   C564    1.320   .     A
C555   H586    1.208   .     S
C555   C557    1.438   .     A
C556   H587    1.209   .     S
C556   C558    1.439   .     A
C556   C565    1.320   .     A
C557   H585    1.096   .     S
C558   H584    1.096   .     S
C559   C561    1.478   .     A
C559   Cl576   1.920   .     S
C560   Cl575   1.919   .     S
C560   C563    1.478   .     A
C561   C564    1.456   .     A
C561   C566    1.464   .     A
C562   C573    1.522   .     S
C562   O594    1.377   .     A
C562   O596    1.355   .     A
C563   C567    1.462   .     A
C563   C565    1.455   .     A
C564   C120    1.474   1_556 S
C566   C569    1.656   .     A
C566   C117    1.652   1_556 S
C567   C568    1.655   .     A
C568   C570    1.312   .     A
C568   H588    1.226   .     S
C569   H589    1.225   .     S
C569   C571    1.313   .     A
C570   H579    0.937   .     S
C571   H583    0.941   .     S
C571   C115    1.475   1_556 S
C572   C723    1.397   .     S
C572   H740    1.152   .     S
C573   C872    1.397   1_545 S
C573   H880    1.152   1_545 S
C574   O599    1.357   .     A
C574   O597    1.381   .     A
Cu577  O600    2.101   .     S
Cu577  N592    2.123   .     S
Cu577  O596    2.091   .     S
Cu577  O593    2.106   .     S
Cu577  O597    2.084   .     S
Cu578  O599    2.101   .     S
Cu578  O595    2.091   .     S
Cu578  N591    2.123   .     S
Cu578  O598    2.084   .     S
Cu578  O594    2.106   .     S
H580   C723    1.152   .     S
H582   N492    1.104   1_655 S
H590   C872    1.152   1_545 S
N591   H481    1.104   1_655 S
N591   N492    1.495   1_655 S
C601   C622    1.522   .     S
C601   O645    1.355   .     A
C601   O643    1.377   .     A
C602   C604    1.565   .     S
C602   O650    1.357   .     A
C602   O648    1.381   .     A
C603   C609    1.434   .     A
C603   C624    1.565   .     S
C603   C607    1.369   .     A
C604   C608    1.369   .     A
C604   C610    1.434   .     A
C605   C614    1.320   .     A
C605   H636    1.208   .     S
C605   C607    1.438   .     A
C606   H637    1.209   .     S
C606   C608    1.439   .     A
C606   C615    1.320   .     A
C607   H635    1.096   .     S
C608   H634    1.096   .     S
C609   C611    1.478   .     A
C609   Cl626   1.920   .     S
C610   Cl625   1.919   .     S
C610   C613    1.478   .     A
C611   C614    1.456   .     A
C611   C616    1.464   .     A
C612   C623    1.522   .     S
C612   O644    1.377   .     A
C612   O646    1.355   .     A
C613   C617    1.462   .     A
C613   C615    1.455   .     A
C614   C170    1.474   1_556 S
C616   C619    1.656   .     A
C616   C167    1.652   1_556 S
C617   C618    1.655   .     A
C618   C620    1.312   .     A
C618   H638    1.226   .     S
C619   H639    1.225   .     S
C619   C621    1.313   .     A
C620   H629    0.937   .     S
C621   H633    0.941   .     S
C621   C165    1.475   1_556 S
C622   C773    1.397   .     S
C622   H790    1.152   .     S
C624   O649    1.357   .     A
C624   O647    1.381   .     A
Cu627  O650    2.101   .     S
Cu627  N642    2.123   .     S
Cu627  O646    2.091   .     S
Cu627  O643    2.106   .     S
Cu627  O647    2.084   .     S
Cu628  O649    2.101   .     S
Cu628  O645    2.091   .     S
Cu628  N641    2.123   .     S
Cu628  O648    2.084   .     S
Cu628  O644    2.106   .     S
H630   C773    1.152   .     S
H631   N741    1.104   1_455 S
H632   N692    1.104   .     S
N641   H681    1.104   .     S
N641   N692    1.495   .     S
N642   N741    1.495   1_455 S
N642   H732    1.104   1_455 S
C651   C672    1.522   .     S
C651   O695    1.355   .     A
C651   O693    1.377   .     A
C652   C654    1.565   .     S
C652   O700    1.357   .     A
C652   O698    1.381   .     A
C653   C659    1.434   .     A
C653   C674    1.565   .     S
C653   C657    1.369   .     A
C654   C658    1.369   .     A
C654   C660    1.434   .     A
C655   C664    1.320   .     A
C655   H686    1.208   .     S
C655   C657    1.438   .     A
C656   H687    1.209   .     S
C656   C658    1.439   .     A
C656   C665    1.320   .     A
C657   H685    1.096   .     S
C658   H684    1.096   .     S
C659   C661    1.478   .     A
C659   Cl676   1.920   .     S
C660   Cl675   1.919   .     S
C660   C663    1.478   .     A
C661   C664    1.456   .     A
C661   C666    1.464   .     A
C662   C673    1.522   .     S
C662   O694    1.377   .     A
C662   O696    1.355   .     A
C663   C667    1.462   .     A
C663   C665    1.455   .     A
C664   C220    1.474   1_556 S
C666   C669    1.656   .     A
C666   C217    1.652   1_556 S
C667   C668    1.655   .     A
C668   C670    1.312   .     A
C668   H688    1.226   .     S
C669   H689    1.225   .     S
C669   C671    1.313   .     A
C670   H679    0.937   .     S
C671   H683    0.941   .     S
C671   C215    1.475   1_556 S
C672   C823    1.397   .     S
C672   H840    1.152   .     S
C674   O699    1.357   .     A
C674   O697    1.381   .     A
Cu677  O700    2.101   .     S
Cu677  N692    2.123   .     S
Cu677  O696    2.091   .     S
Cu677  O693    2.106   .     S
Cu677  O697    2.084   .     S
Cu678  O699    2.101   .     S
Cu678  O695    2.091   .     S
Cu678  N691    2.123   .     S
Cu678  O698    2.084   .     S
Cu678  O694    2.106   .     S
H680   C823    1.152   .     S
H682   N742    1.104   .     S
N691   H731    1.104   .     S
N691   N742    1.495   .     S
C701   C722    1.522   .     S
C701   O745    1.355   .     A
C701   O743    1.377   .     A
C702   C704    1.565   .     S
C702   O750    1.357   .     A
C702   O748    1.381   .     A
C703   C709    1.434   .     A
C703   C724    1.565   .     S
C703   C707    1.369   .     A
C704   C708    1.369   .     A
C704   C710    1.434   .     A
C705   C714    1.320   .     A
C705   H736    1.208   .     S
C705   C707    1.438   .     A
C706   H737    1.209   .     S
C706   C708    1.439   .     A
C706   C715    1.320   .     A
C707   H735    1.096   .     S
C708   H734    1.096   .     S
C709   C711    1.478   .     A
C709   Cl726   1.920   .     S
C710   Cl725   1.919   .     S
C710   C713    1.478   .     A
C711   C714    1.456   .     A
C711   C716    1.464   .     A
C712   C723    1.522   .     S
C712   O744    1.377   .     A
C712   O746    1.355   .     A
C713   C717    1.462   .     A
C713   C715    1.455   .     A
C714   C270    1.474   1_556 S
C716   C719    1.656   .     A
C716   C267    1.652   1_556 S
C717   C718    1.655   .     A
C718   C720    1.312   .     A
C718   H738    1.226   .     S
C719   H739    1.225   .     S
C719   C721    1.313   .     A
C720   H729    0.937   .     S
C721   H733    0.941   .     S
C721   C265    1.475   1_556 S
C722   C873    1.397   .     S
C722   H890    1.152   .     S
C724   O749    1.357   .     A
C724   O747    1.381   .     A
Cu727  O750    2.101   .     S
Cu727  N742    2.123   .     S
Cu727  O746    2.091   .     S
Cu727  O743    2.106   .     S
Cu727  O747    2.084   .     S
Cu728  O749    2.101   .     S
Cu728  O745    2.091   .     S
Cu728  N741    2.123   .     S
Cu728  O748    2.084   .     S
Cu728  O744    2.106   .     S
H730   C873    1.152   .     S
H732   N642    1.104   1_655 S
N741   H631    1.104   1_655 S
N741   N642    1.495   1_655 S
C751   C772    1.522   .     S
C751   O795    1.355   .     A
C751   O793    1.377   .     A
C752   C754    1.565   .     S
C752   O800    1.357   .     A
C752   O798    1.381   .     A
C753   C759    1.434   .     A
C753   C774    1.565   .     S
C753   C757    1.369   .     A
C754   C758    1.369   .     A
C754   C760    1.434   .     A
C755   C764    1.320   .     A
C755   H786    1.208   .     S
C755   C757    1.438   .     A
C756   H787    1.209   .     S
C756   C758    1.439   .     A
C756   C765    1.320   .     A
C757   H785    1.096   .     S
C758   H784    1.096   .     S
C759   C761    1.478   .     A
C759   Cl776   1.920   .     S
C760   Cl775   1.919   .     S
C760   C763    1.478   .     A
C761   C764    1.456   .     A
C761   C766    1.464   .     A
C762   C773    1.522   .     S
C762   O794    1.377   .     A
C762   O796    1.355   .     A
C763   C767    1.462   .     A
C763   C765    1.455   .     A
C764   C320    1.474   1_556 S
C766   C769    1.656   .     A
C766   C317    1.652   1_556 S
C767   C768    1.655   .     A
C768   C770    1.312   .     A
C768   H788    1.226   .     S
C769   H789    1.225   .     S
C769   C771    1.313   .     A
C770   H779    0.937   .     S
C771   H783    0.941   .     S
C771   C315    1.475   1_556 S
C772   C473    1.397   1_565 S
C772   H490    1.152   1_565 S
C774   O799    1.357   .     A
C774   O797    1.381   .     A
Cu777  O800    2.101   .     S
Cu777  N792    2.123   .     S
Cu777  O796    2.091   .     S
Cu777  O793    2.106   .     S
Cu777  O797    2.084   .     S
Cu778  O799    2.101   .     S
Cu778  O795    2.091   .     S
Cu778  N791    2.123   .     S
Cu778  O798    2.084   .     S
Cu778  O794    2.106   .     S
H780   C473    1.152   1_565 S
H781   N891    1.104   1_455 S
H782   N842    1.104   .     S
N791   H831    1.104   .     S
N791   N842    1.495   .     S
N792   N891    1.495   1_455 S
N792   H882    1.104   1_455 S
C801   C822    1.522   .     S
C801   O845    1.355   .     A
C801   O843    1.377   .     A
C802   C804    1.565   .     S
C802   O850    1.357   .     A
C802   O848    1.381   .     A
C803   C809    1.434   .     A
C803   C824    1.565   .     S
C803   C807    1.369   .     A
C804   C808    1.369   .     A
C804   C810    1.434   .     A
C805   C814    1.320   .     A
C805   H836    1.208   .     S
C805   C807    1.438   .     A
C806   H837    1.209   .     S
C806   C808    1.439   .     A
C806   C815    1.320   .     A
C807   H835    1.096   .     S
C808   H834    1.096   .     S
C809   C811    1.478   .     A
C809   Cl826   1.920   .     S
C810   Cl825   1.919   .     S
C810   C813    1.478   .     A
C811   C814    1.456   .     A
C811   C816    1.464   .     A
C812   C823    1.522   .     S
C812   O844    1.377   .     A
C812   O846    1.355   .     A
C813   C817    1.462   .     A
C813   C815    1.455   .     A
C814   C370    1.474   1_556 S
C816   C819    1.656   .     A
C816   C367    1.652   1_556 S
C817   C818    1.655   .     A
C818   C820    1.312   .     A
C818   H838    1.226   .     S
C819   H839    1.225   .     S
C819   C821    1.313   .     A
C820   H829    0.937   .     S
C821   H833    0.941   .     S
C821   C365    1.475   1_556 S
C822   C523    1.397   1_565 S
C822   H540    1.152   1_565 S
C824   O849    1.357   .     A
C824   O847    1.381   .     A
Cu827  O850    2.101   .     S
Cu827  N842    2.123   .     S
Cu827  O846    2.091   .     S
Cu827  O843    2.106   .     S
Cu827  O847    2.084   .     S
Cu828  O849    2.101   .     S
Cu828  O845    2.091   .     S
Cu828  N841    2.123   .     S
Cu828  O848    2.084   .     S
Cu828  O844    2.106   .     S
H830   C523    1.152   1_565 S
H832   N892    1.104   .     S
N841   H881    1.104   .     S
N841   N892    1.495   .     S
C851   C872    1.522   .     S
C851   O895    1.355   .     A
C851   O893    1.377   .     A
C852   C854    1.565   .     S
C852   O900    1.357   .     A
C852   O898    1.381   .     A
C853   C859    1.434   .     A
C853   C874    1.565   .     S
C853   C857    1.369   .     A
C854   C858    1.369   .     A
C854   C860    1.434   .     A
C855   C864    1.320   .     A
C855   H886    1.208   .     S
C855   C857    1.438   .     A
C856   H887    1.209   .     S
C856   C858    1.439   .     A
C856   C865    1.320   .     A
C857   H885    1.096   .     S
C858   H884    1.096   .     S
C859   C861    1.478   .     A
C859   Cl876   1.920   .     S
C860   Cl875   1.919   .     S
C860   C863    1.478   .     A
C861   C864    1.456   .     A
C861   C866    1.464   .     A
C862   C873    1.522   .     S
C862   O894    1.377   .     A
C862   O896    1.355   .     A
C863   C867    1.462   .     A
C863   C865    1.455   .     A
C864   C420    1.474   1_556 S
C866   C869    1.656   .     A
C866   C417    1.652   1_556 S
C867   C868    1.655   .     A
C868   C870    1.312   .     A
C868   H888    1.226   .     S
C869   H889    1.225   .     S
C869   C871    1.313   .     A
C870   H879    0.937   .     S
C871   H883    0.941   .     S
C871   C415    1.475   1_556 S
C872   C573    1.397   1_565 S
C872   H590    1.152   1_565 S
C874   O899    1.357   .     A
C874   O897    1.381   .     A
Cu877  O900    2.101   .     S
Cu877  N892    2.123   .     S
Cu877  O896    2.091   .     S
Cu877  O893    2.106   .     S
Cu877  O897    2.084   .     S
Cu878  O899    2.101   .     S
Cu878  O895    2.091   .     S
Cu878  N891    2.123   .     S
Cu878  O898    2.084   .     S
Cu878  O894    2.106   .     S
H880   C573    1.152   1_565 S
H882   N792    1.104   1_655 S
N891   H781    1.104   1_655 S
N891   N792    1.495   1_655 S
