data_str_m2_o1_o10_pcu_sym.24
_audit_creation_date              2020-01-03
_audit_creation_method            'Materials Studio'
_symmetry_space_group_name_H-M    'P1'
_symmetry_Int_Tables_number       1
_symmetry_cell_setting            triclinic
loop_
_symmetry_equiv_pos_as_xyz
  x,y,z
_cell_length_a                    26.1564
_cell_length_b                    32.4773
_cell_length_c                    28.7888
_cell_angle_alpha                 90.5531
_cell_angle_beta                  99.0080
_cell_angle_gamma                 91.4095
loop_
_atom_site_label
_atom_site_type_symbol
_atom_site_fract_x
_atom_site_fract_y
_atom_site_fract_z
_atom_site_U_iso_or_equiv
_atom_site_adp_type
_atom_site_occupancy
C1     C     0.16659   0.08743   0.16651   0.00000  Uiso   1.00
C2     C     0.17234   0.02181   0.20930   0.00000  Uiso   1.00
C3     C     0.16671   0.29056   0.16684   0.00000  Uiso   1.00
C4     C     0.16663   0.04278   0.16650   0.00000  Uiso   1.00
C5     C     0.12860   0.14512   0.01816   0.00000  Uiso   1.00
C6     C     0.20474   0.18821   0.31517   0.00000  Uiso   1.00
C7     C     0.12918   0.14595   0.30214   0.00000  Uiso   1.00
C8     C     0.20415   0.18738   0.03119   0.00000  Uiso   1.00
C9     C     0.08336   0.12241   0.03501   0.00000  Uiso   1.00
C10    C     0.05751   0.08690   0.00313   0.00000  Uiso   1.00
C11    C     0.02034   0.06139   0.02800   0.00000  Uiso   1.00
C12    C     0.16675   0.24590   0.16682   0.00000  Uiso   1.00
C13    C     0.24997   0.21093   0.29832   0.00000  Uiso   1.00
C14    C     0.27583   0.24643   0.33021   0.00000  Uiso   1.00
C15    C     0.31301   0.27193   0.30534   0.00000  Uiso   1.00
C16    C     0.06788   0.16660   0.15440   0.00000  Uiso   1.00
C17    C     0.26545   0.16674   0.17894   0.00000  Uiso   1.00
C18    C     0.01229   0.16659   0.14786   0.00000  Uiso   1.00
C19    C     0.32104   0.16675   0.18547   0.00000  Uiso   1.00
C20    C     0.16093   0.02079   0.12386   0.00000  Uiso   1.00
C21    C     0.17240   0.31254   0.20947   0.00000  Uiso   1.00
C22    C     0.16100   0.31152   0.12403   0.00000  Uiso   1.00
Cu23   Cu    0.16667   0.16667   0.21355   0.00000  Uiso   1.00
Cu24   Cu    0.16667   0.16666   0.11978   0.00000  Uiso   1.00
H25    H     0.32493   0.16645   0.11203   0.00000  Uiso   1.00
H26    H     0.32426   0.08142   0.03988   0.00000  Uiso   1.00
H27    H     0.00004   0.03770   0.00329   0.00000  Uiso   1.00
H28    H     0.03452   0.09945   0.30420   0.00000  Uiso   1.00
H29    H     0.08751   0.06638   0.32639   0.00000  Uiso   1.00
H30    H     0.09667   0.10838   0.06908   0.00000  Uiso   1.00
H31    H     0.05315   0.14509   0.03890   0.00000  Uiso   1.00
H32    H     0.00909   0.25189   0.29346   0.00000  Uiso   1.00
H33    H     0.29142   0.28764   0.27448   0.00000  Uiso   1.00
H34    H     0.33332   0.29561   0.33005   0.00000  Uiso   1.00
H35    H     0.24585   0.26695   0.00695   0.00000  Uiso   1.00
H36    H     0.00841   0.16688   0.22130   0.00000  Uiso   1.00
H37    H     0.29883   0.23386   0.02913   0.00000  Uiso   1.00
H38    H     0.28018   0.18824   0.29443   0.00000  Uiso   1.00
H39    H     0.23666   0.22496   0.26426   0.00000  Uiso   1.00
H40    H     0.15621   0.03641   0.09043   0.00000  Uiso   1.00
H41    H     0.17712   0.29693   0.24290   0.00000  Uiso   1.00
H42    H     0.15638   0.29510   0.09064   0.00000  Uiso   1.00
H43    H     0.17695   0.03824   0.24269   0.00000  Uiso   1.00
H44    H     0.09969   0.13018   0.27758   0.00000  Uiso   1.00
H45    H     0.23364   0.20316   0.05575   0.00000  Uiso   1.00
H46    H     0.04194   0.04568   0.05886   0.00000  Uiso   1.00
N47    N     0.16668   0.16668   0.28403   0.00000  Uiso   1.00
N48    N     0.16665   0.16666   0.04931   0.00000  Uiso   1.00
O49    O     0.16666   0.10655   0.20625   0.00000  Uiso   1.00
O50    O     0.16667   0.22678   0.12709   0.00000  Uiso   1.00
O51    O     0.16666   0.10654   0.12706   0.00000  Uiso   1.00
O52    O     0.16667   0.22679   0.20628   0.00000  Uiso   1.00
O53    O     0.09161   0.16667   0.19712   0.00000  Uiso   1.00
O54    O     0.24172   0.16666   0.13621   0.00000  Uiso   1.00
O55    O     0.09161   0.16666   0.11793   0.00000  Uiso   1.00
O56    O     0.24172   0.16667   0.21540   0.00000  Uiso   1.00
C57    C     0.49992   0.08743   0.16651   0.00000  Uiso   1.00
C58    C     0.50567   0.02181   0.20930   0.00000  Uiso   1.00
C59    C     0.50004   0.29056   0.16684   0.00000  Uiso   1.00
C60    C     0.49996   0.04278   0.16650   0.00000  Uiso   1.00
C61    C     0.46193   0.14512   0.01816   0.00000  Uiso   1.00
C62    C     0.53807   0.18821   0.31517   0.00000  Uiso   1.00
C63    C     0.46252   0.14595   0.30214   0.00000  Uiso   1.00
C64    C     0.53748   0.18738   0.03119   0.00000  Uiso   1.00
C65    C     0.41669   0.12241   0.03501   0.00000  Uiso   1.00
C66    C     0.39085   0.08690   0.00313   0.00000  Uiso   1.00
C67    C     0.35368   0.06139   0.02800   0.00000  Uiso   1.00
C68    C     0.50008   0.24590   0.16682   0.00000  Uiso   1.00
C69    C     0.58331   0.21093   0.29832   0.00000  Uiso   1.00
C70    C     0.60917   0.24643   0.33021   0.00000  Uiso   1.00
C71    C     0.64634   0.27193   0.30534   0.00000  Uiso   1.00
C72    C     0.40121   0.16660   0.15440   0.00000  Uiso   1.00
C73    C     0.59878   0.16674   0.17894   0.00000  Uiso   1.00
C74    C     0.34563   0.16659   0.14786   0.00000  Uiso   1.00
C75    C     0.65437   0.16675   0.18547   0.00000  Uiso   1.00
C76    C     0.49426   0.02079   0.12386   0.00000  Uiso   1.00
C77    C     0.50574   0.31254   0.20947   0.00000  Uiso   1.00
C78    C     0.49433   0.31152   0.12403   0.00000  Uiso   1.00
Cu79   Cu    0.50000   0.16667   0.21355   0.00000  Uiso   1.00
Cu80   Cu    0.50000   0.16666   0.11978   0.00000  Uiso   1.00
H81    H     0.65826   0.16645   0.11203   0.00000  Uiso   1.00
H82    H     0.65759   0.08142   0.03988   0.00000  Uiso   1.00
H83    H     0.33337   0.03770   0.00329   0.00000  Uiso   1.00
H84    H     0.36785   0.09945   0.30420   0.00000  Uiso   1.00
H85    H     0.42084   0.06638   0.32639   0.00000  Uiso   1.00
H86    H     0.43000   0.10838   0.06908   0.00000  Uiso   1.00
H87    H     0.38648   0.14509   0.03890   0.00000  Uiso   1.00
H88    H     0.34242   0.25189   0.29346   0.00000  Uiso   1.00
H89    H     0.62475   0.28764   0.27448   0.00000  Uiso   1.00
H90    H     0.66666   0.29561   0.33005   0.00000  Uiso   1.00
H91    H     0.57918   0.26695   0.00695   0.00000  Uiso   1.00
H92    H     0.34174   0.16688   0.22130   0.00000  Uiso   1.00
H93    H     0.63216   0.23386   0.02913   0.00000  Uiso   1.00
H94    H     0.61351   0.18824   0.29443   0.00000  Uiso   1.00
H95    H     0.56999   0.22496   0.26426   0.00000  Uiso   1.00
H96    H     0.48954   0.03641   0.09043   0.00000  Uiso   1.00
H97    H     0.51046   0.29693   0.24290   0.00000  Uiso   1.00
H98    H     0.48971   0.29510   0.09064   0.00000  Uiso   1.00
H99    H     0.51029   0.03824   0.24269   0.00000  Uiso   1.00
H100   H     0.43303   0.13018   0.27758   0.00000  Uiso   1.00
H101   H     0.56697   0.20316   0.05575   0.00000  Uiso   1.00
H102   H     0.37527   0.04568   0.05886   0.00000  Uiso   1.00
N103   N     0.50001   0.16668   0.28403   0.00000  Uiso   1.00
N104   N     0.49999   0.16666   0.04931   0.00000  Uiso   1.00
O105   O     0.50000   0.10655   0.20625   0.00000  Uiso   1.00
O106   O     0.50000   0.22678   0.12709   0.00000  Uiso   1.00
O107   O     0.50000   0.10654   0.12706   0.00000  Uiso   1.00
O108   O     0.50000   0.22679   0.20628   0.00000  Uiso   1.00
O109   O     0.42495   0.16667   0.19712   0.00000  Uiso   1.00
O110   O     0.57505   0.16666   0.13621   0.00000  Uiso   1.00
O111   O     0.42494   0.16666   0.11793   0.00000  Uiso   1.00
O112   O     0.57506   0.16667   0.21540   0.00000  Uiso   1.00
C113   C     0.83325   0.08743   0.16651   0.00000  Uiso   1.00
C114   C     0.83900   0.02181   0.20930   0.00000  Uiso   1.00
C115   C     0.83337   0.29056   0.16684   0.00000  Uiso   1.00
C116   C     0.83329   0.04278   0.16650   0.00000  Uiso   1.00
C117   C     0.79527   0.14512   0.01816   0.00000  Uiso   1.00
C118   C     0.87140   0.18821   0.31517   0.00000  Uiso   1.00
C119   C     0.79585   0.14595   0.30214   0.00000  Uiso   1.00
C120   C     0.87082   0.18738   0.03119   0.00000  Uiso   1.00
C121   C     0.75003   0.12241   0.03501   0.00000  Uiso   1.00
C122   C     0.72418   0.08690   0.00313   0.00000  Uiso   1.00
C123   C     0.68701   0.06139   0.02800   0.00000  Uiso   1.00
C124   C     0.83341   0.24590   0.16682   0.00000  Uiso   1.00
C125   C     0.91664   0.21093   0.29832   0.00000  Uiso   1.00
C126   C     0.94250   0.24643   0.33021   0.00000  Uiso   1.00
C127   C     0.97968   0.27193   0.30534   0.00000  Uiso   1.00
C128   C     0.73455   0.16660   0.15440   0.00000  Uiso   1.00
C129   C     0.93212   0.16674   0.17894   0.00000  Uiso   1.00
C130   C     0.67896   0.16659   0.14786   0.00000  Uiso   1.00
C131   C     0.98771   0.16675   0.18547   0.00000  Uiso   1.00
C132   C     0.82760   0.02079   0.12386   0.00000  Uiso   1.00
C133   C     0.83907   0.31254   0.20947   0.00000  Uiso   1.00
C134   C     0.82766   0.31152   0.12403   0.00000  Uiso   1.00
Cu135  Cu    0.83333   0.16667   0.21355   0.00000  Uiso   1.00
Cu136  Cu    0.83333   0.16666   0.11978   0.00000  Uiso   1.00
H137   H     0.99159   0.16645   0.11203   0.00000  Uiso   1.00
H138   H     0.99093   0.08142   0.03988   0.00000  Uiso   1.00
H139   H     0.66670   0.03770   0.00329   0.00000  Uiso   1.00
H140   H     0.70118   0.09945   0.30420   0.00000  Uiso   1.00
H141   H     0.75417   0.06638   0.32639   0.00000  Uiso   1.00
H142   H     0.76334   0.10838   0.06908   0.00000  Uiso   1.00
H143   H     0.71982   0.14509   0.03890   0.00000  Uiso   1.00
H144   H     0.67575   0.25189   0.29346   0.00000  Uiso   1.00
H145   H     0.95808   0.28764   0.27448   0.00000  Uiso   1.00
H146   H     0.99999   0.29561   0.33005   0.00000  Uiso   1.00
H147   H     0.91251   0.26695   0.00695   0.00000  Uiso   1.00
H148   H     0.67507   0.16688   0.22130   0.00000  Uiso   1.00
H149   H     0.96549   0.23386   0.02913   0.00000  Uiso   1.00
H150   H     0.94685   0.18824   0.29443   0.00000  Uiso   1.00
H151   H     0.90333   0.22496   0.26426   0.00000  Uiso   1.00
H152   H     0.82288   0.03641   0.09043   0.00000  Uiso   1.00
H153   H     0.84379   0.29693   0.24290   0.00000  Uiso   1.00
H154   H     0.82305   0.29510   0.09064   0.00000  Uiso   1.00
H155   H     0.84362   0.03824   0.24269   0.00000  Uiso   1.00
H156   H     0.76636   0.13018   0.27758   0.00000  Uiso   1.00
H157   H     0.90030   0.20316   0.05575   0.00000  Uiso   1.00
H158   H     0.70861   0.04568   0.05886   0.00000  Uiso   1.00
N159   N     0.83335   0.16668   0.28403   0.00000  Uiso   1.00
N160   N     0.83332   0.16666   0.04931   0.00000  Uiso   1.00
O161   O     0.83333   0.10655   0.20625   0.00000  Uiso   1.00
O162   O     0.83334   0.22678   0.12709   0.00000  Uiso   1.00
O163   O     0.83333   0.10654   0.12706   0.00000  Uiso   1.00
O164   O     0.83334   0.22679   0.20628   0.00000  Uiso   1.00
O165   O     0.75828   0.16667   0.19712   0.00000  Uiso   1.00
O166   O     0.90839   0.16666   0.13621   0.00000  Uiso   1.00
O167   O     0.75828   0.16666   0.11793   0.00000  Uiso   1.00
O168   O     0.90839   0.16667   0.21540   0.00000  Uiso   1.00
C169   C     0.16659   0.42077   0.16651   0.00000  Uiso   1.00
C170   C     0.17234   0.35514   0.20930   0.00000  Uiso   1.00
C171   C     0.16671   0.62389   0.16684   0.00000  Uiso   1.00
C172   C     0.16663   0.37611   0.16650   0.00000  Uiso   1.00
C173   C     0.12860   0.47846   0.01816   0.00000  Uiso   1.00
C174   C     0.20474   0.52154   0.31517   0.00000  Uiso   1.00
C175   C     0.12918   0.47928   0.30214   0.00000  Uiso   1.00
C176   C     0.20415   0.52072   0.03119   0.00000  Uiso   1.00
C177   C     0.08336   0.45574   0.03501   0.00000  Uiso   1.00
C178   C     0.05751   0.42023   0.00313   0.00000  Uiso   1.00
C179   C     0.02034   0.39473   0.02800   0.00000  Uiso   1.00
C180   C     0.16675   0.57923   0.16682   0.00000  Uiso   1.00
C181   C     0.24997   0.54426   0.29832   0.00000  Uiso   1.00
C182   C     0.27583   0.57976   0.33021   0.00000  Uiso   1.00
C183   C     0.31301   0.60526   0.30534   0.00000  Uiso   1.00
C184   C     0.06788   0.49993   0.15440   0.00000  Uiso   1.00
C185   C     0.26545   0.50007   0.17894   0.00000  Uiso   1.00
C186   C     0.01229   0.49992   0.14786   0.00000  Uiso   1.00
C187   C     0.32104   0.50008   0.18547   0.00000  Uiso   1.00
C188   C     0.16093   0.35413   0.12386   0.00000  Uiso   1.00
C189   C     0.17240   0.64587   0.20947   0.00000  Uiso   1.00
C190   C     0.16100   0.64486   0.12403   0.00000  Uiso   1.00
Cu191  Cu    0.16667   0.50001   0.21355   0.00000  Uiso   1.00
Cu192  Cu    0.16667   0.49999   0.11978   0.00000  Uiso   1.00
H193   H     0.32493   0.49979   0.11203   0.00000  Uiso   1.00
H194   H     0.32426   0.41476   0.03988   0.00000  Uiso   1.00
H195   H     0.00004   0.37104   0.00329   0.00000  Uiso   1.00
H196   H     0.03452   0.43279   0.30420   0.00000  Uiso   1.00
H197   H     0.08751   0.39971   0.32639   0.00000  Uiso   1.00
H198   H     0.09667   0.44171   0.06908   0.00000  Uiso   1.00
H199   H     0.05315   0.47842   0.03890   0.00000  Uiso   1.00
H200   H     0.00909   0.58522   0.29346   0.00000  Uiso   1.00
H201   H     0.29142   0.62097   0.27448   0.00000  Uiso   1.00
H202   H     0.33332   0.62895   0.33005   0.00000  Uiso   1.00
H203   H     0.24585   0.60029   0.00695   0.00000  Uiso   1.00
H204   H     0.00841   0.50021   0.22130   0.00000  Uiso   1.00
H205   H     0.29883   0.56720   0.02913   0.00000  Uiso   1.00
H206   H     0.28018   0.52157   0.29443   0.00000  Uiso   1.00
H207   H     0.23666   0.55829   0.26426   0.00000  Uiso   1.00
H208   H     0.15621   0.36974   0.09043   0.00000  Uiso   1.00
H209   H     0.17712   0.63026   0.24290   0.00000  Uiso   1.00
H210   H     0.15638   0.62843   0.09064   0.00000  Uiso   1.00
H211   H     0.17695   0.37157   0.24269   0.00000  Uiso   1.00
H212   H     0.09969   0.46351   0.27758   0.00000  Uiso   1.00
H213   H     0.23364   0.53649   0.05575   0.00000  Uiso   1.00
H214   H     0.04194   0.37902   0.05886   0.00000  Uiso   1.00
N215   N     0.16668   0.50001   0.28403   0.00000  Uiso   1.00
N216   N     0.16665   0.49999   0.04931   0.00000  Uiso   1.00
O217   O     0.16666   0.43989   0.20625   0.00000  Uiso   1.00
O218   O     0.16667   0.56011   0.12709   0.00000  Uiso   1.00
O219   O     0.16666   0.43988   0.12706   0.00000  Uiso   1.00
O220   O     0.16667   0.56012   0.20628   0.00000  Uiso   1.00
O221   O     0.09161   0.50000   0.19712   0.00000  Uiso   1.00
O222   O     0.24172   0.50000   0.13621   0.00000  Uiso   1.00
O223   O     0.09161   0.49999   0.11793   0.00000  Uiso   1.00
O224   O     0.24172   0.50001   0.21540   0.00000  Uiso   1.00
C225   C     0.49992   0.42077   0.16651   0.00000  Uiso   1.00
C226   C     0.50567   0.35514   0.20930   0.00000  Uiso   1.00
C227   C     0.50004   0.62389   0.16684   0.00000  Uiso   1.00
C228   C     0.49996   0.37611   0.16650   0.00000  Uiso   1.00
C229   C     0.46193   0.47846   0.01816   0.00000  Uiso   1.00
C230   C     0.53807   0.52154   0.31517   0.00000  Uiso   1.00
C231   C     0.46252   0.47928   0.30214   0.00000  Uiso   1.00
C232   C     0.53748   0.52072   0.03119   0.00000  Uiso   1.00
C233   C     0.41669   0.45574   0.03501   0.00000  Uiso   1.00
C234   C     0.39085   0.42023   0.00313   0.00000  Uiso   1.00
C235   C     0.35368   0.39473   0.02800   0.00000  Uiso   1.00
C236   C     0.50008   0.57923   0.16682   0.00000  Uiso   1.00
C237   C     0.58331   0.54426   0.29832   0.00000  Uiso   1.00
C238   C     0.60917   0.57976   0.33021   0.00000  Uiso   1.00
C239   C     0.64634   0.60526   0.30534   0.00000  Uiso   1.00
C240   C     0.40121   0.49993   0.15440   0.00000  Uiso   1.00
C241   C     0.59878   0.50007   0.17894   0.00000  Uiso   1.00
C242   C     0.34563   0.49992   0.14786   0.00000  Uiso   1.00
C243   C     0.65437   0.50008   0.18547   0.00000  Uiso   1.00
C244   C     0.49426   0.35413   0.12386   0.00000  Uiso   1.00
C245   C     0.50574   0.64587   0.20947   0.00000  Uiso   1.00
C246   C     0.49433   0.64486   0.12403   0.00000  Uiso   1.00
Cu247  Cu    0.50000   0.50001   0.21355   0.00000  Uiso   1.00
Cu248  Cu    0.50000   0.49999   0.11978   0.00000  Uiso   1.00
H249   H     0.65826   0.49979   0.11203   0.00000  Uiso   1.00
H250   H     0.65759   0.41476   0.03988   0.00000  Uiso   1.00
H251   H     0.33337   0.37104   0.00329   0.00000  Uiso   1.00
H252   H     0.36785   0.43279   0.30420   0.00000  Uiso   1.00
H253   H     0.42084   0.39971   0.32639   0.00000  Uiso   1.00
H254   H     0.43000   0.44171   0.06908   0.00000  Uiso   1.00
H255   H     0.38648   0.47842   0.03890   0.00000  Uiso   1.00
H256   H     0.34242   0.58522   0.29346   0.00000  Uiso   1.00
H257   H     0.62475   0.62097   0.27448   0.00000  Uiso   1.00
H258   H     0.66666   0.62895   0.33005   0.00000  Uiso   1.00
H259   H     0.57918   0.60029   0.00695   0.00000  Uiso   1.00
H260   H     0.34174   0.50021   0.22130   0.00000  Uiso   1.00
H261   H     0.63216   0.56720   0.02913   0.00000  Uiso   1.00
H262   H     0.61351   0.52157   0.29443   0.00000  Uiso   1.00
H263   H     0.56999   0.55829   0.26426   0.00000  Uiso   1.00
H264   H     0.48954   0.36974   0.09043   0.00000  Uiso   1.00
H265   H     0.51046   0.63026   0.24290   0.00000  Uiso   1.00
H266   H     0.48971   0.62843   0.09064   0.00000  Uiso   1.00
H267   H     0.51029   0.37157   0.24269   0.00000  Uiso   1.00
H268   H     0.43303   0.46351   0.27758   0.00000  Uiso   1.00
H269   H     0.56697   0.53649   0.05575   0.00000  Uiso   1.00
H270   H     0.37527   0.37902   0.05886   0.00000  Uiso   1.00
N271   N     0.50001   0.50001   0.28403   0.00000  Uiso   1.00
N272   N     0.49999   0.49999   0.04931   0.00000  Uiso   1.00
O273   O     0.50000   0.43989   0.20625   0.00000  Uiso   1.00
O274   O     0.50000   0.56011   0.12709   0.00000  Uiso   1.00
O275   O     0.50000   0.43988   0.12706   0.00000  Uiso   1.00
O276   O     0.50000   0.56012   0.20628   0.00000  Uiso   1.00
O277   O     0.42495   0.50000   0.19712   0.00000  Uiso   1.00
O278   O     0.57505   0.50000   0.13621   0.00000  Uiso   1.00
O279   O     0.42494   0.49999   0.11793   0.00000  Uiso   1.00
O280   O     0.57506   0.50001   0.21540   0.00000  Uiso   1.00
C281   C     0.83325   0.42077   0.16651   0.00000  Uiso   1.00
C282   C     0.83900   0.35514   0.20930   0.00000  Uiso   1.00
C283   C     0.83337   0.62389   0.16684   0.00000  Uiso   1.00
C284   C     0.83329   0.37611   0.16650   0.00000  Uiso   1.00
C285   C     0.79527   0.47846   0.01816   0.00000  Uiso   1.00
C286   C     0.87140   0.52154   0.31517   0.00000  Uiso   1.00
C287   C     0.79585   0.47928   0.30214   0.00000  Uiso   1.00
C288   C     0.87082   0.52072   0.03119   0.00000  Uiso   1.00
C289   C     0.75003   0.45574   0.03501   0.00000  Uiso   1.00
C290   C     0.72418   0.42023   0.00313   0.00000  Uiso   1.00
C291   C     0.68701   0.39473   0.02800   0.00000  Uiso   1.00
C292   C     0.83341   0.57923   0.16682   0.00000  Uiso   1.00
C293   C     0.91664   0.54426   0.29832   0.00000  Uiso   1.00
C294   C     0.94250   0.57976   0.33021   0.00000  Uiso   1.00
C295   C     0.97968   0.60526   0.30534   0.00000  Uiso   1.00
C296   C     0.73455   0.49993   0.15440   0.00000  Uiso   1.00
C297   C     0.93212   0.50007   0.17894   0.00000  Uiso   1.00
C298   C     0.67896   0.49992   0.14786   0.00000  Uiso   1.00
C299   C     0.98771   0.50008   0.18547   0.00000  Uiso   1.00
C300   C     0.82760   0.35413   0.12386   0.00000  Uiso   1.00
C301   C     0.83907   0.64587   0.20947   0.00000  Uiso   1.00
C302   C     0.82766   0.64486   0.12403   0.00000  Uiso   1.00
Cu303  Cu    0.83333   0.50001   0.21355   0.00000  Uiso   1.00
Cu304  Cu    0.83333   0.49999   0.11978   0.00000  Uiso   1.00
H305   H     0.99159   0.49979   0.11203   0.00000  Uiso   1.00
H306   H     0.99093   0.41476   0.03988   0.00000  Uiso   1.00
H307   H     0.66670   0.37104   0.00329   0.00000  Uiso   1.00
H308   H     0.70118   0.43279   0.30420   0.00000  Uiso   1.00
H309   H     0.75417   0.39971   0.32639   0.00000  Uiso   1.00
H310   H     0.76334   0.44171   0.06908   0.00000  Uiso   1.00
H311   H     0.71982   0.47842   0.03890   0.00000  Uiso   1.00
H312   H     0.67575   0.58522   0.29346   0.00000  Uiso   1.00
H313   H     0.95808   0.62097   0.27448   0.00000  Uiso   1.00
H314   H     0.99999   0.62895   0.33005   0.00000  Uiso   1.00
H315   H     0.91251   0.60029   0.00695   0.00000  Uiso   1.00
H316   H     0.67507   0.50021   0.22130   0.00000  Uiso   1.00
H317   H     0.96549   0.56720   0.02913   0.00000  Uiso   1.00
H318   H     0.94685   0.52157   0.29443   0.00000  Uiso   1.00
H319   H     0.90333   0.55829   0.26426   0.00000  Uiso   1.00
H320   H     0.82288   0.36974   0.09043   0.00000  Uiso   1.00
H321   H     0.84379   0.63026   0.24290   0.00000  Uiso   1.00
H322   H     0.82305   0.62843   0.09064   0.00000  Uiso   1.00
H323   H     0.84362   0.37157   0.24269   0.00000  Uiso   1.00
H324   H     0.76636   0.46351   0.27758   0.00000  Uiso   1.00
H325   H     0.90030   0.53649   0.05575   0.00000  Uiso   1.00
H326   H     0.70861   0.37902   0.05886   0.00000  Uiso   1.00
N327   N     0.83335   0.50001   0.28403   0.00000  Uiso   1.00
N328   N     0.83332   0.49999   0.04931   0.00000  Uiso   1.00
O329   O     0.83333   0.43989   0.20625   0.00000  Uiso   1.00
O330   O     0.83334   0.56011   0.12709   0.00000  Uiso   1.00
O331   O     0.83333   0.43988   0.12706   0.00000  Uiso   1.00
O332   O     0.83334   0.56012   0.20628   0.00000  Uiso   1.00
O333   O     0.75828   0.50000   0.19712   0.00000  Uiso   1.00
O334   O     0.90839   0.50000   0.13621   0.00000  Uiso   1.00
O335   O     0.75828   0.49999   0.11793   0.00000  Uiso   1.00
O336   O     0.90839   0.50001   0.21540   0.00000  Uiso   1.00
C337   C     0.16659   0.75410   0.16651   0.00000  Uiso   1.00
C338   C     0.17234   0.68848   0.20930   0.00000  Uiso   1.00
C339   C     0.16671   0.95722   0.16684   0.00000  Uiso   1.00
C340   C     0.16663   0.70944   0.16650   0.00000  Uiso   1.00
C341   C     0.12860   0.81179   0.01816   0.00000  Uiso   1.00
C342   C     0.20474   0.85488   0.31517   0.00000  Uiso   1.00
C343   C     0.12918   0.81262   0.30214   0.00000  Uiso   1.00
C344   C     0.20415   0.85405   0.03119   0.00000  Uiso   1.00
C345   C     0.08336   0.78907   0.03501   0.00000  Uiso   1.00
C346   C     0.05751   0.75356   0.00313   0.00000  Uiso   1.00
C347   C     0.02034   0.72806   0.02800   0.00000  Uiso   1.00
C348   C     0.16675   0.91257   0.16682   0.00000  Uiso   1.00
C349   C     0.24997   0.87759   0.29832   0.00000  Uiso   1.00
C350   C     0.27583   0.91309   0.33021   0.00000  Uiso   1.00
C351   C     0.31301   0.93859   0.30534   0.00000  Uiso   1.00
C352   C     0.06788   0.83326   0.15440   0.00000  Uiso   1.00
C353   C     0.26545   0.83340   0.17894   0.00000  Uiso   1.00
C354   C     0.01229   0.83325   0.14786   0.00000  Uiso   1.00
C355   C     0.32104   0.83341   0.18547   0.00000  Uiso   1.00
C356   C     0.16093   0.68746   0.12386   0.00000  Uiso   1.00
C357   C     0.17240   0.97921   0.20947   0.00000  Uiso   1.00
C358   C     0.16100   0.97819   0.12403   0.00000  Uiso   1.00
Cu359  Cu    0.16667   0.83334   0.21355   0.00000  Uiso   1.00
Cu360  Cu    0.16667   0.83333   0.11978   0.00000  Uiso   1.00
H361   H     0.32493   0.83312   0.11203   0.00000  Uiso   1.00
H362   H     0.32426   0.74809   0.03988   0.00000  Uiso   1.00
H363   H     0.00004   0.70437   0.00329   0.00000  Uiso   1.00
H364   H     0.03452   0.76612   0.30420   0.00000  Uiso   1.00
H365   H     0.08751   0.73304   0.32639   0.00000  Uiso   1.00
H366   H     0.09667   0.77505   0.06908   0.00000  Uiso   1.00
H367   H     0.05315   0.81175   0.03890   0.00000  Uiso   1.00
H368   H     0.00909   0.91856   0.29346   0.00000  Uiso   1.00
H369   H     0.29142   0.95430   0.27448   0.00000  Uiso   1.00
H370   H     0.33332   0.96228   0.33005   0.00000  Uiso   1.00
H371   H     0.24585   0.93362   0.00695   0.00000  Uiso   1.00
H372   H     0.00841   0.83355   0.22130   0.00000  Uiso   1.00
H373   H     0.29883   0.90053   0.02913   0.00000  Uiso   1.00
H374   H     0.28018   0.85491   0.29443   0.00000  Uiso   1.00
H375   H     0.23666   0.89162   0.26426   0.00000  Uiso   1.00
H376   H     0.15621   0.70307   0.09043   0.00000  Uiso   1.00
H377   H     0.17712   0.96359   0.24290   0.00000  Uiso   1.00
H378   H     0.15638   0.96176   0.09064   0.00000  Uiso   1.00
H379   H     0.17695   0.70490   0.24269   0.00000  Uiso   1.00
H380   H     0.09969   0.79684   0.27758   0.00000  Uiso   1.00
H381   H     0.23364   0.86983   0.05575   0.00000  Uiso   1.00
H382   H     0.04194   0.71235   0.05886   0.00000  Uiso   1.00
N383   N     0.16668   0.83334   0.28403   0.00000  Uiso   1.00
N384   N     0.16665   0.83332   0.04931   0.00000  Uiso   1.00
O385   O     0.16666   0.77322   0.20625   0.00000  Uiso   1.00
O386   O     0.16667   0.89345   0.12709   0.00000  Uiso   1.00
O387   O     0.16666   0.77321   0.12706   0.00000  Uiso   1.00
O388   O     0.16667   0.89346   0.20628   0.00000  Uiso   1.00
O389   O     0.09161   0.83334   0.19712   0.00000  Uiso   1.00
O390   O     0.24172   0.83333   0.13621   0.00000  Uiso   1.00
O391   O     0.09161   0.83333   0.11793   0.00000  Uiso   1.00
O392   O     0.24172   0.83334   0.21540   0.00000  Uiso   1.00
C393   C     0.49992   0.75410   0.16651   0.00000  Uiso   1.00
C394   C     0.50567   0.68848   0.20930   0.00000  Uiso   1.00
C395   C     0.50004   0.95722   0.16684   0.00000  Uiso   1.00
C396   C     0.49996   0.70944   0.16650   0.00000  Uiso   1.00
C397   C     0.46193   0.81179   0.01816   0.00000  Uiso   1.00
C398   C     0.53807   0.85488   0.31517   0.00000  Uiso   1.00
C399   C     0.46252   0.81262   0.30214   0.00000  Uiso   1.00
C400   C     0.53748   0.85405   0.03119   0.00000  Uiso   1.00
C401   C     0.41669   0.78907   0.03501   0.00000  Uiso   1.00
C402   C     0.39085   0.75356   0.00313   0.00000  Uiso   1.00
C403   C     0.35368   0.72806   0.02800   0.00000  Uiso   1.00
C404   C     0.50008   0.91257   0.16682   0.00000  Uiso   1.00
C405   C     0.58331   0.87759   0.29832   0.00000  Uiso   1.00
C406   C     0.60917   0.91309   0.33021   0.00000  Uiso   1.00
C407   C     0.64634   0.93859   0.30534   0.00000  Uiso   1.00
C408   C     0.40121   0.83326   0.15440   0.00000  Uiso   1.00
C409   C     0.59878   0.83340   0.17894   0.00000  Uiso   1.00
C410   C     0.34563   0.83325   0.14786   0.00000  Uiso   1.00
C411   C     0.65437   0.83341   0.18547   0.00000  Uiso   1.00
C412   C     0.49426   0.68746   0.12386   0.00000  Uiso   1.00
C413   C     0.50574   0.97921   0.20947   0.00000  Uiso   1.00
C414   C     0.49433   0.97819   0.12403   0.00000  Uiso   1.00
Cu415  Cu    0.50000   0.83334   0.21355   0.00000  Uiso   1.00
Cu416  Cu    0.50000   0.83333   0.11978   0.00000  Uiso   1.00
H417   H     0.65826   0.83312   0.11203   0.00000  Uiso   1.00
H418   H     0.65759   0.74809   0.03988   0.00000  Uiso   1.00
H419   H     0.33337   0.70437   0.00329   0.00000  Uiso   1.00
H420   H     0.36785   0.76612   0.30420   0.00000  Uiso   1.00
H421   H     0.42084   0.73304   0.32639   0.00000  Uiso   1.00
H422   H     0.43000   0.77505   0.06908   0.00000  Uiso   1.00
H423   H     0.38648   0.81175   0.03890   0.00000  Uiso   1.00
H424   H     0.34242   0.91856   0.29346   0.00000  Uiso   1.00
H425   H     0.62475   0.95430   0.27448   0.00000  Uiso   1.00
H426   H     0.66666   0.96228   0.33005   0.00000  Uiso   1.00
H427   H     0.57918   0.93362   0.00695   0.00000  Uiso   1.00
H428   H     0.34174   0.83355   0.22130   0.00000  Uiso   1.00
H429   H     0.63216   0.90053   0.02913   0.00000  Uiso   1.00
H430   H     0.61351   0.85491   0.29443   0.00000  Uiso   1.00
H431   H     0.56999   0.89162   0.26426   0.00000  Uiso   1.00
H432   H     0.48954   0.70307   0.09043   0.00000  Uiso   1.00
H433   H     0.51046   0.96359   0.24290   0.00000  Uiso   1.00
H434   H     0.48971   0.96176   0.09064   0.00000  Uiso   1.00
H435   H     0.51029   0.70490   0.24269   0.00000  Uiso   1.00
H436   H     0.43303   0.79684   0.27758   0.00000  Uiso   1.00
H437   H     0.56697   0.86983   0.05575   0.00000  Uiso   1.00
H438   H     0.37527   0.71235   0.05886   0.00000  Uiso   1.00
N439   N     0.50001   0.83334   0.28403   0.00000  Uiso   1.00
N440   N     0.49999   0.83332   0.04931   0.00000  Uiso   1.00
O441   O     0.50000   0.77322   0.20625   0.00000  Uiso   1.00
O442   O     0.50000   0.89345   0.12709   0.00000  Uiso   1.00
O443   O     0.50000   0.77321   0.12706   0.00000  Uiso   1.00
O444   O     0.50000   0.89346   0.20628   0.00000  Uiso   1.00
O445   O     0.42495   0.83334   0.19712   0.00000  Uiso   1.00
O446   O     0.57505   0.83333   0.13621   0.00000  Uiso   1.00
O447   O     0.42494   0.83333   0.11793   0.00000  Uiso   1.00
O448   O     0.57506   0.83334   0.21540   0.00000  Uiso   1.00
C449   C     0.83325   0.75410   0.16651   0.00000  Uiso   1.00
C450   C     0.83900   0.68848   0.20930   0.00000  Uiso   1.00
C451   C     0.83337   0.95722   0.16684   0.00000  Uiso   1.00
C452   C     0.83329   0.70944   0.16650   0.00000  Uiso   1.00
C453   C     0.79527   0.81179   0.01816   0.00000  Uiso   1.00
C454   C     0.87140   0.85488   0.31517   0.00000  Uiso   1.00
C455   C     0.79585   0.81262   0.30214   0.00000  Uiso   1.00
C456   C     0.87082   0.85405   0.03119   0.00000  Uiso   1.00
C457   C     0.75003   0.78907   0.03501   0.00000  Uiso   1.00
C458   C     0.72418   0.75356   0.00313   0.00000  Uiso   1.00
C459   C     0.68701   0.72806   0.02800   0.00000  Uiso   1.00
C460   C     0.83341   0.91257   0.16682   0.00000  Uiso   1.00
C461   C     0.91664   0.87759   0.29832   0.00000  Uiso   1.00
C462   C     0.94250   0.91309   0.33021   0.00000  Uiso   1.00
C463   C     0.97968   0.93859   0.30534   0.00000  Uiso   1.00
C464   C     0.73455   0.83326   0.15440   0.00000  Uiso   1.00
C465   C     0.93212   0.83340   0.17894   0.00000  Uiso   1.00
C466   C     0.67896   0.83325   0.14786   0.00000  Uiso   1.00
C467   C     0.98771   0.83341   0.18547   0.00000  Uiso   1.00
C468   C     0.82760   0.68746   0.12386   0.00000  Uiso   1.00
C469   C     0.83907   0.97921   0.20947   0.00000  Uiso   1.00
C470   C     0.82766   0.97819   0.12403   0.00000  Uiso   1.00
Cu471  Cu    0.83333   0.83334   0.21355   0.00000  Uiso   1.00
Cu472  Cu    0.83333   0.83333   0.11978   0.00000  Uiso   1.00
H473   H     0.99159   0.83312   0.11203   0.00000  Uiso   1.00
H474   H     0.99093   0.74809   0.03988   0.00000  Uiso   1.00
H475   H     0.66670   0.70437   0.00329   0.00000  Uiso   1.00
H476   H     0.70118   0.76612   0.30420   0.00000  Uiso   1.00
H477   H     0.75417   0.73304   0.32639   0.00000  Uiso   1.00
H478   H     0.76334   0.77505   0.06908   0.00000  Uiso   1.00
H479   H     0.71982   0.81175   0.03890   0.00000  Uiso   1.00
H480   H     0.67575   0.91856   0.29346   0.00000  Uiso   1.00
H481   H     0.95808   0.95430   0.27448   0.00000  Uiso   1.00
H482   H     0.99999   0.96228   0.33005   0.00000  Uiso   1.00
H483   H     0.91251   0.93362   0.00695   0.00000  Uiso   1.00
H484   H     0.67507   0.83355   0.22130   0.00000  Uiso   1.00
H485   H     0.96549   0.90053   0.02913   0.00000  Uiso   1.00
H486   H     0.94685   0.85491   0.29443   0.00000  Uiso   1.00
H487   H     0.90333   0.89162   0.26426   0.00000  Uiso   1.00
H488   H     0.82288   0.70307   0.09043   0.00000  Uiso   1.00
H489   H     0.84379   0.96359   0.24290   0.00000  Uiso   1.00
H490   H     0.82305   0.96176   0.09064   0.00000  Uiso   1.00
H491   H     0.84362   0.70490   0.24269   0.00000  Uiso   1.00
H492   H     0.76636   0.79684   0.27758   0.00000  Uiso   1.00
H493   H     0.90030   0.86983   0.05575   0.00000  Uiso   1.00
H494   H     0.70861   0.71235   0.05886   0.00000  Uiso   1.00
N495   N     0.83335   0.83334   0.28403   0.00000  Uiso   1.00
N496   N     0.83332   0.83332   0.04931   0.00000  Uiso   1.00
O497   O     0.83333   0.77322   0.20625   0.00000  Uiso   1.00
O498   O     0.83334   0.89345   0.12709   0.00000  Uiso   1.00
O499   O     0.83333   0.77321   0.12706   0.00000  Uiso   1.00
O500   O     0.83334   0.89346   0.20628   0.00000  Uiso   1.00
O501   O     0.75828   0.83334   0.19712   0.00000  Uiso   1.00
O502   O     0.90839   0.83333   0.13621   0.00000  Uiso   1.00
O503   O     0.75828   0.83333   0.11793   0.00000  Uiso   1.00
O504   O     0.90839   0.83334   0.21540   0.00000  Uiso   1.00
C505   C     0.16659   0.08743   0.49985   0.00000  Uiso   1.00
C506   C     0.17234   0.02181   0.54264   0.00000  Uiso   1.00
C507   C     0.16671   0.29056   0.50017   0.00000  Uiso   1.00
C508   C     0.16663   0.04278   0.49983   0.00000  Uiso   1.00
C509   C     0.12860   0.14512   0.35150   0.00000  Uiso   1.00
C510   C     0.20474   0.18821   0.64850   0.00000  Uiso   1.00
C511   C     0.12918   0.14595   0.63548   0.00000  Uiso   1.00
C512   C     0.20415   0.18738   0.36452   0.00000  Uiso   1.00
C513   C     0.08336   0.12241   0.36835   0.00000  Uiso   1.00
C514   C     0.05751   0.08690   0.33646   0.00000  Uiso   1.00
C515   C     0.02034   0.06139   0.36133   0.00000  Uiso   1.00
C516   C     0.16675   0.24590   0.50015   0.00000  Uiso   1.00
C517   C     0.24997   0.21093   0.63165   0.00000  Uiso   1.00
C518   C     0.27583   0.24643   0.66354   0.00000  Uiso   1.00
C519   C     0.31301   0.27193   0.63867   0.00000  Uiso   1.00
C520   C     0.06788   0.16660   0.48773   0.00000  Uiso   1.00
C521   C     0.26545   0.16674   0.51227   0.00000  Uiso   1.00
C522   C     0.01229   0.16659   0.48119   0.00000  Uiso   1.00
C523   C     0.32104   0.16675   0.51880   0.00000  Uiso   1.00
C524   C     0.16093   0.02079   0.45719   0.00000  Uiso   1.00
C525   C     0.17240   0.31254   0.54281   0.00000  Uiso   1.00
C526   C     0.16100   0.31152   0.45736   0.00000  Uiso   1.00
Cu527  Cu    0.16667   0.16667   0.54689   0.00000  Uiso   1.00
Cu528  Cu    0.16667   0.16666   0.45311   0.00000  Uiso   1.00
H529   H     0.32493   0.16645   0.44537   0.00000  Uiso   1.00
H530   H     0.32426   0.08142   0.37321   0.00000  Uiso   1.00
H531   H     0.00004   0.03770   0.33662   0.00000  Uiso   1.00
H532   H     0.03452   0.09945   0.63753   0.00000  Uiso   1.00
H533   H     0.08751   0.06638   0.65973   0.00000  Uiso   1.00
H534   H     0.09667   0.10838   0.40241   0.00000  Uiso   1.00
H535   H     0.05315   0.14509   0.37223   0.00000  Uiso   1.00
H536   H     0.00909   0.25189   0.62680   0.00000  Uiso   1.00
H537   H     0.29142   0.28764   0.60781   0.00000  Uiso   1.00
H538   H     0.33332   0.29561   0.66339   0.00000  Uiso   1.00
H539   H     0.24585   0.26695   0.34028   0.00000  Uiso   1.00
H540   H     0.00841   0.16688   0.55463   0.00000  Uiso   1.00
H541   H     0.29883   0.23386   0.36247   0.00000  Uiso   1.00
H542   H     0.28018   0.18824   0.62776   0.00000  Uiso   1.00
H543   H     0.23666   0.22496   0.59759   0.00000  Uiso   1.00
H544   H     0.15621   0.03641   0.42376   0.00000  Uiso   1.00
H545   H     0.17712   0.29693   0.57624   0.00000  Uiso   1.00
H546   H     0.15638   0.29510   0.42398   0.00000  Uiso   1.00
H547   H     0.17695   0.03824   0.57602   0.00000  Uiso   1.00
H548   H     0.09969   0.13018   0.61092   0.00000  Uiso   1.00
H549   H     0.23364   0.20316   0.38908   0.00000  Uiso   1.00
H550   H     0.04194   0.04568   0.39220   0.00000  Uiso   1.00
N551   N     0.16668   0.16668   0.61736   0.00000  Uiso   1.00
N552   N     0.16665   0.16666   0.38264   0.00000  Uiso   1.00
O553   O     0.16666   0.10655   0.53958   0.00000  Uiso   1.00
O554   O     0.16667   0.22678   0.46042   0.00000  Uiso   1.00
O555   O     0.16666   0.10654   0.46039   0.00000  Uiso   1.00
O556   O     0.16667   0.22679   0.53961   0.00000  Uiso   1.00
O557   O     0.09161   0.16667   0.53046   0.00000  Uiso   1.00
O558   O     0.24172   0.16666   0.46954   0.00000  Uiso   1.00
O559   O     0.09161   0.16666   0.45127   0.00000  Uiso   1.00
O560   O     0.24172   0.16667   0.54873   0.00000  Uiso   1.00
C561   C     0.49992   0.08743   0.49985   0.00000  Uiso   1.00
C562   C     0.50567   0.02181   0.54264   0.00000  Uiso   1.00
C563   C     0.50004   0.29056   0.50017   0.00000  Uiso   1.00
C564   C     0.49996   0.04278   0.49983   0.00000  Uiso   1.00
C565   C     0.46193   0.14512   0.35150   0.00000  Uiso   1.00
C566   C     0.53807   0.18821   0.64850   0.00000  Uiso   1.00
C567   C     0.46252   0.14595   0.63548   0.00000  Uiso   1.00
C568   C     0.53748   0.18738   0.36452   0.00000  Uiso   1.00
C569   C     0.41669   0.12241   0.36835   0.00000  Uiso   1.00
C570   C     0.39085   0.08690   0.33646   0.00000  Uiso   1.00
C571   C     0.35368   0.06139   0.36133   0.00000  Uiso   1.00
C572   C     0.50008   0.24590   0.50015   0.00000  Uiso   1.00
C573   C     0.58331   0.21093   0.63165   0.00000  Uiso   1.00
C574   C     0.60917   0.24643   0.66354   0.00000  Uiso   1.00
C575   C     0.64634   0.27193   0.63867   0.00000  Uiso   1.00
C576   C     0.40121   0.16660   0.48773   0.00000  Uiso   1.00
C577   C     0.59878   0.16674   0.51227   0.00000  Uiso   1.00
C578   C     0.34563   0.16659   0.48119   0.00000  Uiso   1.00
C579   C     0.65437   0.16675   0.51880   0.00000  Uiso   1.00
C580   C     0.49426   0.02079   0.45719   0.00000  Uiso   1.00
C581   C     0.50574   0.31254   0.54281   0.00000  Uiso   1.00
C582   C     0.49433   0.31152   0.45736   0.00000  Uiso   1.00
Cu583  Cu    0.50000   0.16667   0.54689   0.00000  Uiso   1.00
Cu584  Cu    0.50000   0.16666   0.45311   0.00000  Uiso   1.00
H585   H     0.65826   0.16645   0.44537   0.00000  Uiso   1.00
H586   H     0.65759   0.08142   0.37321   0.00000  Uiso   1.00
H587   H     0.33337   0.03770   0.33662   0.00000  Uiso   1.00
H588   H     0.36785   0.09945   0.63753   0.00000  Uiso   1.00
H589   H     0.42084   0.06638   0.65973   0.00000  Uiso   1.00
H590   H     0.43000   0.10838   0.40241   0.00000  Uiso   1.00
H591   H     0.38648   0.14509   0.37223   0.00000  Uiso   1.00
H592   H     0.34242   0.25189   0.62680   0.00000  Uiso   1.00
H593   H     0.62475   0.28764   0.60781   0.00000  Uiso   1.00
H594   H     0.66666   0.29561   0.66339   0.00000  Uiso   1.00
H595   H     0.57918   0.26695   0.34028   0.00000  Uiso   1.00
H596   H     0.34174   0.16688   0.55463   0.00000  Uiso   1.00
H597   H     0.63216   0.23386   0.36247   0.00000  Uiso   1.00
H598   H     0.61351   0.18824   0.62776   0.00000  Uiso   1.00
H599   H     0.56999   0.22496   0.59759   0.00000  Uiso   1.00
H600   H     0.48954   0.03641   0.42376   0.00000  Uiso   1.00
H601   H     0.51046   0.29693   0.57624   0.00000  Uiso   1.00
H602   H     0.48971   0.29510   0.42398   0.00000  Uiso   1.00
H603   H     0.51029   0.03824   0.57602   0.00000  Uiso   1.00
H604   H     0.43303   0.13018   0.61092   0.00000  Uiso   1.00
H605   H     0.56697   0.20316   0.38908   0.00000  Uiso   1.00
H606   H     0.37527   0.04568   0.39220   0.00000  Uiso   1.00
N607   N     0.50001   0.16668   0.61736   0.00000  Uiso   1.00
N608   N     0.49999   0.16666   0.38264   0.00000  Uiso   1.00
O609   O     0.50000   0.10655   0.53958   0.00000  Uiso   1.00
O610   O     0.50000   0.22678   0.46042   0.00000  Uiso   1.00
O611   O     0.50000   0.10654   0.46039   0.00000  Uiso   1.00
O612   O     0.50000   0.22679   0.53961   0.00000  Uiso   1.00
O613   O     0.42495   0.16667   0.53046   0.00000  Uiso   1.00
O614   O     0.57505   0.16666   0.46954   0.00000  Uiso   1.00
O615   O     0.42494   0.16666   0.45127   0.00000  Uiso   1.00
O616   O     0.57506   0.16667   0.54873   0.00000  Uiso   1.00
C617   C     0.83325   0.08743   0.49985   0.00000  Uiso   1.00
C618   C     0.83900   0.02181   0.54264   0.00000  Uiso   1.00
C619   C     0.83337   0.29056   0.50017   0.00000  Uiso   1.00
C620   C     0.83329   0.04278   0.49983   0.00000  Uiso   1.00
C621   C     0.79527   0.14512   0.35150   0.00000  Uiso   1.00
C622   C     0.87140   0.18821   0.64850   0.00000  Uiso   1.00
C623   C     0.79585   0.14595   0.63548   0.00000  Uiso   1.00
C624   C     0.87082   0.18738   0.36452   0.00000  Uiso   1.00
C625   C     0.75003   0.12241   0.36835   0.00000  Uiso   1.00
C626   C     0.72418   0.08690   0.33646   0.00000  Uiso   1.00
C627   C     0.68701   0.06139   0.36133   0.00000  Uiso   1.00
C628   C     0.83341   0.24590   0.50015   0.00000  Uiso   1.00
C629   C     0.91664   0.21093   0.63165   0.00000  Uiso   1.00
C630   C     0.94250   0.24643   0.66354   0.00000  Uiso   1.00
C631   C     0.97968   0.27193   0.63867   0.00000  Uiso   1.00
C632   C     0.73455   0.16660   0.48773   0.00000  Uiso   1.00
C633   C     0.93212   0.16674   0.51227   0.00000  Uiso   1.00
C634   C     0.67896   0.16659   0.48119   0.00000  Uiso   1.00
C635   C     0.98771   0.16675   0.51880   0.00000  Uiso   1.00
C636   C     0.82760   0.02079   0.45719   0.00000  Uiso   1.00
C637   C     0.83907   0.31254   0.54281   0.00000  Uiso   1.00
C638   C     0.82766   0.31152   0.45736   0.00000  Uiso   1.00
Cu639  Cu    0.83333   0.16667   0.54689   0.00000  Uiso   1.00
Cu640  Cu    0.83333   0.16666   0.45311   0.00000  Uiso   1.00
H641   H     0.99159   0.16645   0.44537   0.00000  Uiso   1.00
H642   H     0.99093   0.08142   0.37321   0.00000  Uiso   1.00
H643   H     0.66670   0.03770   0.33662   0.00000  Uiso   1.00
H644   H     0.70118   0.09945   0.63753   0.00000  Uiso   1.00
H645   H     0.75417   0.06638   0.65973   0.00000  Uiso   1.00
H646   H     0.76334   0.10838   0.40241   0.00000  Uiso   1.00
H647   H     0.71982   0.14509   0.37223   0.00000  Uiso   1.00
H648   H     0.67575   0.25189   0.62680   0.00000  Uiso   1.00
H649   H     0.95808   0.28764   0.60781   0.00000  Uiso   1.00
H650   H     0.99999   0.29561   0.66339   0.00000  Uiso   1.00
H651   H     0.91251   0.26695   0.34028   0.00000  Uiso   1.00
H652   H     0.67507   0.16688   0.55463   0.00000  Uiso   1.00
H653   H     0.96549   0.23386   0.36247   0.00000  Uiso   1.00
H654   H     0.94685   0.18824   0.62776   0.00000  Uiso   1.00
H655   H     0.90333   0.22496   0.59759   0.00000  Uiso   1.00
H656   H     0.82288   0.03641   0.42376   0.00000  Uiso   1.00
H657   H     0.84379   0.29693   0.57624   0.00000  Uiso   1.00
H658   H     0.82305   0.29510   0.42398   0.00000  Uiso   1.00
H659   H     0.84362   0.03824   0.57602   0.00000  Uiso   1.00
H660   H     0.76636   0.13018   0.61092   0.00000  Uiso   1.00
H661   H     0.90030   0.20316   0.38908   0.00000  Uiso   1.00
H662   H     0.70861   0.04568   0.39220   0.00000  Uiso   1.00
N663   N     0.83335   0.16668   0.61736   0.00000  Uiso   1.00
N664   N     0.83332   0.16666   0.38264   0.00000  Uiso   1.00
O665   O     0.83333   0.10655   0.53958   0.00000  Uiso   1.00
O666   O     0.83334   0.22678   0.46042   0.00000  Uiso   1.00
O667   O     0.83333   0.10654   0.46039   0.00000  Uiso   1.00
O668   O     0.83334   0.22679   0.53961   0.00000  Uiso   1.00
O669   O     0.75828   0.16667   0.53046   0.00000  Uiso   1.00
O670   O     0.90839   0.16666   0.46954   0.00000  Uiso   1.00
O671   O     0.75828   0.16666   0.45127   0.00000  Uiso   1.00
O672   O     0.90839   0.16667   0.54873   0.00000  Uiso   1.00
C673   C     0.16659   0.42077   0.49985   0.00000  Uiso   1.00
C674   C     0.17234   0.35514   0.54264   0.00000  Uiso   1.00
C675   C     0.16671   0.62389   0.50017   0.00000  Uiso   1.00
C676   C     0.16663   0.37611   0.49983   0.00000  Uiso   1.00
C677   C     0.12860   0.47846   0.35150   0.00000  Uiso   1.00
C678   C     0.20474   0.52154   0.64850   0.00000  Uiso   1.00
C679   C     0.12918   0.47928   0.63548   0.00000  Uiso   1.00
C680   C     0.20415   0.52072   0.36452   0.00000  Uiso   1.00
C681   C     0.08336   0.45574   0.36835   0.00000  Uiso   1.00
C682   C     0.05751   0.42023   0.33646   0.00000  Uiso   1.00
C683   C     0.02034   0.39473   0.36133   0.00000  Uiso   1.00
C684   C     0.16675   0.57923   0.50015   0.00000  Uiso   1.00
C685   C     0.24997   0.54426   0.63165   0.00000  Uiso   1.00
C686   C     0.27583   0.57976   0.66354   0.00000  Uiso   1.00
C687   C     0.31301   0.60526   0.63867   0.00000  Uiso   1.00
C688   C     0.06788   0.49993   0.48773   0.00000  Uiso   1.00
C689   C     0.26545   0.50007   0.51227   0.00000  Uiso   1.00
C690   C     0.01229   0.49992   0.48119   0.00000  Uiso   1.00
C691   C     0.32104   0.50008   0.51880   0.00000  Uiso   1.00
C692   C     0.16093   0.35413   0.45719   0.00000  Uiso   1.00
C693   C     0.17240   0.64587   0.54281   0.00000  Uiso   1.00
C694   C     0.16100   0.64486   0.45736   0.00000  Uiso   1.00
Cu695  Cu    0.16667   0.50001   0.54689   0.00000  Uiso   1.00
Cu696  Cu    0.16667   0.49999   0.45311   0.00000  Uiso   1.00
H697   H     0.32493   0.49979   0.44537   0.00000  Uiso   1.00
H698   H     0.32426   0.41476   0.37321   0.00000  Uiso   1.00
H699   H     0.00004   0.37104   0.33662   0.00000  Uiso   1.00
H700   H     0.03452   0.43279   0.63753   0.00000  Uiso   1.00
H701   H     0.08751   0.39971   0.65973   0.00000  Uiso   1.00
H702   H     0.09667   0.44171   0.40241   0.00000  Uiso   1.00
H703   H     0.05315   0.47842   0.37223   0.00000  Uiso   1.00
H704   H     0.00909   0.58522   0.62680   0.00000  Uiso   1.00
H705   H     0.29142   0.62097   0.60781   0.00000  Uiso   1.00
H706   H     0.33332   0.62895   0.66339   0.00000  Uiso   1.00
H707   H     0.24585   0.60029   0.34028   0.00000  Uiso   1.00
H708   H     0.00841   0.50021   0.55463   0.00000  Uiso   1.00
H709   H     0.29883   0.56720   0.36247   0.00000  Uiso   1.00
H710   H     0.28018   0.52157   0.62776   0.00000  Uiso   1.00
H711   H     0.23666   0.55829   0.59759   0.00000  Uiso   1.00
H712   H     0.15621   0.36974   0.42376   0.00000  Uiso   1.00
H713   H     0.17712   0.63026   0.57624   0.00000  Uiso   1.00
H714   H     0.15638   0.62843   0.42398   0.00000  Uiso   1.00
H715   H     0.17695   0.37157   0.57602   0.00000  Uiso   1.00
H716   H     0.09969   0.46351   0.61092   0.00000  Uiso   1.00
H717   H     0.23364   0.53649   0.38908   0.00000  Uiso   1.00
H718   H     0.04194   0.37902   0.39220   0.00000  Uiso   1.00
N719   N     0.16668   0.50001   0.61736   0.00000  Uiso   1.00
N720   N     0.16665   0.49999   0.38264   0.00000  Uiso   1.00
O721   O     0.16666   0.43989   0.53958   0.00000  Uiso   1.00
O722   O     0.16667   0.56011   0.46042   0.00000  Uiso   1.00
O723   O     0.16666   0.43988   0.46039   0.00000  Uiso   1.00
O724   O     0.16667   0.56012   0.53961   0.00000  Uiso   1.00
O725   O     0.09161   0.50000   0.53046   0.00000  Uiso   1.00
O726   O     0.24172   0.50000   0.46954   0.00000  Uiso   1.00
O727   O     0.09161   0.49999   0.45127   0.00000  Uiso   1.00
O728   O     0.24172   0.50001   0.54873   0.00000  Uiso   1.00
C729   C     0.49992   0.42077   0.49985   0.00000  Uiso   1.00
C730   C     0.50567   0.35514   0.54264   0.00000  Uiso   1.00
C731   C     0.50004   0.62389   0.50017   0.00000  Uiso   1.00
C732   C     0.49996   0.37611   0.49983   0.00000  Uiso   1.00
C733   C     0.46193   0.47846   0.35150   0.00000  Uiso   1.00
C734   C     0.53807   0.52154   0.64850   0.00000  Uiso   1.00
C735   C     0.46252   0.47928   0.63548   0.00000  Uiso   1.00
C736   C     0.53748   0.52072   0.36452   0.00000  Uiso   1.00
C737   C     0.41669   0.45574   0.36835   0.00000  Uiso   1.00
C738   C     0.39085   0.42023   0.33646   0.00000  Uiso   1.00
C739   C     0.35368   0.39473   0.36133   0.00000  Uiso   1.00
C740   C     0.50008   0.57923   0.50015   0.00000  Uiso   1.00
C741   C     0.58331   0.54426   0.63165   0.00000  Uiso   1.00
C742   C     0.60917   0.57976   0.66354   0.00000  Uiso   1.00
C743   C     0.64634   0.60526   0.63867   0.00000  Uiso   1.00
C744   C     0.40121   0.49993   0.48773   0.00000  Uiso   1.00
C745   C     0.59878   0.50007   0.51227   0.00000  Uiso   1.00
C746   C     0.34563   0.49992   0.48119   0.00000  Uiso   1.00
C747   C     0.65437   0.50008   0.51880   0.00000  Uiso   1.00
C748   C     0.49426   0.35413   0.45719   0.00000  Uiso   1.00
C749   C     0.50574   0.64587   0.54281   0.00000  Uiso   1.00
C750   C     0.49433   0.64486   0.45736   0.00000  Uiso   1.00
Cu751  Cu    0.50000   0.50001   0.54689   0.00000  Uiso   1.00
Cu752  Cu    0.50000   0.49999   0.45311   0.00000  Uiso   1.00
H753   H     0.65826   0.49979   0.44537   0.00000  Uiso   1.00
H754   H     0.65759   0.41476   0.37321   0.00000  Uiso   1.00
H755   H     0.33337   0.37104   0.33662   0.00000  Uiso   1.00
H756   H     0.36785   0.43279   0.63753   0.00000  Uiso   1.00
H757   H     0.42084   0.39971   0.65973   0.00000  Uiso   1.00
H758   H     0.43000   0.44171   0.40241   0.00000  Uiso   1.00
H759   H     0.38648   0.47842   0.37223   0.00000  Uiso   1.00
H760   H     0.34242   0.58522   0.62680   0.00000  Uiso   1.00
H761   H     0.62475   0.62097   0.60781   0.00000  Uiso   1.00
H762   H     0.66666   0.62895   0.66339   0.00000  Uiso   1.00
H763   H     0.57918   0.60029   0.34028   0.00000  Uiso   1.00
H764   H     0.34174   0.50021   0.55463   0.00000  Uiso   1.00
H765   H     0.63216   0.56720   0.36247   0.00000  Uiso   1.00
H766   H     0.61351   0.52157   0.62776   0.00000  Uiso   1.00
H767   H     0.56999   0.55829   0.59759   0.00000  Uiso   1.00
H768   H     0.48954   0.36974   0.42376   0.00000  Uiso   1.00
H769   H     0.51046   0.63026   0.57624   0.00000  Uiso   1.00
H770   H     0.48971   0.62843   0.42398   0.00000  Uiso   1.00
H771   H     0.51029   0.37157   0.57602   0.00000  Uiso   1.00
H772   H     0.43303   0.46351   0.61092   0.00000  Uiso   1.00
H773   H     0.56697   0.53649   0.38908   0.00000  Uiso   1.00
H774   H     0.37527   0.37902   0.39220   0.00000  Uiso   1.00
N775   N     0.50001   0.50001   0.61736   0.00000  Uiso   1.00
N776   N     0.49999   0.49999   0.38264   0.00000  Uiso   1.00
O777   O     0.50000   0.43989   0.53958   0.00000  Uiso   1.00
O778   O     0.50000   0.56011   0.46042   0.00000  Uiso   1.00
O779   O     0.50000   0.43988   0.46039   0.00000  Uiso   1.00
O780   O     0.50000   0.56012   0.53961   0.00000  Uiso   1.00
O781   O     0.42495   0.50000   0.53046   0.00000  Uiso   1.00
O782   O     0.57505   0.50000   0.46954   0.00000  Uiso   1.00
O783   O     0.42494   0.49999   0.45127   0.00000  Uiso   1.00
O784   O     0.57506   0.50001   0.54873   0.00000  Uiso   1.00
C785   C     0.83325   0.42077   0.49985   0.00000  Uiso   1.00
C786   C     0.83900   0.35514   0.54264   0.00000  Uiso   1.00
C787   C     0.83337   0.62389   0.50017   0.00000  Uiso   1.00
C788   C     0.83329   0.37611   0.49983   0.00000  Uiso   1.00
C789   C     0.79527   0.47846   0.35150   0.00000  Uiso   1.00
C790   C     0.87140   0.52154   0.64850   0.00000  Uiso   1.00
C791   C     0.79585   0.47928   0.63548   0.00000  Uiso   1.00
C792   C     0.87082   0.52072   0.36452   0.00000  Uiso   1.00
C793   C     0.75003   0.45574   0.36835   0.00000  Uiso   1.00
C794   C     0.72418   0.42023   0.33646   0.00000  Uiso   1.00
C795   C     0.68701   0.39473   0.36133   0.00000  Uiso   1.00
C796   C     0.83341   0.57923   0.50015   0.00000  Uiso   1.00
C797   C     0.91664   0.54426   0.63165   0.00000  Uiso   1.00
C798   C     0.94250   0.57976   0.66354   0.00000  Uiso   1.00
C799   C     0.97968   0.60526   0.63867   0.00000  Uiso   1.00
C800   C     0.73455   0.49993   0.48773   0.00000  Uiso   1.00
C801   C     0.93212   0.50007   0.51227   0.00000  Uiso   1.00
C802   C     0.67896   0.49992   0.48119   0.00000  Uiso   1.00
C803   C     0.98771   0.50008   0.51880   0.00000  Uiso   1.00
C804   C     0.82760   0.35413   0.45719   0.00000  Uiso   1.00
C805   C     0.83907   0.64587   0.54281   0.00000  Uiso   1.00
C806   C     0.82766   0.64486   0.45736   0.00000  Uiso   1.00
Cu807  Cu    0.83333   0.50001   0.54689   0.00000  Uiso   1.00
Cu808  Cu    0.83333   0.49999   0.45311   0.00000  Uiso   1.00
H809   H     0.99159   0.49979   0.44537   0.00000  Uiso   1.00
H810   H     0.99093   0.41476   0.37321   0.00000  Uiso   1.00
H811   H     0.66670   0.37104   0.33662   0.00000  Uiso   1.00
H812   H     0.70118   0.43279   0.63753   0.00000  Uiso   1.00
H813   H     0.75417   0.39971   0.65973   0.00000  Uiso   1.00
H814   H     0.76334   0.44171   0.40241   0.00000  Uiso   1.00
H815   H     0.71982   0.47842   0.37223   0.00000  Uiso   1.00
H816   H     0.67575   0.58522   0.62680   0.00000  Uiso   1.00
H817   H     0.95808   0.62097   0.60781   0.00000  Uiso   1.00
H818   H     0.99999   0.62895   0.66339   0.00000  Uiso   1.00
H819   H     0.91251   0.60029   0.34028   0.00000  Uiso   1.00
H820   H     0.67507   0.50021   0.55463   0.00000  Uiso   1.00
H821   H     0.96549   0.56720   0.36247   0.00000  Uiso   1.00
H822   H     0.94685   0.52157   0.62776   0.00000  Uiso   1.00
H823   H     0.90333   0.55829   0.59759   0.00000  Uiso   1.00
H824   H     0.82288   0.36974   0.42376   0.00000  Uiso   1.00
H825   H     0.84379   0.63026   0.57624   0.00000  Uiso   1.00
H826   H     0.82305   0.62843   0.42398   0.00000  Uiso   1.00
H827   H     0.84362   0.37157   0.57602   0.00000  Uiso   1.00
H828   H     0.76636   0.46351   0.61092   0.00000  Uiso   1.00
H829   H     0.90030   0.53649   0.38908   0.00000  Uiso   1.00
H830   H     0.70861   0.37902   0.39220   0.00000  Uiso   1.00
N831   N     0.83335   0.50001   0.61736   0.00000  Uiso   1.00
N832   N     0.83332   0.49999   0.38264   0.00000  Uiso   1.00
O833   O     0.83333   0.43989   0.53958   0.00000  Uiso   1.00
O834   O     0.83334   0.56011   0.46042   0.00000  Uiso   1.00
O835   O     0.83333   0.43988   0.46039   0.00000  Uiso   1.00
O836   O     0.83334   0.56012   0.53961   0.00000  Uiso   1.00
O837   O     0.75828   0.50000   0.53046   0.00000  Uiso   1.00
O838   O     0.90839   0.50000   0.46954   0.00000  Uiso   1.00
O839   O     0.75828   0.49999   0.45127   0.00000  Uiso   1.00
O840   O     0.90839   0.50001   0.54873   0.00000  Uiso   1.00
C841   C     0.16659   0.75410   0.49985   0.00000  Uiso   1.00
C842   C     0.17234   0.68848   0.54264   0.00000  Uiso   1.00
C843   C     0.16671   0.95722   0.50017   0.00000  Uiso   1.00
C844   C     0.16663   0.70944   0.49983   0.00000  Uiso   1.00
C845   C     0.12860   0.81179   0.35150   0.00000  Uiso   1.00
C846   C     0.20474   0.85488   0.64850   0.00000  Uiso   1.00
C847   C     0.12918   0.81262   0.63548   0.00000  Uiso   1.00
C848   C     0.20415   0.85405   0.36452   0.00000  Uiso   1.00
C849   C     0.08336   0.78907   0.36835   0.00000  Uiso   1.00
C850   C     0.05751   0.75356   0.33646   0.00000  Uiso   1.00
C851   C     0.02034   0.72806   0.36133   0.00000  Uiso   1.00
C852   C     0.16675   0.91257   0.50015   0.00000  Uiso   1.00
C853   C     0.24997   0.87759   0.63165   0.00000  Uiso   1.00
C854   C     0.27583   0.91309   0.66354   0.00000  Uiso   1.00
C855   C     0.31301   0.93859   0.63867   0.00000  Uiso   1.00
C856   C     0.06788   0.83326   0.48773   0.00000  Uiso   1.00
C857   C     0.26545   0.83340   0.51227   0.00000  Uiso   1.00
C858   C     0.01229   0.83325   0.48119   0.00000  Uiso   1.00
C859   C     0.32104   0.83341   0.51880   0.00000  Uiso   1.00
C860   C     0.16093   0.68746   0.45719   0.00000  Uiso   1.00
C861   C     0.17240   0.97921   0.54281   0.00000  Uiso   1.00
C862   C     0.16100   0.97819   0.45736   0.00000  Uiso   1.00
Cu863  Cu    0.16667   0.83334   0.54689   0.00000  Uiso   1.00
Cu864  Cu    0.16667   0.83333   0.45311   0.00000  Uiso   1.00
H865   H     0.32493   0.83312   0.44537   0.00000  Uiso   1.00
H866   H     0.32426   0.74809   0.37321   0.00000  Uiso   1.00
H867   H     0.00004   0.70437   0.33662   0.00000  Uiso   1.00
H868   H     0.03452   0.76612   0.63753   0.00000  Uiso   1.00
H869   H     0.08751   0.73304   0.65973   0.00000  Uiso   1.00
H870   H     0.09667   0.77505   0.40241   0.00000  Uiso   1.00
H871   H     0.05315   0.81175   0.37223   0.00000  Uiso   1.00
H872   H     0.00909   0.91856   0.62680   0.00000  Uiso   1.00
H873   H     0.29142   0.95430   0.60781   0.00000  Uiso   1.00
H874   H     0.33332   0.96228   0.66339   0.00000  Uiso   1.00
H875   H     0.24585   0.93362   0.34028   0.00000  Uiso   1.00
H876   H     0.00841   0.83355   0.55463   0.00000  Uiso   1.00
H877   H     0.29883   0.90053   0.36247   0.00000  Uiso   1.00
H878   H     0.28018   0.85491   0.62776   0.00000  Uiso   1.00
H879   H     0.23666   0.89162   0.59759   0.00000  Uiso   1.00
H880   H     0.15621   0.70307   0.42376   0.00000  Uiso   1.00
H881   H     0.17712   0.96359   0.57624   0.00000  Uiso   1.00
H882   H     0.15638   0.96176   0.42398   0.00000  Uiso   1.00
H883   H     0.17695   0.70490   0.57602   0.00000  Uiso   1.00
H884   H     0.09969   0.79684   0.61092   0.00000  Uiso   1.00
H885   H     0.23364   0.86983   0.38908   0.00000  Uiso   1.00
H886   H     0.04194   0.71235   0.39220   0.00000  Uiso   1.00
N887   N     0.16668   0.83334   0.61736   0.00000  Uiso   1.00
N888   N     0.16665   0.83332   0.38264   0.00000  Uiso   1.00
O889   O     0.16666   0.77322   0.53958   0.00000  Uiso   1.00
O890   O     0.16667   0.89345   0.46042   0.00000  Uiso   1.00
O891   O     0.16666   0.77321   0.46039   0.00000  Uiso   1.00
O892   O     0.16667   0.89346   0.53961   0.00000  Uiso   1.00
O893   O     0.09161   0.83334   0.53046   0.00000  Uiso   1.00
O894   O     0.24172   0.83333   0.46954   0.00000  Uiso   1.00
O895   O     0.09161   0.83333   0.45127   0.00000  Uiso   1.00
O896   O     0.24172   0.83334   0.54873   0.00000  Uiso   1.00
C897   C     0.49992   0.75410   0.49985   0.00000  Uiso   1.00
C898   C     0.50567   0.68848   0.54264   0.00000  Uiso   1.00
C899   C     0.50004   0.95722   0.50017   0.00000  Uiso   1.00
C900   C     0.49996   0.70944   0.49983   0.00000  Uiso   1.00
C901   C     0.46193   0.81179   0.35150   0.00000  Uiso   1.00
C902   C     0.53807   0.85488   0.64850   0.00000  Uiso   1.00
C903   C     0.46252   0.81262   0.63548   0.00000  Uiso   1.00
C904   C     0.53748   0.85405   0.36452   0.00000  Uiso   1.00
C905   C     0.41669   0.78907   0.36835   0.00000  Uiso   1.00
C906   C     0.39085   0.75356   0.33646   0.00000  Uiso   1.00
C907   C     0.35368   0.72806   0.36133   0.00000  Uiso   1.00
C908   C     0.50008   0.91257   0.50015   0.00000  Uiso   1.00
C909   C     0.58331   0.87759   0.63165   0.00000  Uiso   1.00
C910   C     0.60917   0.91309   0.66354   0.00000  Uiso   1.00
C911   C     0.64634   0.93859   0.63867   0.00000  Uiso   1.00
C912   C     0.40121   0.83326   0.48773   0.00000  Uiso   1.00
C913   C     0.59878   0.83340   0.51227   0.00000  Uiso   1.00
C914   C     0.34563   0.83325   0.48119   0.00000  Uiso   1.00
C915   C     0.65437   0.83341   0.51880   0.00000  Uiso   1.00
C916   C     0.49426   0.68746   0.45719   0.00000  Uiso   1.00
C917   C     0.50574   0.97921   0.54281   0.00000  Uiso   1.00
C918   C     0.49433   0.97819   0.45736   0.00000  Uiso   1.00
Cu919  Cu    0.50000   0.83334   0.54689   0.00000  Uiso   1.00
Cu920  Cu    0.50000   0.83333   0.45311   0.00000  Uiso   1.00
H921   H     0.65826   0.83312   0.44537   0.00000  Uiso   1.00
H922   H     0.65759   0.74809   0.37321   0.00000  Uiso   1.00
H923   H     0.33337   0.70437   0.33662   0.00000  Uiso   1.00
H924   H     0.36785   0.76612   0.63753   0.00000  Uiso   1.00
H925   H     0.42084   0.73304   0.65973   0.00000  Uiso   1.00
H926   H     0.43000   0.77505   0.40241   0.00000  Uiso   1.00
H927   H     0.38648   0.81175   0.37223   0.00000  Uiso   1.00
H928   H     0.34242   0.91856   0.62680   0.00000  Uiso   1.00
H929   H     0.62475   0.95430   0.60781   0.00000  Uiso   1.00
H930   H     0.66666   0.96228   0.66339   0.00000  Uiso   1.00
H931   H     0.57918   0.93362   0.34028   0.00000  Uiso   1.00
H932   H     0.34174   0.83355   0.55463   0.00000  Uiso   1.00
H933   H     0.63216   0.90053   0.36247   0.00000  Uiso   1.00
H934   H     0.61351   0.85491   0.62776   0.00000  Uiso   1.00
H935   H     0.56999   0.89162   0.59759   0.00000  Uiso   1.00
H936   H     0.48954   0.70307   0.42376   0.00000  Uiso   1.00
H937   H     0.51046   0.96359   0.57624   0.00000  Uiso   1.00
H938   H     0.48971   0.96176   0.42398   0.00000  Uiso   1.00
H939   H     0.51029   0.70490   0.57602   0.00000  Uiso   1.00
H940   H     0.43303   0.79684   0.61092   0.00000  Uiso   1.00
H941   H     0.56697   0.86983   0.38908   0.00000  Uiso   1.00
H942   H     0.37527   0.71235   0.39220   0.00000  Uiso   1.00
N943   N     0.50001   0.83334   0.61736   0.00000  Uiso   1.00
N944   N     0.49999   0.83332   0.38264   0.00000  Uiso   1.00
O945   O     0.50000   0.77322   0.53958   0.00000  Uiso   1.00
O946   O     0.50000   0.89345   0.46042   0.00000  Uiso   1.00
O947   O     0.50000   0.77321   0.46039   0.00000  Uiso   1.00
O948   O     0.50000   0.89346   0.53961   0.00000  Uiso   1.00
O949   O     0.42495   0.83334   0.53046   0.00000  Uiso   1.00
O950   O     0.57505   0.83333   0.46954   0.00000  Uiso   1.00
O951   O     0.42494   0.83333   0.45127   0.00000  Uiso   1.00
O952   O     0.57506   0.83334   0.54873   0.00000  Uiso   1.00
C953   C     0.83325   0.75410   0.49985   0.00000  Uiso   1.00
C954   C     0.83900   0.68848   0.54264   0.00000  Uiso   1.00
C955   C     0.83337   0.95722   0.50017   0.00000  Uiso   1.00
C956   C     0.83329   0.70944   0.49983   0.00000  Uiso   1.00
C957   C     0.79527   0.81179   0.35150   0.00000  Uiso   1.00
C958   C     0.87140   0.85488   0.64850   0.00000  Uiso   1.00
C959   C     0.79585   0.81262   0.63548   0.00000  Uiso   1.00
C960   C     0.87082   0.85405   0.36452   0.00000  Uiso   1.00
C961   C     0.75003   0.78907   0.36835   0.00000  Uiso   1.00
C962   C     0.72418   0.75356   0.33646   0.00000  Uiso   1.00
C963   C     0.68701   0.72806   0.36133   0.00000  Uiso   1.00
C964   C     0.83341   0.91257   0.50015   0.00000  Uiso   1.00
C965   C     0.91664   0.87759   0.63165   0.00000  Uiso   1.00
C966   C     0.94250   0.91309   0.66354   0.00000  Uiso   1.00
C967   C     0.97968   0.93859   0.63867   0.00000  Uiso   1.00
C968   C     0.73455   0.83326   0.48773   0.00000  Uiso   1.00
C969   C     0.93212   0.83340   0.51227   0.00000  Uiso   1.00
C970   C     0.67896   0.83325   0.48119   0.00000  Uiso   1.00
C971   C     0.98771   0.83341   0.51880   0.00000  Uiso   1.00
C972   C     0.82760   0.68746   0.45719   0.00000  Uiso   1.00
C973   C     0.83907   0.97921   0.54281   0.00000  Uiso   1.00
C974   C     0.82766   0.97819   0.45736   0.00000  Uiso   1.00
Cu975  Cu    0.83333   0.83334   0.54689   0.00000  Uiso   1.00
Cu976  Cu    0.83333   0.83333   0.45311   0.00000  Uiso   1.00
H977   H     0.99159   0.83312   0.44537   0.00000  Uiso   1.00
H978   H     0.99093   0.74809   0.37321   0.00000  Uiso   1.00
H979   H     0.66670   0.70437   0.33662   0.00000  Uiso   1.00
H980   H     0.70118   0.76612   0.63753   0.00000  Uiso   1.00
H981   H     0.75417   0.73304   0.65973   0.00000  Uiso   1.00
H982   H     0.76334   0.77505   0.40241   0.00000  Uiso   1.00
H983   H     0.71982   0.81175   0.37223   0.00000  Uiso   1.00
H984   H     0.67575   0.91856   0.62680   0.00000  Uiso   1.00
H985   H     0.95808   0.95430   0.60781   0.00000  Uiso   1.00
H986   H     0.99999   0.96228   0.66339   0.00000  Uiso   1.00
H987   H     0.91251   0.93362   0.34028   0.00000  Uiso   1.00
H988   H     0.67507   0.83355   0.55463   0.00000  Uiso   1.00
H989   H     0.96549   0.90053   0.36247   0.00000  Uiso   1.00
H990   H     0.94685   0.85491   0.62776   0.00000  Uiso   1.00
H991   H     0.90333   0.89162   0.59759   0.00000  Uiso   1.00
H992   H     0.82288   0.70307   0.42376   0.00000  Uiso   1.00
H993   H     0.84379   0.96359   0.57624   0.00000  Uiso   1.00
H994   H     0.82305   0.96176   0.42398   0.00000  Uiso   1.00
H995   H     0.84362   0.70490   0.57602   0.00000  Uiso   1.00
H996   H     0.76636   0.79684   0.61092   0.00000  Uiso   1.00
H997   H     0.90030   0.86983   0.38908   0.00000  Uiso   1.00
H998   H     0.70861   0.71235   0.39220   0.00000  Uiso   1.00
N999   N     0.83335   0.83334   0.61736   0.00000  Uiso   1.00
N1000  N     0.83332   0.83332   0.38264   0.00000  Uiso   1.00
O1001  O     0.83333   0.77322   0.53958   0.00000  Uiso   1.00
O1002  O     0.83334   0.89345   0.46042   0.00000  Uiso   1.00
O1003  O     0.83333   0.77321   0.46039   0.00000  Uiso   1.00
O1004  O     0.83334   0.89346   0.53961   0.00000  Uiso   1.00
O1005  O     0.75828   0.83334   0.53046   0.00000  Uiso   1.00
O1006  O     0.90839   0.83333   0.46954   0.00000  Uiso   1.00
O1007  O     0.75828   0.83333   0.45127   0.00000  Uiso   1.00
O1008  O     0.90839   0.83334   0.54873   0.00000  Uiso   1.00
C1009  C     0.16659   0.08743   0.83318   0.00000  Uiso   1.00
C1010  C     0.17234   0.02181   0.87597   0.00000  Uiso   1.00
C1011  C     0.16671   0.29056   0.83350   0.00000  Uiso   1.00
C1012  C     0.16663   0.04278   0.83316   0.00000  Uiso   1.00
C1013  C     0.12860   0.14512   0.68483   0.00000  Uiso   1.00
C1014  C     0.20474   0.18821   0.98184   0.00000  Uiso   1.00
C1015  C     0.12918   0.14595   0.96881   0.00000  Uiso   1.00
C1016  C     0.20415   0.18738   0.69785   0.00000  Uiso   1.00
C1017  C     0.08336   0.12241   0.70168   0.00000  Uiso   1.00
C1018  C     0.05751   0.08690   0.66979   0.00000  Uiso   1.00
C1019  C     0.02034   0.06139   0.69467   0.00000  Uiso   1.00
C1020  C     0.16675   0.24590   0.83348   0.00000  Uiso   1.00
C1021  C     0.24997   0.21093   0.96499   0.00000  Uiso   1.00
C1022  C     0.27583   0.24643   0.99688   0.00000  Uiso   1.00
C1023  C     0.31301   0.27193   0.97201   0.00000  Uiso   1.00
C1024  C     0.06788   0.16660   0.82106   0.00000  Uiso   1.00
C1025  C     0.26545   0.16674   0.84560   0.00000  Uiso   1.00
C1026  C     0.01229   0.16659   0.81453   0.00000  Uiso   1.00
C1027  C     0.32104   0.16675   0.85214   0.00000  Uiso   1.00
C1028  C     0.16093   0.02079   0.79053   0.00000  Uiso   1.00
C1029  C     0.17240   0.31254   0.87614   0.00000  Uiso   1.00
C1030  C     0.16100   0.31152   0.79069   0.00000  Uiso   1.00
Cu1031 Cu    0.16667   0.16667   0.88022   0.00000  Uiso   1.00
Cu1032 Cu    0.16667   0.16666   0.78645   0.00000  Uiso   1.00
H1033  H     0.32493   0.16645   0.77870   0.00000  Uiso   1.00
H1034  H     0.32426   0.08142   0.70654   0.00000  Uiso   1.00
H1035  H     0.00004   0.03770   0.66995   0.00000  Uiso   1.00
H1036  H     0.03452   0.09945   0.97087   0.00000  Uiso   1.00
H1037  H     0.08751   0.06638   0.99306   0.00000  Uiso   1.00
H1038  H     0.09667   0.10838   0.73574   0.00000  Uiso   1.00
H1039  H     0.05315   0.14509   0.70556   0.00000  Uiso   1.00
H1040  H     0.00909   0.25189   0.96013   0.00000  Uiso   1.00
H1041  H     0.29142   0.28764   0.94114   0.00000  Uiso   1.00
H1042  H     0.33332   0.29561   0.99672   0.00000  Uiso   1.00
H1043  H     0.24585   0.26695   0.67361   0.00000  Uiso   1.00
H1044  H     0.00841   0.16688   0.88797   0.00000  Uiso   1.00
H1045  H     0.29883   0.23386   0.69580   0.00000  Uiso   1.00
H1046  H     0.28018   0.18824   0.96109   0.00000  Uiso   1.00
H1047  H     0.23666   0.22496   0.93093   0.00000  Uiso   1.00
H1048  H     0.15621   0.03641   0.75710   0.00000  Uiso   1.00
H1049  H     0.17712   0.29693   0.90957   0.00000  Uiso   1.00
H1050  H     0.15638   0.29510   0.75731   0.00000  Uiso   1.00
H1051  H     0.17695   0.03824   0.90936   0.00000  Uiso   1.00
H1052  H     0.09969   0.13018   0.94425   0.00000  Uiso   1.00
H1053  H     0.23364   0.20316   0.72242   0.00000  Uiso   1.00
H1054  H     0.04194   0.04568   0.72553   0.00000  Uiso   1.00
N1055  N     0.16668   0.16668   0.95069   0.00000  Uiso   1.00
N1056  N     0.16665   0.16666   0.71597   0.00000  Uiso   1.00
O1057  O     0.16666   0.10655   0.87291   0.00000  Uiso   1.00
O1058  O     0.16667   0.22678   0.79375   0.00000  Uiso   1.00
O1059  O     0.16666   0.10654   0.79372   0.00000  Uiso   1.00
O1060  O     0.16667   0.22679   0.87294   0.00000  Uiso   1.00
O1061  O     0.09161   0.16667   0.86379   0.00000  Uiso   1.00
O1062  O     0.24172   0.16666   0.80288   0.00000  Uiso   1.00
O1063  O     0.09161   0.16666   0.78460   0.00000  Uiso   1.00
O1064  O     0.24172   0.16667   0.88207   0.00000  Uiso   1.00
C1065  C     0.49992   0.08743   0.83318   0.00000  Uiso   1.00
C1066  C     0.50567   0.02181   0.87597   0.00000  Uiso   1.00
C1067  C     0.50004   0.29056   0.83350   0.00000  Uiso   1.00
C1068  C     0.49996   0.04278   0.83316   0.00000  Uiso   1.00
C1069  C     0.46193   0.14512   0.68483   0.00000  Uiso   1.00
C1070  C     0.53807   0.18821   0.98184   0.00000  Uiso   1.00
C1071  C     0.46252   0.14595   0.96881   0.00000  Uiso   1.00
C1072  C     0.53748   0.18738   0.69785   0.00000  Uiso   1.00
C1073  C     0.41669   0.12241   0.70168   0.00000  Uiso   1.00
C1074  C     0.39085   0.08690   0.66979   0.00000  Uiso   1.00
C1075  C     0.35368   0.06139   0.69467   0.00000  Uiso   1.00
C1076  C     0.50008   0.24590   0.83348   0.00000  Uiso   1.00
C1077  C     0.58331   0.21093   0.96499   0.00000  Uiso   1.00
C1078  C     0.60917   0.24643   0.99688   0.00000  Uiso   1.00
C1079  C     0.64634   0.27193   0.97201   0.00000  Uiso   1.00
C1080  C     0.40121   0.16660   0.82106   0.00000  Uiso   1.00
C1081  C     0.59878   0.16674   0.84560   0.00000  Uiso   1.00
C1082  C     0.34563   0.16659   0.81453   0.00000  Uiso   1.00
C1083  C     0.65437   0.16675   0.85214   0.00000  Uiso   1.00
C1084  C     0.49426   0.02079   0.79053   0.00000  Uiso   1.00
C1085  C     0.50574   0.31254   0.87614   0.00000  Uiso   1.00
C1086  C     0.49433   0.31152   0.79069   0.00000  Uiso   1.00
Cu1087 Cu    0.50000   0.16667   0.88022   0.00000  Uiso   1.00
Cu1088 Cu    0.50000   0.16666   0.78645   0.00000  Uiso   1.00
H1089  H     0.65826   0.16645   0.77870   0.00000  Uiso   1.00
H1090  H     0.65759   0.08142   0.70654   0.00000  Uiso   1.00
H1091  H     0.33337   0.03770   0.66995   0.00000  Uiso   1.00
H1092  H     0.36785   0.09945   0.97087   0.00000  Uiso   1.00
H1093  H     0.42084   0.06638   0.99306   0.00000  Uiso   1.00
H1094  H     0.43000   0.10838   0.73574   0.00000  Uiso   1.00
H1095  H     0.38648   0.14509   0.70556   0.00000  Uiso   1.00
H1096  H     0.34242   0.25189   0.96013   0.00000  Uiso   1.00
H1097  H     0.62475   0.28764   0.94114   0.00000  Uiso   1.00
H1098  H     0.66666   0.29561   0.99672   0.00000  Uiso   1.00
H1099  H     0.57918   0.26695   0.67361   0.00000  Uiso   1.00
H1100  H     0.34174   0.16688   0.88797   0.00000  Uiso   1.00
H1101  H     0.63216   0.23386   0.69580   0.00000  Uiso   1.00
H1102  H     0.61351   0.18824   0.96109   0.00000  Uiso   1.00
H1103  H     0.56999   0.22496   0.93093   0.00000  Uiso   1.00
H1104  H     0.48954   0.03641   0.75710   0.00000  Uiso   1.00
H1105  H     0.51046   0.29693   0.90957   0.00000  Uiso   1.00
H1106  H     0.48971   0.29510   0.75731   0.00000  Uiso   1.00
H1107  H     0.51029   0.03824   0.90936   0.00000  Uiso   1.00
H1108  H     0.43303   0.13018   0.94425   0.00000  Uiso   1.00
H1109  H     0.56697   0.20316   0.72242   0.00000  Uiso   1.00
H1110  H     0.37527   0.04568   0.72553   0.00000  Uiso   1.00
N1111  N     0.50001   0.16668   0.95069   0.00000  Uiso   1.00
N1112  N     0.49999   0.16666   0.71597   0.00000  Uiso   1.00
O1113  O     0.50000   0.10655   0.87291   0.00000  Uiso   1.00
O1114  O     0.50000   0.22678   0.79375   0.00000  Uiso   1.00
O1115  O     0.50000   0.10654   0.79372   0.00000  Uiso   1.00
O1116  O     0.50000   0.22679   0.87294   0.00000  Uiso   1.00
O1117  O     0.42495   0.16667   0.86379   0.00000  Uiso   1.00
O1118  O     0.57505   0.16666   0.80288   0.00000  Uiso   1.00
O1119  O     0.42494   0.16666   0.78460   0.00000  Uiso   1.00
O1120  O     0.57506   0.16667   0.88207   0.00000  Uiso   1.00
C1121  C     0.83325   0.08743   0.83318   0.00000  Uiso   1.00
C1122  C     0.83900   0.02181   0.87597   0.00000  Uiso   1.00
C1123  C     0.83337   0.29056   0.83350   0.00000  Uiso   1.00
C1124  C     0.83329   0.04278   0.83316   0.00000  Uiso   1.00
C1125  C     0.79527   0.14512   0.68483   0.00000  Uiso   1.00
C1126  C     0.87140   0.18821   0.98184   0.00000  Uiso   1.00
C1127  C     0.79585   0.14595   0.96881   0.00000  Uiso   1.00
C1128  C     0.87082   0.18738   0.69785   0.00000  Uiso   1.00
C1129  C     0.75003   0.12241   0.70168   0.00000  Uiso   1.00
C1130  C     0.72418   0.08690   0.66979   0.00000  Uiso   1.00
C1131  C     0.68701   0.06139   0.69467   0.00000  Uiso   1.00
C1132  C     0.83341   0.24590   0.83348   0.00000  Uiso   1.00
C1133  C     0.91664   0.21093   0.96499   0.00000  Uiso   1.00
C1134  C     0.94250   0.24643   0.99688   0.00000  Uiso   1.00
C1135  C     0.97968   0.27193   0.97201   0.00000  Uiso   1.00
C1136  C     0.73455   0.16660   0.82106   0.00000  Uiso   1.00
C1137  C     0.93212   0.16674   0.84560   0.00000  Uiso   1.00
C1138  C     0.67896   0.16659   0.81453   0.00000  Uiso   1.00
C1139  C     0.98771   0.16675   0.85214   0.00000  Uiso   1.00
C1140  C     0.82760   0.02079   0.79053   0.00000  Uiso   1.00
C1141  C     0.83907   0.31254   0.87614   0.00000  Uiso   1.00
C1142  C     0.82766   0.31152   0.79069   0.00000  Uiso   1.00
Cu1143 Cu    0.83333   0.16667   0.88022   0.00000  Uiso   1.00
Cu1144 Cu    0.83333   0.16666   0.78645   0.00000  Uiso   1.00
H1145  H     0.99159   0.16645   0.77870   0.00000  Uiso   1.00
H1146  H     0.99093   0.08142   0.70654   0.00000  Uiso   1.00
H1147  H     0.66670   0.03770   0.66995   0.00000  Uiso   1.00
H1148  H     0.70118   0.09945   0.97087   0.00000  Uiso   1.00
H1149  H     0.75417   0.06638   0.99306   0.00000  Uiso   1.00
H1150  H     0.76334   0.10838   0.73574   0.00000  Uiso   1.00
H1151  H     0.71982   0.14509   0.70556   0.00000  Uiso   1.00
H1152  H     0.67575   0.25189   0.96013   0.00000  Uiso   1.00
H1153  H     0.95808   0.28764   0.94114   0.00000  Uiso   1.00
H1154  H     0.99999   0.29561   0.99672   0.00000  Uiso   1.00
H1155  H     0.91251   0.26695   0.67361   0.00000  Uiso   1.00
H1156  H     0.67507   0.16688   0.88797   0.00000  Uiso   1.00
H1157  H     0.96549   0.23386   0.69580   0.00000  Uiso   1.00
H1158  H     0.94685   0.18824   0.96109   0.00000  Uiso   1.00
H1159  H     0.90333   0.22496   0.93093   0.00000  Uiso   1.00
H1160  H     0.82288   0.03641   0.75710   0.00000  Uiso   1.00
H1161  H     0.84379   0.29693   0.90957   0.00000  Uiso   1.00
H1162  H     0.82305   0.29510   0.75731   0.00000  Uiso   1.00
H1163  H     0.84362   0.03824   0.90936   0.00000  Uiso   1.00
H1164  H     0.76636   0.13018   0.94425   0.00000  Uiso   1.00
H1165  H     0.90030   0.20316   0.72242   0.00000  Uiso   1.00
H1166  H     0.70861   0.04568   0.72553   0.00000  Uiso   1.00
N1167  N     0.83335   0.16668   0.95069   0.00000  Uiso   1.00
N1168  N     0.83332   0.16666   0.71597   0.00000  Uiso   1.00
O1169  O     0.83333   0.10655   0.87291   0.00000  Uiso   1.00
O1170  O     0.83334   0.22678   0.79375   0.00000  Uiso   1.00
O1171  O     0.83333   0.10654   0.79372   0.00000  Uiso   1.00
O1172  O     0.83334   0.22679   0.87294   0.00000  Uiso   1.00
O1173  O     0.75828   0.16667   0.86379   0.00000  Uiso   1.00
O1174  O     0.90839   0.16666   0.80288   0.00000  Uiso   1.00
O1175  O     0.75828   0.16666   0.78460   0.00000  Uiso   1.00
O1176  O     0.90839   0.16667   0.88207   0.00000  Uiso   1.00
C1177  C     0.16659   0.42077   0.83318   0.00000  Uiso   1.00
C1178  C     0.17234   0.35514   0.87597   0.00000  Uiso   1.00
C1179  C     0.16671   0.62389   0.83350   0.00000  Uiso   1.00
C1180  C     0.16663   0.37611   0.83316   0.00000  Uiso   1.00
C1181  C     0.12860   0.47846   0.68483   0.00000  Uiso   1.00
C1182  C     0.20474   0.52154   0.98184   0.00000  Uiso   1.00
C1183  C     0.12918   0.47928   0.96881   0.00000  Uiso   1.00
C1184  C     0.20415   0.52072   0.69785   0.00000  Uiso   1.00
C1185  C     0.08336   0.45574   0.70168   0.00000  Uiso   1.00
C1186  C     0.05751   0.42023   0.66979   0.00000  Uiso   1.00
C1187  C     0.02034   0.39473   0.69467   0.00000  Uiso   1.00
C1188  C     0.16675   0.57923   0.83348   0.00000  Uiso   1.00
C1189  C     0.24997   0.54426   0.96499   0.00000  Uiso   1.00
C1190  C     0.27583   0.57976   0.99688   0.00000  Uiso   1.00
C1191  C     0.31301   0.60526   0.97201   0.00000  Uiso   1.00
C1192  C     0.06788   0.49993   0.82106   0.00000  Uiso   1.00
C1193  C     0.26545   0.50007   0.84560   0.00000  Uiso   1.00
C1194  C     0.01229   0.49992   0.81453   0.00000  Uiso   1.00
C1195  C     0.32104   0.50008   0.85214   0.00000  Uiso   1.00
C1196  C     0.16093   0.35413   0.79053   0.00000  Uiso   1.00
C1197  C     0.17240   0.64587   0.87614   0.00000  Uiso   1.00
C1198  C     0.16100   0.64486   0.79069   0.00000  Uiso   1.00
Cu1199 Cu    0.16667   0.50001   0.88022   0.00000  Uiso   1.00
Cu1200 Cu    0.16667   0.49999   0.78645   0.00000  Uiso   1.00
H1201  H     0.32493   0.49979   0.77870   0.00000  Uiso   1.00
H1202  H     0.32426   0.41476   0.70654   0.00000  Uiso   1.00
H1203  H     0.00004   0.37104   0.66995   0.00000  Uiso   1.00
H1204  H     0.03452   0.43279   0.97087   0.00000  Uiso   1.00
H1205  H     0.08751   0.39971   0.99306   0.00000  Uiso   1.00
H1206  H     0.09667   0.44171   0.73574   0.00000  Uiso   1.00
H1207  H     0.05315   0.47842   0.70556   0.00000  Uiso   1.00
H1208  H     0.00909   0.58522   0.96013   0.00000  Uiso   1.00
H1209  H     0.29142   0.62097   0.94114   0.00000  Uiso   1.00
H1210  H     0.33332   0.62895   0.99672   0.00000  Uiso   1.00
H1211  H     0.24585   0.60029   0.67361   0.00000  Uiso   1.00
H1212  H     0.00841   0.50021   0.88797   0.00000  Uiso   1.00
H1213  H     0.29883   0.56720   0.69580   0.00000  Uiso   1.00
H1214  H     0.28018   0.52157   0.96109   0.00000  Uiso   1.00
H1215  H     0.23666   0.55829   0.93093   0.00000  Uiso   1.00
H1216  H     0.15621   0.36974   0.75710   0.00000  Uiso   1.00
H1217  H     0.17712   0.63026   0.90957   0.00000  Uiso   1.00
H1218  H     0.15638   0.62843   0.75731   0.00000  Uiso   1.00
H1219  H     0.17695   0.37157   0.90936   0.00000  Uiso   1.00
H1220  H     0.09969   0.46351   0.94425   0.00000  Uiso   1.00
H1221  H     0.23364   0.53649   0.72242   0.00000  Uiso   1.00
H1222  H     0.04194   0.37902   0.72553   0.00000  Uiso   1.00
N1223  N     0.16668   0.50001   0.95069   0.00000  Uiso   1.00
N1224  N     0.16665   0.49999   0.71597   0.00000  Uiso   1.00
O1225  O     0.16666   0.43989   0.87291   0.00000  Uiso   1.00
O1226  O     0.16667   0.56011   0.79375   0.00000  Uiso   1.00
O1227  O     0.16666   0.43988   0.79372   0.00000  Uiso   1.00
O1228  O     0.16667   0.56012   0.87294   0.00000  Uiso   1.00
O1229  O     0.09161   0.50000   0.86379   0.00000  Uiso   1.00
O1230  O     0.24172   0.50000   0.80288   0.00000  Uiso   1.00
O1231  O     0.09161   0.49999   0.78460   0.00000  Uiso   1.00
O1232  O     0.24172   0.50001   0.88207   0.00000  Uiso   1.00
C1233  C     0.49992   0.42077   0.83318   0.00000  Uiso   1.00
C1234  C     0.50567   0.35514   0.87597   0.00000  Uiso   1.00
C1235  C     0.50004   0.62389   0.83350   0.00000  Uiso   1.00
C1236  C     0.49996   0.37611   0.83316   0.00000  Uiso   1.00
C1237  C     0.46193   0.47846   0.68483   0.00000  Uiso   1.00
C1238  C     0.53807   0.52154   0.98184   0.00000  Uiso   1.00
C1239  C     0.46252   0.47928   0.96881   0.00000  Uiso   1.00
C1240  C     0.53748   0.52072   0.69785   0.00000  Uiso   1.00
C1241  C     0.41669   0.45574   0.70168   0.00000  Uiso   1.00
C1242  C     0.39085   0.42023   0.66979   0.00000  Uiso   1.00
C1243  C     0.35368   0.39473   0.69467   0.00000  Uiso   1.00
C1244  C     0.50008   0.57923   0.83348   0.00000  Uiso   1.00
C1245  C     0.58331   0.54426   0.96499   0.00000  Uiso   1.00
C1246  C     0.60917   0.57976   0.99688   0.00000  Uiso   1.00
C1247  C     0.64634   0.60526   0.97201   0.00000  Uiso   1.00
C1248  C     0.40121   0.49993   0.82106   0.00000  Uiso   1.00
C1249  C     0.59878   0.50007   0.84560   0.00000  Uiso   1.00
C1250  C     0.34563   0.49992   0.81453   0.00000  Uiso   1.00
C1251  C     0.65437   0.50008   0.85214   0.00000  Uiso   1.00
C1252  C     0.49426   0.35413   0.79053   0.00000  Uiso   1.00
C1253  C     0.50574   0.64587   0.87614   0.00000  Uiso   1.00
C1254  C     0.49433   0.64486   0.79069   0.00000  Uiso   1.00
Cu1255 Cu    0.50000   0.50001   0.88022   0.00000  Uiso   1.00
Cu1256 Cu    0.50000   0.49999   0.78645   0.00000  Uiso   1.00
H1257  H     0.65826   0.49979   0.77870   0.00000  Uiso   1.00
H1258  H     0.65759   0.41476   0.70654   0.00000  Uiso   1.00
H1259  H     0.33337   0.37104   0.66995   0.00000  Uiso   1.00
H1260  H     0.36785   0.43279   0.97087   0.00000  Uiso   1.00
H1261  H     0.42084   0.39971   0.99306   0.00000  Uiso   1.00
H1262  H     0.43000   0.44171   0.73574   0.00000  Uiso   1.00
H1263  H     0.38648   0.47842   0.70556   0.00000  Uiso   1.00
H1264  H     0.34242   0.58522   0.96013   0.00000  Uiso   1.00
H1265  H     0.62475   0.62097   0.94114   0.00000  Uiso   1.00
H1266  H     0.66666   0.62895   0.99672   0.00000  Uiso   1.00
H1267  H     0.57918   0.60029   0.67361   0.00000  Uiso   1.00
H1268  H     0.34174   0.50021   0.88797   0.00000  Uiso   1.00
H1269  H     0.63216   0.56720   0.69580   0.00000  Uiso   1.00
H1270  H     0.61351   0.52157   0.96109   0.00000  Uiso   1.00
H1271  H     0.56999   0.55829   0.93093   0.00000  Uiso   1.00
H1272  H     0.48954   0.36974   0.75710   0.00000  Uiso   1.00
H1273  H     0.51046   0.63026   0.90957   0.00000  Uiso   1.00
H1274  H     0.48971   0.62843   0.75731   0.00000  Uiso   1.00
H1275  H     0.51029   0.37157   0.90936   0.00000  Uiso   1.00
H1276  H     0.43303   0.46351   0.94425   0.00000  Uiso   1.00
H1277  H     0.56697   0.53649   0.72242   0.00000  Uiso   1.00
H1278  H     0.37527   0.37902   0.72553   0.00000  Uiso   1.00
N1279  N     0.50001   0.50001   0.95069   0.00000  Uiso   1.00
N1280  N     0.49999   0.49999   0.71597   0.00000  Uiso   1.00
O1281  O     0.50000   0.43989   0.87291   0.00000  Uiso   1.00
O1282  O     0.50000   0.56011   0.79375   0.00000  Uiso   1.00
O1283  O     0.50000   0.43988   0.79372   0.00000  Uiso   1.00
O1284  O     0.50000   0.56012   0.87294   0.00000  Uiso   1.00
O1285  O     0.42495   0.50000   0.86379   0.00000  Uiso   1.00
O1286  O     0.57505   0.50000   0.80288   0.00000  Uiso   1.00
O1287  O     0.42494   0.49999   0.78460   0.00000  Uiso   1.00
O1288  O     0.57506   0.50001   0.88207   0.00000  Uiso   1.00
C1289  C     0.83325   0.42077   0.83318   0.00000  Uiso   1.00
C1290  C     0.83900   0.35514   0.87597   0.00000  Uiso   1.00
C1291  C     0.83337   0.62389   0.83350   0.00000  Uiso   1.00
C1292  C     0.83329   0.37611   0.83316   0.00000  Uiso   1.00
C1293  C     0.79527   0.47846   0.68483   0.00000  Uiso   1.00
C1294  C     0.87140   0.52154   0.98184   0.00000  Uiso   1.00
C1295  C     0.79585   0.47928   0.96881   0.00000  Uiso   1.00
C1296  C     0.87082   0.52072   0.69785   0.00000  Uiso   1.00
C1297  C     0.75003   0.45574   0.70168   0.00000  Uiso   1.00
C1298  C     0.72418   0.42023   0.66979   0.00000  Uiso   1.00
C1299  C     0.68701   0.39473   0.69467   0.00000  Uiso   1.00
C1300  C     0.83341   0.57923   0.83348   0.00000  Uiso   1.00
C1301  C     0.91664   0.54426   0.96499   0.00000  Uiso   1.00
C1302  C     0.94250   0.57976   0.99688   0.00000  Uiso   1.00
C1303  C     0.97968   0.60526   0.97201   0.00000  Uiso   1.00
C1304  C     0.73455   0.49993   0.82106   0.00000  Uiso   1.00
C1305  C     0.93212   0.50007   0.84560   0.00000  Uiso   1.00
C1306  C     0.67896   0.49992   0.81453   0.00000  Uiso   1.00
C1307  C     0.98771   0.50008   0.85214   0.00000  Uiso   1.00
C1308  C     0.82760   0.35413   0.79053   0.00000  Uiso   1.00
C1309  C     0.83907   0.64587   0.87614   0.00000  Uiso   1.00
C1310  C     0.82766   0.64486   0.79069   0.00000  Uiso   1.00
Cu1311 Cu    0.83333   0.50001   0.88022   0.00000  Uiso   1.00
Cu1312 Cu    0.83333   0.49999   0.78645   0.00000  Uiso   1.00
H1313  H     0.99159   0.49979   0.77870   0.00000  Uiso   1.00
H1314  H     0.99093   0.41476   0.70654   0.00000  Uiso   1.00
H1315  H     0.66670   0.37104   0.66995   0.00000  Uiso   1.00
H1316  H     0.70118   0.43279   0.97087   0.00000  Uiso   1.00
H1317  H     0.75417   0.39971   0.99306   0.00000  Uiso   1.00
H1318  H     0.76334   0.44171   0.73574   0.00000  Uiso   1.00
H1319  H     0.71982   0.47842   0.70556   0.00000  Uiso   1.00
H1320  H     0.67575   0.58522   0.96013   0.00000  Uiso   1.00
H1321  H     0.95808   0.62097   0.94114   0.00000  Uiso   1.00
H1322  H     0.99999   0.62895   0.99672   0.00000  Uiso   1.00
H1323  H     0.91251   0.60029   0.67361   0.00000  Uiso   1.00
H1324  H     0.67507   0.50021   0.88797   0.00000  Uiso   1.00
H1325  H     0.96549   0.56720   0.69580   0.00000  Uiso   1.00
H1326  H     0.94685   0.52157   0.96109   0.00000  Uiso   1.00
H1327  H     0.90333   0.55829   0.93093   0.00000  Uiso   1.00
H1328  H     0.82288   0.36974   0.75710   0.00000  Uiso   1.00
H1329  H     0.84379   0.63026   0.90957   0.00000  Uiso   1.00
H1330  H     0.82305   0.62843   0.75731   0.00000  Uiso   1.00
H1331  H     0.84362   0.37157   0.90936   0.00000  Uiso   1.00
H1332  H     0.76636   0.46351   0.94425   0.00000  Uiso   1.00
H1333  H     0.90030   0.53649   0.72242   0.00000  Uiso   1.00
H1334  H     0.70861   0.37902   0.72553   0.00000  Uiso   1.00
N1335  N     0.83335   0.50001   0.95069   0.00000  Uiso   1.00
N1336  N     0.83332   0.49999   0.71597   0.00000  Uiso   1.00
O1337  O     0.83333   0.43989   0.87291   0.00000  Uiso   1.00
O1338  O     0.83334   0.56011   0.79375   0.00000  Uiso   1.00
O1339  O     0.83333   0.43988   0.79372   0.00000  Uiso   1.00
O1340  O     0.83334   0.56012   0.87294   0.00000  Uiso   1.00
O1341  O     0.75828   0.50000   0.86379   0.00000  Uiso   1.00
O1342  O     0.90839   0.50000   0.80288   0.00000  Uiso   1.00
O1343  O     0.75828   0.49999   0.78460   0.00000  Uiso   1.00
O1344  O     0.90839   0.50001   0.88207   0.00000  Uiso   1.00
C1345  C     0.16659   0.75410   0.83318   0.00000  Uiso   1.00
C1346  C     0.17234   0.68848   0.87597   0.00000  Uiso   1.00
C1347  C     0.16671   0.95722   0.83350   0.00000  Uiso   1.00
C1348  C     0.16663   0.70944   0.83316   0.00000  Uiso   1.00
C1349  C     0.12860   0.81179   0.68483   0.00000  Uiso   1.00
C1350  C     0.20474   0.85488   0.98184   0.00000  Uiso   1.00
C1351  C     0.12918   0.81262   0.96881   0.00000  Uiso   1.00
C1352  C     0.20415   0.85405   0.69785   0.00000  Uiso   1.00
C1353  C     0.08336   0.78907   0.70168   0.00000  Uiso   1.00
C1354  C     0.05751   0.75356   0.66979   0.00000  Uiso   1.00
C1355  C     0.02034   0.72806   0.69467   0.00000  Uiso   1.00
C1356  C     0.16675   0.91257   0.83348   0.00000  Uiso   1.00
C1357  C     0.24997   0.87759   0.96499   0.00000  Uiso   1.00
C1358  C     0.27583   0.91309   0.99688   0.00000  Uiso   1.00
C1359  C     0.31301   0.93859   0.97201   0.00000  Uiso   1.00
C1360  C     0.06788   0.83326   0.82106   0.00000  Uiso   1.00
C1361  C     0.26545   0.83340   0.84560   0.00000  Uiso   1.00
C1362  C     0.01229   0.83325   0.81453   0.00000  Uiso   1.00
C1363  C     0.32104   0.83341   0.85214   0.00000  Uiso   1.00
C1364  C     0.16093   0.68746   0.79053   0.00000  Uiso   1.00
C1365  C     0.17240   0.97921   0.87614   0.00000  Uiso   1.00
C1366  C     0.16100   0.97819   0.79069   0.00000  Uiso   1.00
Cu1367 Cu    0.16667   0.83334   0.88022   0.00000  Uiso   1.00
Cu1368 Cu    0.16667   0.83333   0.78645   0.00000  Uiso   1.00
H1369  H     0.32493   0.83312   0.77870   0.00000  Uiso   1.00
H1370  H     0.32426   0.74809   0.70654   0.00000  Uiso   1.00
H1371  H     0.00004   0.70437   0.66995   0.00000  Uiso   1.00
H1372  H     0.03452   0.76612   0.97087   0.00000  Uiso   1.00
H1373  H     0.08751   0.73304   0.99306   0.00000  Uiso   1.00
H1374  H     0.09667   0.77505   0.73574   0.00000  Uiso   1.00
H1375  H     0.05315   0.81175   0.70556   0.00000  Uiso   1.00
H1376  H     0.00909   0.91856   0.96013   0.00000  Uiso   1.00
H1377  H     0.29142   0.95430   0.94114   0.00000  Uiso   1.00
H1378  H     0.33332   0.96228   0.99672   0.00000  Uiso   1.00
H1379  H     0.24585   0.93362   0.67361   0.00000  Uiso   1.00
H1380  H     0.00841   0.83355   0.88797   0.00000  Uiso   1.00
H1381  H     0.29883   0.90053   0.69580   0.00000  Uiso   1.00
H1382  H     0.28018   0.85491   0.96109   0.00000  Uiso   1.00
H1383  H     0.23666   0.89162   0.93093   0.00000  Uiso   1.00
H1384  H     0.15621   0.70307   0.75710   0.00000  Uiso   1.00
H1385  H     0.17712   0.96359   0.90957   0.00000  Uiso   1.00
H1386  H     0.15638   0.96176   0.75731   0.00000  Uiso   1.00
H1387  H     0.17695   0.70490   0.90936   0.00000  Uiso   1.00
H1388  H     0.09969   0.79684   0.94425   0.00000  Uiso   1.00
H1389  H     0.23364   0.86983   0.72242   0.00000  Uiso   1.00
H1390  H     0.04194   0.71235   0.72553   0.00000  Uiso   1.00
N1391  N     0.16668   0.83334   0.95069   0.00000  Uiso   1.00
N1392  N     0.16665   0.83332   0.71597   0.00000  Uiso   1.00
O1393  O     0.16666   0.77322   0.87291   0.00000  Uiso   1.00
O1394  O     0.16667   0.89345   0.79375   0.00000  Uiso   1.00
O1395  O     0.16666   0.77321   0.79372   0.00000  Uiso   1.00
O1396  O     0.16667   0.89346   0.87294   0.00000  Uiso   1.00
O1397  O     0.09161   0.83334   0.86379   0.00000  Uiso   1.00
O1398  O     0.24172   0.83333   0.80288   0.00000  Uiso   1.00
O1399  O     0.09161   0.83333   0.78460   0.00000  Uiso   1.00
O1400  O     0.24172   0.83334   0.88207   0.00000  Uiso   1.00
C1401  C     0.49992   0.75410   0.83318   0.00000  Uiso   1.00
C1402  C     0.50567   0.68848   0.87597   0.00000  Uiso   1.00
C1403  C     0.50004   0.95722   0.83350   0.00000  Uiso   1.00
C1404  C     0.49996   0.70944   0.83316   0.00000  Uiso   1.00
C1405  C     0.46193   0.81179   0.68483   0.00000  Uiso   1.00
C1406  C     0.53807   0.85488   0.98184   0.00000  Uiso   1.00
C1407  C     0.46252   0.81262   0.96881   0.00000  Uiso   1.00
C1408  C     0.53748   0.85405   0.69785   0.00000  Uiso   1.00
C1409  C     0.41669   0.78907   0.70168   0.00000  Uiso   1.00
C1410  C     0.39085   0.75356   0.66979   0.00000  Uiso   1.00
C1411  C     0.35368   0.72806   0.69467   0.00000  Uiso   1.00
C1412  C     0.50008   0.91257   0.83348   0.00000  Uiso   1.00
C1413  C     0.58331   0.87759   0.96499   0.00000  Uiso   1.00
C1414  C     0.60917   0.91309   0.99688   0.00000  Uiso   1.00
C1415  C     0.64634   0.93859   0.97201   0.00000  Uiso   1.00
C1416  C     0.40121   0.83326   0.82106   0.00000  Uiso   1.00
C1417  C     0.59878   0.83340   0.84560   0.00000  Uiso   1.00
C1418  C     0.34563   0.83325   0.81453   0.00000  Uiso   1.00
C1419  C     0.65437   0.83341   0.85214   0.00000  Uiso   1.00
C1420  C     0.49426   0.68746   0.79053   0.00000  Uiso   1.00
C1421  C     0.50574   0.97921   0.87614   0.00000  Uiso   1.00
C1422  C     0.49433   0.97819   0.79069   0.00000  Uiso   1.00
Cu1423 Cu    0.50000   0.83334   0.88022   0.00000  Uiso   1.00
Cu1424 Cu    0.50000   0.83333   0.78645   0.00000  Uiso   1.00
H1425  H     0.65826   0.83312   0.77870   0.00000  Uiso   1.00
H1426  H     0.65759   0.74809   0.70654   0.00000  Uiso   1.00
H1427  H     0.33337   0.70437   0.66995   0.00000  Uiso   1.00
H1428  H     0.36785   0.76612   0.97087   0.00000  Uiso   1.00
H1429  H     0.42084   0.73304   0.99306   0.00000  Uiso   1.00
H1430  H     0.43000   0.77505   0.73574   0.00000  Uiso   1.00
H1431  H     0.38648   0.81175   0.70556   0.00000  Uiso   1.00
H1432  H     0.34242   0.91856   0.96013   0.00000  Uiso   1.00
H1433  H     0.62475   0.95430   0.94114   0.00000  Uiso   1.00
H1434  H     0.66666   0.96228   0.99672   0.00000  Uiso   1.00
H1435  H     0.57918   0.93362   0.67361   0.00000  Uiso   1.00
H1436  H     0.34174   0.83355   0.88797   0.00000  Uiso   1.00
H1437  H     0.63216   0.90053   0.69580   0.00000  Uiso   1.00
H1438  H     0.61351   0.85491   0.96109   0.00000  Uiso   1.00
H1439  H     0.56999   0.89162   0.93093   0.00000  Uiso   1.00
H1440  H     0.48954   0.70307   0.75710   0.00000  Uiso   1.00
H1441  H     0.51046   0.96359   0.90957   0.00000  Uiso   1.00
H1442  H     0.48971   0.96176   0.75731   0.00000  Uiso   1.00
H1443  H     0.51029   0.70490   0.90936   0.00000  Uiso   1.00
H1444  H     0.43303   0.79684   0.94425   0.00000  Uiso   1.00
H1445  H     0.56697   0.86983   0.72242   0.00000  Uiso   1.00
H1446  H     0.37527   0.71235   0.72553   0.00000  Uiso   1.00
N1447  N     0.50001   0.83334   0.95069   0.00000  Uiso   1.00
N1448  N     0.49999   0.83332   0.71597   0.00000  Uiso   1.00
O1449  O     0.50000   0.77322   0.87291   0.00000  Uiso   1.00
O1450  O     0.50000   0.89345   0.79375   0.00000  Uiso   1.00
O1451  O     0.50000   0.77321   0.79372   0.00000  Uiso   1.00
O1452  O     0.50000   0.89346   0.87294   0.00000  Uiso   1.00
O1453  O     0.42495   0.83334   0.86379   0.00000  Uiso   1.00
O1454  O     0.57505   0.83333   0.80288   0.00000  Uiso   1.00
O1455  O     0.42494   0.83333   0.78460   0.00000  Uiso   1.00
O1456  O     0.57506   0.83334   0.88207   0.00000  Uiso   1.00
C1457  C     0.83325   0.75410   0.83318   0.00000  Uiso   1.00
C1458  C     0.83900   0.68848   0.87597   0.00000  Uiso   1.00
C1459  C     0.83337   0.95722   0.83350   0.00000  Uiso   1.00
C1460  C     0.83329   0.70944   0.83316   0.00000  Uiso   1.00
C1461  C     0.79527   0.81179   0.68483   0.00000  Uiso   1.00
C1462  C     0.87140   0.85488   0.98184   0.00000  Uiso   1.00
C1463  C     0.79585   0.81262   0.96881   0.00000  Uiso   1.00
C1464  C     0.87082   0.85405   0.69785   0.00000  Uiso   1.00
C1465  C     0.75003   0.78907   0.70168   0.00000  Uiso   1.00
C1466  C     0.72418   0.75356   0.66979   0.00000  Uiso   1.00
C1467  C     0.68701   0.72806   0.69467   0.00000  Uiso   1.00
C1468  C     0.83341   0.91257   0.83348   0.00000  Uiso   1.00
C1469  C     0.91664   0.87759   0.96499   0.00000  Uiso   1.00
C1470  C     0.94250   0.91309   0.99688   0.00000  Uiso   1.00
C1471  C     0.97968   0.93859   0.97201   0.00000  Uiso   1.00
C1472  C     0.73455   0.83326   0.82106   0.00000  Uiso   1.00
C1473  C     0.93212   0.83340   0.84560   0.00000  Uiso   1.00
C1474  C     0.67896   0.83325   0.81453   0.00000  Uiso   1.00
C1475  C     0.98771   0.83341   0.85214   0.00000  Uiso   1.00
C1476  C     0.82760   0.68746   0.79053   0.00000  Uiso   1.00
C1477  C     0.83907   0.97921   0.87614   0.00000  Uiso   1.00
C1478  C     0.82766   0.97819   0.79069   0.00000  Uiso   1.00
Cu1479 Cu    0.83333   0.83334   0.88022   0.00000  Uiso   1.00
Cu1480 Cu    0.83333   0.83333   0.78645   0.00000  Uiso   1.00
H1481  H     0.99159   0.83312   0.77870   0.00000  Uiso   1.00
H1482  H     0.99093   0.74809   0.70654   0.00000  Uiso   1.00
H1483  H     0.66670   0.70437   0.66995   0.00000  Uiso   1.00
H1484  H     0.70118   0.76612   0.97087   0.00000  Uiso   1.00
H1485  H     0.75417   0.73304   0.99306   0.00000  Uiso   1.00
H1486  H     0.76334   0.77505   0.73574   0.00000  Uiso   1.00
H1487  H     0.71982   0.81175   0.70556   0.00000  Uiso   1.00
H1488  H     0.67575   0.91856   0.96013   0.00000  Uiso   1.00
H1489  H     0.95808   0.95430   0.94114   0.00000  Uiso   1.00
H1490  H     0.99999   0.96228   0.99672   0.00000  Uiso   1.00
H1491  H     0.91251   0.93362   0.67361   0.00000  Uiso   1.00
H1492  H     0.67507   0.83355   0.88797   0.00000  Uiso   1.00
H1493  H     0.96549   0.90053   0.69580   0.00000  Uiso   1.00
H1494  H     0.94685   0.85491   0.96109   0.00000  Uiso   1.00
H1495  H     0.90333   0.89162   0.93093   0.00000  Uiso   1.00
H1496  H     0.82288   0.70307   0.75710   0.00000  Uiso   1.00
H1497  H     0.84379   0.96359   0.90957   0.00000  Uiso   1.00
H1498  H     0.82305   0.96176   0.75731   0.00000  Uiso   1.00
H1499  H     0.84362   0.70490   0.90936   0.00000  Uiso   1.00
H1500  H     0.76636   0.79684   0.94425   0.00000  Uiso   1.00
H1501  H     0.90030   0.86983   0.72242   0.00000  Uiso   1.00
H1502  H     0.70861   0.71235   0.72553   0.00000  Uiso   1.00
N1503  N     0.83335   0.83334   0.95069   0.00000  Uiso   1.00
N1504  N     0.83332   0.83332   0.71597   0.00000  Uiso   1.00
O1505  O     0.83333   0.77322   0.87291   0.00000  Uiso   1.00
O1506  O     0.83334   0.89345   0.79375   0.00000  Uiso   1.00
O1507  O     0.83333   0.77321   0.79372   0.00000  Uiso   1.00
O1508  O     0.83334   0.89346   0.87294   0.00000  Uiso   1.00
O1509  O     0.75828   0.83334   0.86379   0.00000  Uiso   1.00
O1510  O     0.90839   0.83333   0.80288   0.00000  Uiso   1.00
O1511  O     0.75828   0.83333   0.78460   0.00000  Uiso   1.00
O1512  O     0.90839   0.83334   0.88207   0.00000  Uiso   1.00
loop_
_geom_bond_atom_site_label_1
_geom_bond_atom_site_label_2
_geom_bond_distance
_geom_bond_site_symmetry_2
_ccdc_geom_bond_type
C1     C4      1.450   .     S
C1     O51     1.300   .     A
C1     O49     1.296   .     A
C2     C4      1.403   .     A
C2     H43     1.083   .     S
C2     C357    1.384   1_545 S
C3     C21     1.400   .     A
C3     C22     1.403   .     A
C3     C12     1.450   .     S
C4     C20     1.400   .     A
C5     C9      1.524   .     S
C5     N48     1.399   .     A
C5     C1015   1.424   1_554 S
C6     N47     1.399   .     A
C6     C13     1.524   .     S
C6     C512    1.424   .     S
C7     H44     1.077   .     S
C7     N47     1.350   .     A
C7     C509    1.424   .     S
C8     N48     1.350   .     A
C8     H45     1.077   .     S
C8     C1014   1.424   1_554 S
C9     C10     1.542   .     S
C9     H30     1.095   .     S
C9     H31     1.111   .     S
C10    C11     1.528   .     S
C10    H1036   1.111   1_554 S
C10    H1037   1.112   1_554 S
C11    H27     1.110   .     S
C11    H46     1.111   .     S
C11    H138    1.111   1_455 S
C12    O50     1.296   .     A
C12    O52     1.300   .     A
C13    C14     1.542   .     S
C13    H38     1.111   .     S
C13    H39     1.095   .     S
C14    C15     1.528   .     S
C14    H539    1.112   .     S
C14    H541    1.111   .     S
C15    H34     1.110   .     S
C15    H33     1.111   .     S
C15    H88     1.111   .     S
C16    O55     1.300   .     A
C16    O53     1.288   .     A
C16    C18     1.437   .     S
C17    O56     1.300   .     A
C17    C19     1.437   .     S
C17    O54     1.288   .     A
C18    C131    1.343   1_455 S
C18    H137    1.087   1_455 S
C19    C74     1.343   .     S
C19    H92     1.087   .     S
C20    H40     1.083   .     S
C20    C358    1.384   1_545 S
C21    H41     1.083   .     S
C21    C170    1.384   .     S
C22    H42     1.083   .     S
C22    C188    1.384   .     S
Cu23   Cu24    2.700   .     S
Cu23   O52     1.966   .     S
Cu23   O53     1.946   .     S
Cu23   O49     1.962   .     S
Cu23   O56     1.956   .     S
Cu23   N47     2.029   .     S
Cu24   O51     1.966   .     S
Cu24   O55     1.956   .     S
Cu24   O50     1.962   .     S
Cu24   O54     1.946   .     S
Cu24   N48     2.029   .     S
H25    C74     1.087   .     S
H26    C67     1.111   .     S
H28    C514    1.111   .     S
H29    C514    1.112   .     S
H32    C127    1.111   1_455 S
H35    C1022   1.112   1_554 S
H36    C131    1.087   1_455 S
H37    C1022   1.111   1_554 S
C57    C60     1.450   .     S
C57    O107    1.300   .     A
C57    O105    1.296   .     A
C58    C60     1.403   .     A
C58    H99     1.083   .     S
C58    C413    1.384   1_545 S
C59    C77     1.400   .     A
C59    C78     1.403   .     A
C59    C68     1.450   .     S
C60    C76     1.400   .     A
C61    C65     1.524   .     S
C61    N104    1.399   .     A
C61    C1071   1.424   1_554 S
C62    N103    1.399   .     A
C62    C69     1.524   .     S
C62    C568    1.424   .     S
C63    H100    1.077   .     S
C63    N103    1.350   .     A
C63    C565    1.424   .     S
C64    N104    1.350   .     A
C64    H101    1.077   .     S
C64    C1070   1.424   1_554 S
C65    C66     1.542   .     S
C65    H86     1.095   .     S
C65    H87     1.111   .     S
C66    C67     1.528   .     S
C66    H1092   1.111   1_554 S
C66    H1093   1.112   1_554 S
C67    H83     1.110   .     S
C67    H102    1.111   .     S
C68    O106    1.296   .     A
C68    O108    1.300   .     A
C69    C70     1.542   .     S
C69    H94     1.111   .     S
C69    H95     1.095   .     S
C70    C71     1.528   .     S
C70    H595    1.112   .     S
C70    H597    1.111   .     S
C71    H90     1.110   .     S
C71    H89     1.111   .     S
C71    H144    1.111   .     S
C72    O111    1.300   .     A
C72    O109    1.288   .     A
C72    C74     1.437   .     S
C73    O112    1.300   .     A
C73    C75     1.437   .     S
C73    O110    1.288   .     A
C75    C130    1.343   .     S
C75    H148    1.087   .     S
C76    H96     1.083   .     S
C76    C414    1.384   1_545 S
C77    H97     1.083   .     S
C77    C226    1.384   .     S
C78    H98     1.083   .     S
C78    C244    1.384   .     S
Cu79   Cu80    2.700   .     S
Cu79   O108    1.966   .     S
Cu79   O109    1.946   .     S
Cu79   O105    1.962   .     S
Cu79   O112    1.956   .     S
Cu79   N103    2.029   .     S
Cu80   O107    1.966   .     S
Cu80   O111    1.956   .     S
Cu80   O106    1.962   .     S
Cu80   O110    1.946   .     S
Cu80   N104    2.029   .     S
H81    C130    1.087   .     S
H82    C123    1.111   .     S
H84    C570    1.111   .     S
H85    C570    1.112   .     S
H91    C1078   1.112   1_554 S
H93    C1078   1.111   1_554 S
C113   C116    1.450   .     S
C113   O163    1.300   .     A
C113   O161    1.296   .     A
C114   C116    1.403   .     A
C114   H155    1.083   .     S
C114   C469    1.384   1_545 S
C115   C133    1.400   .     A
C115   C134    1.403   .     A
C115   C124    1.450   .     S
C116   C132    1.400   .     A
C117   C121    1.524   .     S
C117   N160    1.399   .     A
C117   C1127   1.424   1_554 S
C118   N159    1.399   .     A
C118   C125    1.524   .     S
C118   C624    1.424   .     S
C119   H156    1.077   .     S
C119   N159    1.350   .     A
C119   C621    1.424   .     S
C120   N160    1.350   .     A
C120   H157    1.077   .     S
C120   C1126   1.424   1_554 S
C121   C122    1.542   .     S
C121   H142    1.095   .     S
C121   H143    1.111   .     S
C122   C123    1.528   .     S
C122   H1148   1.111   1_554 S
C122   H1149   1.112   1_554 S
C123   H139    1.110   .     S
C123   H158    1.111   .     S
C124   O162    1.296   .     A
C124   O164    1.300   .     A
C125   C126    1.542   .     S
C125   H150    1.111   .     S
C125   H151    1.095   .     S
C126   C127    1.528   .     S
C126   H651    1.112   .     S
C126   H653    1.111   .     S
C127   H146    1.110   .     S
C127   H145    1.111   .     S
C127   H32     1.111   1_655 S
C128   O167    1.300   .     A
C128   O165    1.288   .     A
C128   C130    1.437   .     S
C129   O168    1.300   .     A
C129   C131    1.437   .     S
C129   O166    1.288   .     A
C131   C18     1.343   1_655 S
C131   H36     1.087   1_655 S
C132   H152    1.083   .     S
C132   C470    1.384   1_545 S
C133   H153    1.083   .     S
C133   C282    1.384   .     S
C134   H154    1.083   .     S
C134   C300    1.384   .     S
Cu135  Cu136   2.700   .     S
Cu135  O164    1.966   .     S
Cu135  O165    1.946   .     S
Cu135  O161    1.962   .     S
Cu135  O168    1.956   .     S
Cu135  N159    2.029   .     S
Cu136  O163    1.966   .     S
Cu136  O167    1.956   .     S
Cu136  O162    1.962   .     S
Cu136  O166    1.946   .     S
Cu136  N160    2.029   .     S
H137   C18     1.087   1_655 S
H138   C11     1.111   1_655 S
H140   C626    1.111   .     S
H141   C626    1.112   .     S
H147   C1134   1.112   1_554 S
H149   C1134   1.111   1_554 S
C169   C172    1.450   .     S
C169   O219    1.300   .     A
C169   O217    1.296   .     A
C170   C172    1.403   .     A
C170   H211    1.083   .     S
C171   C189    1.400   .     A
C171   C190    1.403   .     A
C171   C180    1.450   .     S
C172   C188    1.400   .     A
C173   C177    1.524   .     S
C173   N216    1.399   .     A
C173   C1183   1.424   1_554 S
C174   N215    1.399   .     A
C174   C181    1.524   .     S
C174   C680    1.424   .     S
C175   H212    1.077   .     S
C175   N215    1.350   .     A
C175   C677    1.424   .     S
C176   N216    1.350   .     A
C176   H213    1.077   .     S
C176   C1182   1.424   1_554 S
C177   C178    1.542   .     S
C177   H198    1.095   .     S
C177   H199    1.111   .     S
C178   C179    1.528   .     S
C178   H1204   1.111   1_554 S
C178   H1205   1.112   1_554 S
C179   H195    1.110   .     S
C179   H214    1.111   .     S
C179   H306    1.111   1_455 S
C180   O218    1.296   .     A
C180   O220    1.300   .     A
C181   C182    1.542   .     S
C181   H206    1.111   .     S
C181   H207    1.095   .     S
C182   C183    1.528   .     S
C182   H707    1.112   .     S
C182   H709    1.111   .     S
C183   H202    1.110   .     S
C183   H201    1.111   .     S
C183   H256    1.111   .     S
C184   O223    1.300   .     A
C184   O221    1.288   .     A
C184   C186    1.437   .     S
C185   O224    1.300   .     A
C185   C187    1.437   .     S
C185   O222    1.288   .     A
C186   C299    1.343   1_455 S
C186   H305    1.087   1_455 S
C187   C242    1.343   .     S
C187   H260    1.087   .     S
C188   H208    1.083   .     S
C189   H209    1.083   .     S
C189   C338    1.384   .     S
C190   H210    1.083   .     S
C190   C356    1.384   .     S
Cu191  Cu192   2.700   .     S
Cu191  O220    1.966   .     S
Cu191  O221    1.946   .     S
Cu191  O217    1.962   .     S
Cu191  O224    1.956   .     S
Cu191  N215    2.029   .     S
Cu192  O219    1.966   .     S
Cu192  O223    1.956   .     S
Cu192  O218    1.962   .     S
Cu192  O222    1.946   .     S
Cu192  N216    2.029   .     S
H193   C242    1.087   .     S
H194   C235    1.111   .     S
H196   C682    1.111   .     S
H197   C682    1.112   .     S
H200   C295    1.111   1_455 S
H203   C1190   1.112   1_554 S
H204   C299    1.087   1_455 S
H205   C1190   1.111   1_554 S
C225   C228    1.450   .     S
C225   O275    1.300   .     A
C225   O273    1.296   .     A
C226   C228    1.403   .     A
C226   H267    1.083   .     S
C227   C245    1.400   .     A
C227   C246    1.403   .     A
C227   C236    1.450   .     S
C228   C244    1.400   .     A
C229   C233    1.524   .     S
C229   N272    1.399   .     A
C229   C1239   1.424   1_554 S
C230   N271    1.399   .     A
C230   C237    1.524   .     S
C230   C736    1.424   .     S
C231   H268    1.077   .     S
C231   N271    1.350   .     A
C231   C733    1.424   .     S
C232   N272    1.350   .     A
C232   H269    1.077   .     S
C232   C1238   1.424   1_554 S
C233   C234    1.542   .     S
C233   H254    1.095   .     S
C233   H255    1.111   .     S
C234   C235    1.528   .     S
C234   H1260   1.111   1_554 S
C234   H1261   1.112   1_554 S
C235   H251    1.110   .     S
C235   H270    1.111   .     S
C236   O274    1.296   .     A
C236   O276    1.300   .     A
C237   C238    1.542   .     S
C237   H262    1.111   .     S
C237   H263    1.095   .     S
C238   C239    1.528   .     S
C238   H763    1.112   .     S
C238   H765    1.111   .     S
C239   H258    1.110   .     S
C239   H257    1.111   .     S
C239   H312    1.111   .     S
C240   O279    1.300   .     A
C240   O277    1.288   .     A
C240   C242    1.437   .     S
C241   O280    1.300   .     A
C241   C243    1.437   .     S
C241   O278    1.288   .     A
C243   C298    1.343   .     S
C243   H316    1.087   .     S
C244   H264    1.083   .     S
C245   H265    1.083   .     S
C245   C394    1.384   .     S
C246   H266    1.083   .     S
C246   C412    1.384   .     S
Cu247  Cu248   2.700   .     S
Cu247  O276    1.966   .     S
Cu247  O277    1.946   .     S
Cu247  O273    1.962   .     S
Cu247  O280    1.956   .     S
Cu247  N271    2.029   .     S
Cu248  O275    1.966   .     S
Cu248  O279    1.956   .     S
Cu248  O274    1.962   .     S
Cu248  O278    1.946   .     S
Cu248  N272    2.029   .     S
H249   C298    1.087   .     S
H250   C291    1.111   .     S
H252   C738    1.111   .     S
H253   C738    1.112   .     S
H259   C1246   1.112   1_554 S
H261   C1246   1.111   1_554 S
C281   C284    1.450   .     S
C281   O331    1.300   .     A
C281   O329    1.296   .     A
C282   C284    1.403   .     A
C282   H323    1.083   .     S
C283   C301    1.400   .     A
C283   C302    1.403   .     A
C283   C292    1.450   .     S
C284   C300    1.400   .     A
C285   C289    1.524   .     S
C285   N328    1.399   .     A
C285   C1295   1.424   1_554 S
C286   N327    1.399   .     A
C286   C293    1.524   .     S
C286   C792    1.424   .     S
C287   H324    1.077   .     S
C287   N327    1.350   .     A
C287   C789    1.424   .     S
C288   N328    1.350   .     A
C288   H325    1.077   .     S
C288   C1294   1.424   1_554 S
C289   C290    1.542   .     S
C289   H310    1.095   .     S
C289   H311    1.111   .     S
C290   C291    1.528   .     S
C290   H1316   1.111   1_554 S
C290   H1317   1.112   1_554 S
C291   H307    1.110   .     S
C291   H326    1.111   .     S
C292   O330    1.296   .     A
C292   O332    1.300   .     A
C293   C294    1.542   .     S
C293   H318    1.111   .     S
C293   H319    1.095   .     S
C294   C295    1.528   .     S
C294   H819    1.112   .     S
C294   H821    1.111   .     S
C295   H314    1.110   .     S
C295   H313    1.111   .     S
C295   H200    1.111   1_655 S
C296   O335    1.300   .     A
C296   O333    1.288   .     A
C296   C298    1.437   .     S
C297   O336    1.300   .     A
C297   C299    1.437   .     S
C297   O334    1.288   .     A
C299   C186    1.343   1_655 S
C299   H204    1.087   1_655 S
C300   H320    1.083   .     S
C301   H321    1.083   .     S
C301   C450    1.384   .     S
C302   H322    1.083   .     S
C302   C468    1.384   .     S
Cu303  Cu304   2.700   .     S
Cu303  O332    1.966   .     S
Cu303  O333    1.946   .     S
Cu303  O329    1.962   .     S
Cu303  O336    1.956   .     S
Cu303  N327    2.029   .     S
Cu304  O331    1.966   .     S
Cu304  O335    1.956   .     S
Cu304  O330    1.962   .     S
Cu304  O334    1.946   .     S
Cu304  N328    2.029   .     S
H305   C186    1.087   1_655 S
H306   C179    1.111   1_655 S
H308   C794    1.111   .     S
H309   C794    1.112   .     S
H315   C1302   1.112   1_554 S
H317   C1302   1.111   1_554 S
C337   C340    1.450   .     S
C337   O387    1.300   .     A
C337   O385    1.296   .     A
C338   C340    1.403   .     A
C338   H379    1.083   .     S
C339   C357    1.400   .     A
C339   C358    1.403   .     A
C339   C348    1.450   .     S
C340   C356    1.400   .     A
C341   C345    1.524   .     S
C341   N384    1.399   .     A
C341   C1351   1.424   1_554 S
C342   N383    1.399   .     A
C342   C349    1.524   .     S
C342   C848    1.424   .     S
C343   H380    1.077   .     S
C343   N383    1.350   .     A
C343   C845    1.424   .     S
C344   N384    1.350   .     A
C344   H381    1.077   .     S
C344   C1350   1.424   1_554 S
C345   C346    1.542   .     S
C345   H366    1.095   .     S
C345   H367    1.111   .     S
C346   C347    1.528   .     S
C346   H1372   1.111   1_554 S
C346   H1373   1.112   1_554 S
C347   H363    1.110   .     S
C347   H382    1.111   .     S
C347   H474    1.111   1_455 S
C348   O386    1.296   .     A
C348   O388    1.300   .     A
C349   C350    1.542   .     S
C349   H374    1.111   .     S
C349   H375    1.095   .     S
C350   C351    1.528   .     S
C350   H875    1.112   .     S
C350   H877    1.111   .     S
C351   H370    1.110   .     S
C351   H369    1.111   .     S
C351   H424    1.111   .     S
C352   O391    1.300   .     A
C352   O389    1.288   .     A
C352   C354    1.437   .     S
C353   O392    1.300   .     A
C353   C355    1.437   .     S
C353   O390    1.288   .     A
C354   C467    1.343   1_455 S
C354   H473    1.087   1_455 S
C355   C410    1.343   .     S
C355   H428    1.087   .     S
C356   H376    1.083   .     S
C357   H377    1.083   .     S
C357   C2      1.384   1_565 S
C358   H378    1.083   .     S
C358   C20     1.384   1_565 S
Cu359  Cu360   2.700   .     S
Cu359  O388    1.966   .     S
Cu359  O389    1.946   .     S
Cu359  O385    1.962   .     S
Cu359  O392    1.956   .     S
Cu359  N383    2.029   .     S
Cu360  O387    1.966   .     S
Cu360  O391    1.956   .     S
Cu360  O386    1.962   .     S
Cu360  O390    1.946   .     S
Cu360  N384    2.029   .     S
H361   C410    1.087   .     S
H362   C403    1.111   .     S
H364   C850    1.111   .     S
H365   C850    1.112   .     S
H368   C463    1.111   1_455 S
H371   C1358   1.112   1_554 S
H372   C467    1.087   1_455 S
H373   C1358   1.111   1_554 S
C393   C396    1.450   .     S
C393   O443    1.300   .     A
C393   O441    1.296   .     A
C394   C396    1.403   .     A
C394   H435    1.083   .     S
C395   C413    1.400   .     A
C395   C414    1.403   .     A
C395   C404    1.450   .     S
C396   C412    1.400   .     A
C397   C401    1.524   .     S
C397   N440    1.399   .     A
C397   C1407   1.424   1_554 S
C398   N439    1.399   .     A
C398   C405    1.524   .     S
C398   C904    1.424   .     S
C399   H436    1.077   .     S
C399   N439    1.350   .     A
C399   C901    1.424   .     S
C400   N440    1.350   .     A
C400   H437    1.077   .     S
C400   C1406   1.424   1_554 S
C401   C402    1.542   .     S
C401   H422    1.095   .     S
C401   H423    1.111   .     S
C402   C403    1.528   .     S
C402   H1428   1.111   1_554 S
C402   H1429   1.112   1_554 S
C403   H419    1.110   .     S
C403   H438    1.111   .     S
C404   O442    1.296   .     A
C404   O444    1.300   .     A
C405   C406    1.542   .     S
C405   H430    1.111   .     S
C405   H431    1.095   .     S
C406   C407    1.528   .     S
C406   H931    1.112   .     S
C406   H933    1.111   .     S
C407   H426    1.110   .     S
C407   H425    1.111   .     S
C407   H480    1.111   .     S
C408   O447    1.300   .     A
C408   O445    1.288   .     A
C408   C410    1.437   .     S
C409   O448    1.300   .     A
C409   C411    1.437   .     S
C409   O446    1.288   .     A
C411   C466    1.343   .     S
C411   H484    1.087   .     S
C412   H432    1.083   .     S
C413   H433    1.083   .     S
C413   C58     1.384   1_565 S
C414   H434    1.083   .     S
C414   C76     1.384   1_565 S
Cu415  Cu416   2.700   .     S
Cu415  O444    1.966   .     S
Cu415  O445    1.946   .     S
Cu415  O441    1.962   .     S
Cu415  O448    1.956   .     S
Cu415  N439    2.029   .     S
Cu416  O443    1.966   .     S
Cu416  O447    1.956   .     S
Cu416  O442    1.962   .     S
Cu416  O446    1.946   .     S
Cu416  N440    2.029   .     S
H417   C466    1.087   .     S
H418   C459    1.111   .     S
H420   C906    1.111   .     S
H421   C906    1.112   .     S
H427   C1414   1.112   1_554 S
H429   C1414   1.111   1_554 S
C449   C452    1.450   .     S
C449   O499    1.300   .     A
C449   O497    1.296   .     A
C450   C452    1.403   .     A
C450   H491    1.083   .     S
C451   C469    1.400   .     A
C451   C470    1.403   .     A
C451   C460    1.450   .     S
C452   C468    1.400   .     A
C453   C457    1.524   .     S
C453   N496    1.399   .     A
C453   C1463   1.424   1_554 S
C454   N495    1.399   .     A
C454   C461    1.524   .     S
C454   C960    1.424   .     S
C455   H492    1.077   .     S
C455   N495    1.350   .     A
C455   C957    1.424   .     S
C456   N496    1.350   .     A
C456   H493    1.077   .     S
C456   C1462   1.424   1_554 S
C457   C458    1.542   .     S
C457   H478    1.095   .     S
C457   H479    1.111   .     S
C458   C459    1.528   .     S
C458   H1484   1.111   1_554 S
C458   H1485   1.112   1_554 S
C459   H475    1.110   .     S
C459   H494    1.111   .     S
C460   O498    1.296   .     A
C460   O500    1.300   .     A
C461   C462    1.542   .     S
C461   H486    1.111   .     S
C461   H487    1.095   .     S
C462   C463    1.528   .     S
C462   H987    1.112   .     S
C462   H989    1.111   .     S
C463   H482    1.110   .     S
C463   H481    1.111   .     S
C463   H368    1.111   1_655 S
C464   O503    1.300   .     A
C464   O501    1.288   .     A
C464   C466    1.437   .     S
C465   O504    1.300   .     A
C465   C467    1.437   .     S
C465   O502    1.288   .     A
C467   C354    1.343   1_655 S
C467   H372    1.087   1_655 S
C468   H488    1.083   .     S
C469   H489    1.083   .     S
C469   C114    1.384   1_565 S
C470   H490    1.083   .     S
C470   C132    1.384   1_565 S
Cu471  Cu472   2.700   .     S
Cu471  O500    1.966   .     S
Cu471  O501    1.946   .     S
Cu471  O497    1.962   .     S
Cu471  O504    1.956   .     S
Cu471  N495    2.029   .     S
Cu472  O499    1.966   .     S
Cu472  O503    1.956   .     S
Cu472  O498    1.962   .     S
Cu472  O502    1.946   .     S
Cu472  N496    2.029   .     S
H473   C354    1.087   1_655 S
H474   C347    1.111   1_655 S
H476   C962    1.111   .     S
H477   C962    1.112   .     S
H483   C1470   1.112   1_554 S
H485   C1470   1.111   1_554 S
C505   C508    1.450   .     S
C505   O555    1.300   .     A
C505   O553    1.296   .     A
C506   C508    1.403   .     A
C506   H547    1.083   .     S
C506   C861    1.384   1_545 S
C507   C525    1.400   .     A
C507   C526    1.403   .     A
C507   C516    1.450   .     S
C508   C524    1.400   .     A
C509   C513    1.524   .     S
C509   N552    1.399   .     A
C510   N551    1.399   .     A
C510   C517    1.524   .     S
C510   C1016   1.424   .     S
C511   H548    1.077   .     S
C511   N551    1.350   .     A
C511   C1013   1.424   .     S
C512   N552    1.350   .     A
C512   H549    1.077   .     S
C513   C514    1.542   .     S
C513   H534    1.095   .     S
C513   H535    1.111   .     S
C514   C515    1.528   .     S
C515   H531    1.110   .     S
C515   H550    1.111   .     S
C515   H642    1.111   1_455 S
C516   O554    1.296   .     A
C516   O556    1.300   .     A
C517   C518    1.542   .     S
C517   H542    1.111   .     S
C517   H543    1.095   .     S
C518   C519    1.528   .     S
C518   H1043   1.112   .     S
C518   H1045   1.111   .     S
C519   H538    1.110   .     S
C519   H537    1.111   .     S
C519   H592    1.111   .     S
C520   O559    1.300   .     A
C520   O557    1.288   .     A
C520   C522    1.437   .     S
C521   O560    1.300   .     A
C521   C523    1.437   .     S
C521   O558    1.288   .     A
C522   C635    1.343   1_455 S
C522   H641    1.087   1_455 S
C523   C578    1.343   .     S
C523   H596    1.087   .     S
C524   H544    1.083   .     S
C524   C862    1.384   1_545 S
C525   H545    1.083   .     S
C525   C674    1.384   .     S
C526   H546    1.083   .     S
C526   C692    1.384   .     S
Cu527  Cu528   2.700   .     S
Cu527  O556    1.966   .     S
Cu527  O557    1.946   .     S
Cu527  O553    1.962   .     S
Cu527  O560    1.956   .     S
Cu527  N551    2.029   .     S
Cu528  O555    1.966   .     S
Cu528  O559    1.956   .     S
Cu528  O554    1.962   .     S
Cu528  O558    1.946   .     S
Cu528  N552    2.029   .     S
H529   C578    1.087   .     S
H530   C571    1.111   .     S
H532   C1018   1.111   .     S
H533   C1018   1.112   .     S
H536   C631    1.111   1_455 S
H540   C635    1.087   1_455 S
C561   C564    1.450   .     S
C561   O611    1.300   .     A
C561   O609    1.296   .     A
C562   C564    1.403   .     A
C562   H603    1.083   .     S
C562   C917    1.384   1_545 S
C563   C581    1.400   .     A
C563   C582    1.403   .     A
C563   C572    1.450   .     S
C564   C580    1.400   .     A
C565   C569    1.524   .     S
C565   N608    1.399   .     A
C566   N607    1.399   .     A
C566   C573    1.524   .     S
C566   C1072   1.424   .     S
C567   H604    1.077   .     S
C567   N607    1.350   .     A
C567   C1069   1.424   .     S
C568   N608    1.350   .     A
C568   H605    1.077   .     S
C569   C570    1.542   .     S
C569   H590    1.095   .     S
C569   H591    1.111   .     S
C570   C571    1.528   .     S
C571   H587    1.110   .     S
C571   H606    1.111   .     S
C572   O610    1.296   .     A
C572   O612    1.300   .     A
C573   C574    1.542   .     S
C573   H598    1.111   .     S
C573   H599    1.095   .     S
C574   C575    1.528   .     S
C574   H1099   1.112   .     S
C574   H1101   1.111   .     S
C575   H594    1.110   .     S
C575   H593    1.111   .     S
C575   H648    1.111   .     S
C576   O615    1.300   .     A
C576   O613    1.288   .     A
C576   C578    1.437   .     S
C577   O616    1.300   .     A
C577   C579    1.437   .     S
C577   O614    1.288   .     A
C579   C634    1.343   .     S
C579   H652    1.087   .     S
C580   H600    1.083   .     S
C580   C918    1.384   1_545 S
C581   H601    1.083   .     S
C581   C730    1.384   .     S
C582   H602    1.083   .     S
C582   C748    1.384   .     S
Cu583  Cu584   2.700   .     S
Cu583  O612    1.966   .     S
Cu583  O613    1.946   .     S
Cu583  O609    1.962   .     S
Cu583  O616    1.956   .     S
Cu583  N607    2.029   .     S
Cu584  O611    1.966   .     S
Cu584  O615    1.956   .     S
Cu584  O610    1.962   .     S
Cu584  O614    1.946   .     S
Cu584  N608    2.029   .     S
H585   C634    1.087   .     S
H586   C627    1.111   .     S
H588   C1074   1.111   .     S
H589   C1074   1.112   .     S
C617   C620    1.450   .     S
C617   O667    1.300   .     A
C617   O665    1.296   .     A
C618   C620    1.403   .     A
C618   H659    1.083   .     S
C618   C973    1.384   1_545 S
C619   C637    1.400   .     A
C619   C638    1.403   .     A
C619   C628    1.450   .     S
C620   C636    1.400   .     A
C621   C625    1.524   .     S
C621   N664    1.399   .     A
C622   N663    1.399   .     A
C622   C629    1.524   .     S
C622   C1128   1.424   .     S
C623   H660    1.077   .     S
C623   N663    1.350   .     A
C623   C1125   1.424   .     S
C624   N664    1.350   .     A
C624   H661    1.077   .     S
C625   C626    1.542   .     S
C625   H646    1.095   .     S
C625   H647    1.111   .     S
C626   C627    1.528   .     S
C627   H643    1.110   .     S
C627   H662    1.111   .     S
C628   O666    1.296   .     A
C628   O668    1.300   .     A
C629   C630    1.542   .     S
C629   H654    1.111   .     S
C629   H655    1.095   .     S
C630   C631    1.528   .     S
C630   H1155   1.112   .     S
C630   H1157   1.111   .     S
C631   H650    1.110   .     S
C631   H649    1.111   .     S
C631   H536    1.111   1_655 S
C632   O671    1.300   .     A
C632   O669    1.288   .     A
C632   C634    1.437   .     S
C633   O672    1.300   .     A
C633   C635    1.437   .     S
C633   O670    1.288   .     A
C635   C522    1.343   1_655 S
C635   H540    1.087   1_655 S
C636   H656    1.083   .     S
C636   C974    1.384   1_545 S
C637   H657    1.083   .     S
C637   C786    1.384   .     S
C638   H658    1.083   .     S
C638   C804    1.384   .     S
Cu639  Cu640   2.700   .     S
Cu639  O668    1.966   .     S
Cu639  O669    1.946   .     S
Cu639  O665    1.962   .     S
Cu639  O672    1.956   .     S
Cu639  N663    2.029   .     S
Cu640  O667    1.966   .     S
Cu640  O671    1.956   .     S
Cu640  O666    1.962   .     S
Cu640  O670    1.946   .     S
Cu640  N664    2.029   .     S
H641   C522    1.087   1_655 S
H642   C515    1.111   1_655 S
H644   C1130   1.111   .     S
H645   C1130   1.112   .     S
C673   C676    1.450   .     S
C673   O723    1.300   .     A
C673   O721    1.296   .     A
C674   C676    1.403   .     A
C674   H715    1.083   .     S
C675   C693    1.400   .     A
C675   C694    1.403   .     A
C675   C684    1.450   .     S
C676   C692    1.400   .     A
C677   C681    1.524   .     S
C677   N720    1.399   .     A
C678   N719    1.399   .     A
C678   C685    1.524   .     S
C678   C1184   1.424   .     S
C679   H716    1.077   .     S
C679   N719    1.350   .     A
C679   C1181   1.424   .     S
C680   N720    1.350   .     A
C680   H717    1.077   .     S
C681   C682    1.542   .     S
C681   H702    1.095   .     S
C681   H703    1.111   .     S
C682   C683    1.528   .     S
C683   H699    1.110   .     S
C683   H718    1.111   .     S
C683   H810    1.111   1_455 S
C684   O722    1.296   .     A
C684   O724    1.300   .     A
C685   C686    1.542   .     S
C685   H710    1.111   .     S
C685   H711    1.095   .     S
C686   C687    1.528   .     S
C686   H1211   1.112   .     S
C686   H1213   1.111   .     S
C687   H706    1.110   .     S
C687   H705    1.111   .     S
C687   H760    1.111   .     S
C688   O727    1.300   .     A
C688   O725    1.288   .     A
C688   C690    1.437   .     S
C689   O728    1.300   .     A
C689   C691    1.437   .     S
C689   O726    1.288   .     A
C690   C803    1.343   1_455 S
C690   H809    1.087   1_455 S
C691   C746    1.343   .     S
C691   H764    1.087   .     S
C692   H712    1.083   .     S
C693   H713    1.083   .     S
C693   C842    1.384   .     S
C694   H714    1.083   .     S
C694   C860    1.384   .     S
Cu695  Cu696   2.700   .     S
Cu695  O724    1.966   .     S
Cu695  O725    1.946   .     S
Cu695  O721    1.962   .     S
Cu695  O728    1.956   .     S
Cu695  N719    2.029   .     S
Cu696  O723    1.966   .     S
Cu696  O727    1.956   .     S
Cu696  O722    1.962   .     S
Cu696  O726    1.946   .     S
Cu696  N720    2.029   .     S
H697   C746    1.087   .     S
H698   C739    1.111   .     S
H700   C1186   1.111   .     S
H701   C1186   1.112   .     S
H704   C799    1.111   1_455 S
H708   C803    1.087   1_455 S
C729   C732    1.450   .     S
C729   O779    1.300   .     A
C729   O777    1.296   .     A
C730   C732    1.403   .     A
C730   H771    1.083   .     S
C731   C749    1.400   .     A
C731   C750    1.403   .     A
C731   C740    1.450   .     S
C732   C748    1.400   .     A
C733   C737    1.524   .     S
C733   N776    1.399   .     A
C734   N775    1.399   .     A
C734   C741    1.524   .     S
C734   C1240   1.424   .     S
C735   H772    1.077   .     S
C735   N775    1.350   .     A
C735   C1237   1.424   .     S
C736   N776    1.350   .     A
C736   H773    1.077   .     S
C737   C738    1.542   .     S
C737   H758    1.095   .     S
C737   H759    1.111   .     S
C738   C739    1.528   .     S
C739   H755    1.110   .     S
C739   H774    1.111   .     S
C740   O778    1.296   .     A
C740   O780    1.300   .     A
C741   C742    1.542   .     S
C741   H766    1.111   .     S
C741   H767    1.095   .     S
C742   C743    1.528   .     S
C742   H1267   1.112   .     S
C742   H1269   1.111   .     S
C743   H762    1.110   .     S
C743   H761    1.111   .     S
C743   H816    1.111   .     S
C744   O783    1.300   .     A
C744   O781    1.288   .     A
C744   C746    1.437   .     S
C745   O784    1.300   .     A
C745   C747    1.437   .     S
C745   O782    1.288   .     A
C747   C802    1.343   .     S
C747   H820    1.087   .     S
C748   H768    1.083   .     S
C749   H769    1.083   .     S
C749   C898    1.384   .     S
C750   H770    1.083   .     S
C750   C916    1.384   .     S
Cu751  Cu752   2.700   .     S
Cu751  O780    1.966   .     S
Cu751  O781    1.946   .     S
Cu751  O777    1.962   .     S
Cu751  O784    1.956   .     S
Cu751  N775    2.029   .     S
Cu752  O779    1.966   .     S
Cu752  O783    1.956   .     S
Cu752  O778    1.962   .     S
Cu752  O782    1.946   .     S
Cu752  N776    2.029   .     S
H753   C802    1.087   .     S
H754   C795    1.111   .     S
H756   C1242   1.111   .     S
H757   C1242   1.112   .     S
C785   C788    1.450   .     S
C785   O835    1.300   .     A
C785   O833    1.296   .     A
C786   C788    1.403   .     A
C786   H827    1.083   .     S
C787   C805    1.400   .     A
C787   C806    1.403   .     A
C787   C796    1.450   .     S
C788   C804    1.400   .     A
C789   C793    1.524   .     S
C789   N832    1.399   .     A
C790   N831    1.399   .     A
C790   C797    1.524   .     S
C790   C1296   1.424   .     S
C791   H828    1.077   .     S
C791   N831    1.350   .     A
C791   C1293   1.424   .     S
C792   N832    1.350   .     A
C792   H829    1.077   .     S
C793   C794    1.542   .     S
C793   H814    1.095   .     S
C793   H815    1.111   .     S
C794   C795    1.528   .     S
C795   H811    1.110   .     S
C795   H830    1.111   .     S
C796   O834    1.296   .     A
C796   O836    1.300   .     A
C797   C798    1.542   .     S
C797   H822    1.111   .     S
C797   H823    1.095   .     S
C798   C799    1.528   .     S
C798   H1323   1.112   .     S
C798   H1325   1.111   .     S
C799   H818    1.110   .     S
C799   H817    1.111   .     S
C799   H704    1.111   1_655 S
C800   O839    1.300   .     A
C800   O837    1.288   .     A
C800   C802    1.437   .     S
C801   O840    1.300   .     A
C801   C803    1.437   .     S
C801   O838    1.288   .     A
C803   C690    1.343   1_655 S
C803   H708    1.087   1_655 S
C804   H824    1.083   .     S
C805   H825    1.083   .     S
C805   C954    1.384   .     S
C806   H826    1.083   .     S
C806   C972    1.384   .     S
Cu807  Cu808   2.700   .     S
Cu807  O836    1.966   .     S
Cu807  O837    1.946   .     S
Cu807  O833    1.962   .     S
Cu807  O840    1.956   .     S
Cu807  N831    2.029   .     S
Cu808  O835    1.966   .     S
Cu808  O839    1.956   .     S
Cu808  O834    1.962   .     S
Cu808  O838    1.946   .     S
Cu808  N832    2.029   .     S
H809   C690    1.087   1_655 S
H810   C683    1.111   1_655 S
H812   C1298   1.111   .     S
H813   C1298   1.112   .     S
C841   C844    1.450   .     S
C841   O891    1.300   .     A
C841   O889    1.296   .     A
C842   C844    1.403   .     A
C842   H883    1.083   .     S
C843   C861    1.400   .     A
C843   C862    1.403   .     A
C843   C852    1.450   .     S
C844   C860    1.400   .     A
C845   C849    1.524   .     S
C845   N888    1.399   .     A
C846   N887    1.399   .     A
C846   C853    1.524   .     S
C846   C1352   1.424   .     S
C847   H884    1.077   .     S
C847   N887    1.350   .     A
C847   C1349   1.424   .     S
C848   N888    1.350   .     A
C848   H885    1.077   .     S
C849   C850    1.542   .     S
C849   H870    1.095   .     S
C849   H871    1.111   .     S
C850   C851    1.528   .     S
C851   H867    1.110   .     S
C851   H886    1.111   .     S
C851   H978    1.111   1_455 S
C852   O890    1.296   .     A
C852   O892    1.300   .     A
C853   C854    1.542   .     S
C853   H878    1.111   .     S
C853   H879    1.095   .     S
C854   C855    1.528   .     S
C854   H1379   1.112   .     S
C854   H1381   1.111   .     S
C855   H874    1.110   .     S
C855   H873    1.111   .     S
C855   H928    1.111   .     S
C856   O895    1.300   .     A
C856   O893    1.288   .     A
C856   C858    1.437   .     S
C857   O896    1.300   .     A
C857   C859    1.437   .     S
C857   O894    1.288   .     A
C858   C971    1.343   1_455 S
C858   H977    1.087   1_455 S
C859   C914    1.343   .     S
C859   H932    1.087   .     S
C860   H880    1.083   .     S
C861   H881    1.083   .     S
C861   C506    1.384   1_565 S
C862   H882    1.083   .     S
C862   C524    1.384   1_565 S
Cu863  Cu864   2.700   .     S
Cu863  O892    1.966   .     S
Cu863  O893    1.946   .     S
Cu863  O889    1.962   .     S
Cu863  O896    1.956   .     S
Cu863  N887    2.029   .     S
Cu864  O891    1.966   .     S
Cu864  O895    1.956   .     S
Cu864  O890    1.962   .     S
Cu864  O894    1.946   .     S
Cu864  N888    2.029   .     S
H865   C914    1.087   .     S
H866   C907    1.111   .     S
H868   C1354   1.111   .     S
H869   C1354   1.112   .     S
H872   C967    1.111   1_455 S
H876   C971    1.087   1_455 S
C897   C900    1.450   .     S
C897   O947    1.300   .     A
C897   O945    1.296   .     A
C898   C900    1.403   .     A
C898   H939    1.083   .     S
C899   C917    1.400   .     A
C899   C918    1.403   .     A
C899   C908    1.450   .     S
C900   C916    1.400   .     A
C901   C905    1.524   .     S
C901   N944    1.399   .     A
C902   N943    1.399   .     A
C902   C909    1.524   .     S
C902   C1408   1.424   .     S
C903   H940    1.077   .     S
C903   N943    1.350   .     A
C903   C1405   1.424   .     S
C904   N944    1.350   .     A
C904   H941    1.077   .     S
C905   C906    1.542   .     S
C905   H926    1.095   .     S
C905   H927    1.111   .     S
C906   C907    1.528   .     S
C907   H923    1.110   .     S
C907   H942    1.111   .     S
C908   O946    1.296   .     A
C908   O948    1.300   .     A
C909   C910    1.542   .     S
C909   H934    1.111   .     S
C909   H935    1.095   .     S
C910   C911    1.528   .     S
C910   H1435   1.112   .     S
C910   H1437   1.111   .     S
C911   H930    1.110   .     S
C911   H929    1.111   .     S
C911   H984    1.111   .     S
C912   O951    1.300   .     A
C912   O949    1.288   .     A
C912   C914    1.437   .     S
C913   O952    1.300   .     A
C913   C915    1.437   .     S
C913   O950    1.288   .     A
C915   C970    1.343   .     S
C915   H988    1.087   .     S
C916   H936    1.083   .     S
C917   H937    1.083   .     S
C917   C562    1.384   1_565 S
C918   H938    1.083   .     S
C918   C580    1.384   1_565 S
Cu919  Cu920   2.700   .     S
Cu919  O948    1.966   .     S
Cu919  O949    1.946   .     S
Cu919  O945    1.962   .     S
Cu919  O952    1.956   .     S
Cu919  N943    2.029   .     S
Cu920  O947    1.966   .     S
Cu920  O951    1.956   .     S
Cu920  O946    1.962   .     S
Cu920  O950    1.946   .     S
Cu920  N944    2.029   .     S
H921   C970    1.087   .     S
H922   C963    1.111   .     S
H924   C1410   1.111   .     S
H925   C1410   1.112   .     S
C953   C956    1.450   .     S
C953   O1003   1.300   .     A
C953   O1001   1.296   .     A
C954   C956    1.403   .     A
C954   H995    1.083   .     S
C955   C973    1.400   .     A
C955   C974    1.403   .     A
C955   C964    1.450   .     S
C956   C972    1.400   .     A
C957   C961    1.524   .     S
C957   N1000   1.399   .     A
C958   N999    1.399   .     A
C958   C965    1.524   .     S
C958   C1464   1.424   .     S
C959   H996    1.077   .     S
C959   N999    1.350   .     A
C959   C1461   1.424   .     S
C960   N1000   1.350   .     A
C960   H997    1.077   .     S
C961   C962    1.542   .     S
C961   H982    1.095   .     S
C961   H983    1.111   .     S
C962   C963    1.528   .     S
C963   H979    1.110   .     S
C963   H998    1.111   .     S
C964   O1002   1.296   .     A
C964   O1004   1.300   .     A
C965   C966    1.542   .     S
C965   H990    1.111   .     S
C965   H991    1.095   .     S
C966   C967    1.528   .     S
C966   H1491   1.112   .     S
C966   H1493   1.111   .     S
C967   H986    1.110   .     S
C967   H985    1.111   .     S
C967   H872    1.111   1_655 S
C968   O1007   1.300   .     A
C968   O1005   1.288   .     A
C968   C970    1.437   .     S
C969   O1008   1.300   .     A
C969   C971    1.437   .     S
C969   O1006   1.288   .     A
C971   C858    1.343   1_655 S
C971   H876    1.087   1_655 S
C972   H992    1.083   .     S
C973   H993    1.083   .     S
C973   C618    1.384   1_565 S
C974   H994    1.083   .     S
C974   C636    1.384   1_565 S
Cu975  Cu976   2.700   .     S
Cu975  O1004   1.966   .     S
Cu975  O1005   1.946   .     S
Cu975  O1001   1.962   .     S
Cu975  O1008   1.956   .     S
Cu975  N999    2.029   .     S
Cu976  O1003   1.966   .     S
Cu976  O1007   1.956   .     S
Cu976  O1002   1.962   .     S
Cu976  O1006   1.946   .     S
Cu976  N1000   2.029   .     S
H977   C858    1.087   1_655 S
H978   C851    1.111   1_655 S
H980   C1466   1.111   .     S
H981   C1466   1.112   .     S
C1009  C1012   1.450   .     S
C1009  O1059   1.300   .     A
C1009  O1057   1.296   .     A
C1010  C1012   1.403   .     A
C1010  H1051   1.083   .     S
C1010  C1365   1.384   1_545 S
C1011  C1029   1.400   .     A
C1011  C1030   1.403   .     A
C1011  C1020   1.450   .     S
C1012  C1028   1.400   .     A
C1013  C1017   1.524   .     S
C1013  N1056   1.399   .     A
C1014  N1055   1.399   .     A
C1014  C1021   1.524   .     S
C1014  C8      1.424   1_556 S
C1015  H1052   1.077   .     S
C1015  N1055   1.350   .     A
C1015  C5      1.424   1_556 S
C1016  N1056   1.350   .     A
C1016  H1053   1.077   .     S
C1017  C1018   1.542   .     S
C1017  H1038   1.095   .     S
C1017  H1039   1.111   .     S
C1018  C1019   1.528   .     S
C1019  H1035   1.110   .     S
C1019  H1054   1.111   .     S
C1019  H1146   1.111   1_455 S
C1020  O1058   1.296   .     A
C1020  O1060   1.300   .     A
C1021  C1022   1.542   .     S
C1021  H1046   1.111   .     S
C1021  H1047   1.095   .     S
C1022  C1023   1.528   .     S
C1022  H35     1.112   1_556 S
C1022  H37     1.111   1_556 S
C1023  H1042   1.110   .     S
C1023  H1041   1.111   .     S
C1023  H1096   1.111   .     S
C1024  O1063   1.300   .     A
C1024  O1061   1.288   .     A
C1024  C1026   1.437   .     S
C1025  O1064   1.300   .     A
C1025  C1027   1.437   .     S
C1025  O1062   1.288   .     A
C1026  C1139   1.343   1_455 S
C1026  H1145   1.087   1_455 S
C1027  C1082   1.343   .     S
C1027  H1100   1.087   .     S
C1028  H1048   1.083   .     S
C1028  C1366   1.384   1_545 S
C1029  H1049   1.083   .     S
C1029  C1178   1.384   .     S
C1030  H1050   1.083   .     S
C1030  C1196   1.384   .     S
Cu1031 Cu1032  2.700   .     S
Cu1031 O1060   1.966   .     S
Cu1031 O1061   1.946   .     S
Cu1031 O1057   1.962   .     S
Cu1031 O1064   1.956   .     S
Cu1031 N1055   2.029   .     S
Cu1032 O1059   1.966   .     S
Cu1032 O1063   1.956   .     S
Cu1032 O1058   1.962   .     S
Cu1032 O1062   1.946   .     S
Cu1032 N1056   2.029   .     S
H1033  C1082   1.087   .     S
H1034  C1075   1.111   .     S
H1036  C10     1.111   1_556 S
H1037  C10     1.112   1_556 S
H1040  C1135   1.111   1_455 S
H1044  C1139   1.087   1_455 S
C1065  C1068   1.450   .     S
C1065  O1115   1.300   .     A
C1065  O1113   1.296   .     A
C1066  C1068   1.403   .     A
C1066  H1107   1.083   .     S
C1066  C1421   1.384   1_545 S
C1067  C1085   1.400   .     A
C1067  C1086   1.403   .     A
C1067  C1076   1.450   .     S
C1068  C1084   1.400   .     A
C1069  C1073   1.524   .     S
C1069  N1112   1.399   .     A
C1070  N1111   1.399   .     A
C1070  C1077   1.524   .     S
C1070  C64     1.424   1_556 S
C1071  H1108   1.077   .     S
C1071  N1111   1.350   .     A
C1071  C61     1.424   1_556 S
C1072  N1112   1.350   .     A
C1072  H1109   1.077   .     S
C1073  C1074   1.542   .     S
C1073  H1094   1.095   .     S
C1073  H1095   1.111   .     S
C1074  C1075   1.528   .     S
C1075  H1091   1.110   .     S
C1075  H1110   1.111   .     S
C1076  O1114   1.296   .     A
C1076  O1116   1.300   .     A
C1077  C1078   1.542   .     S
C1077  H1102   1.111   .     S
C1077  H1103   1.095   .     S
C1078  C1079   1.528   .     S
C1078  H91     1.112   1_556 S
C1078  H93     1.111   1_556 S
C1079  H1098   1.110   .     S
C1079  H1097   1.111   .     S
C1079  H1152   1.111   .     S
C1080  O1119   1.300   .     A
C1080  O1117   1.288   .     A
C1080  C1082   1.437   .     S
C1081  O1120   1.300   .     A
C1081  C1083   1.437   .     S
C1081  O1118   1.288   .     A
C1083  C1138   1.343   .     S
C1083  H1156   1.087   .     S
C1084  H1104   1.083   .     S
C1084  C1422   1.384   1_545 S
C1085  H1105   1.083   .     S
C1085  C1234   1.384   .     S
C1086  H1106   1.083   .     S
C1086  C1252   1.384   .     S
Cu1087 Cu1088  2.700   .     S
Cu1087 O1116   1.966   .     S
Cu1087 O1117   1.946   .     S
Cu1087 O1113   1.962   .     S
Cu1087 O1120   1.956   .     S
Cu1087 N1111   2.029   .     S
Cu1088 O1115   1.966   .     S
Cu1088 O1119   1.956   .     S
Cu1088 O1114   1.962   .     S
Cu1088 O1118   1.946   .     S
Cu1088 N1112   2.029   .     S
H1089  C1138   1.087   .     S
H1090  C1131   1.111   .     S
H1092  C66     1.111   1_556 S
H1093  C66     1.112   1_556 S
C1121  C1124   1.450   .     S
C1121  O1171   1.300   .     A
C1121  O1169   1.296   .     A
C1122  C1124   1.403   .     A
C1122  H1163   1.083   .     S
C1122  C1477   1.384   1_545 S
C1123  C1141   1.400   .     A
C1123  C1142   1.403   .     A
C1123  C1132   1.450   .     S
C1124  C1140   1.400   .     A
C1125  C1129   1.524   .     S
C1125  N1168   1.399   .     A
C1126  N1167   1.399   .     A
C1126  C1133   1.524   .     S
C1126  C120    1.424   1_556 S
C1127  H1164   1.077   .     S
C1127  N1167   1.350   .     A
C1127  C117    1.424   1_556 S
C1128  N1168   1.350   .     A
C1128  H1165   1.077   .     S
C1129  C1130   1.542   .     S
C1129  H1150   1.095   .     S
C1129  H1151   1.111   .     S
C1130  C1131   1.528   .     S
C1131  H1147   1.110   .     S
C1131  H1166   1.111   .     S
C1132  O1170   1.296   .     A
C1132  O1172   1.300   .     A
C1133  C1134   1.542   .     S
C1133  H1158   1.111   .     S
C1133  H1159   1.095   .     S
C1134  C1135   1.528   .     S
C1134  H147    1.112   1_556 S
C1134  H149    1.111   1_556 S
C1135  H1154   1.110   .     S
C1135  H1153   1.111   .     S
C1135  H1040   1.111   1_655 S
C1136  O1175   1.300   .     A
C1136  O1173   1.288   .     A
C1136  C1138   1.437   .     S
C1137  O1176   1.300   .     A
C1137  C1139   1.437   .     S
C1137  O1174   1.288   .     A
C1139  C1026   1.343   1_655 S
C1139  H1044   1.087   1_655 S
C1140  H1160   1.083   .     S
C1140  C1478   1.384   1_545 S
C1141  H1161   1.083   .     S
C1141  C1290   1.384   .     S
C1142  H1162   1.083   .     S
C1142  C1308   1.384   .     S
Cu1143 Cu1144  2.700   .     S
Cu1143 O1172   1.966   .     S
Cu1143 O1173   1.946   .     S
Cu1143 O1169   1.962   .     S
Cu1143 O1176   1.956   .     S
Cu1143 N1167   2.029   .     S
Cu1144 O1171   1.966   .     S
Cu1144 O1175   1.956   .     S
Cu1144 O1170   1.962   .     S
Cu1144 O1174   1.946   .     S
Cu1144 N1168   2.029   .     S
H1145  C1026   1.087   1_655 S
H1146  C1019   1.111   1_655 S
H1148  C122    1.111   1_556 S
H1149  C122    1.112   1_556 S
C1177  C1180   1.450   .     S
C1177  O1227   1.300   .     A
C1177  O1225   1.296   .     A
C1178  C1180   1.403   .     A
C1178  H1219   1.083   .     S
C1179  C1197   1.400   .     A
C1179  C1198   1.403   .     A
C1179  C1188   1.450   .     S
C1180  C1196   1.400   .     A
C1181  C1185   1.524   .     S
C1181  N1224   1.399   .     A
C1182  N1223   1.399   .     A
C1182  C1189   1.524   .     S
C1182  C176    1.424   1_556 S
C1183  H1220   1.077   .     S
C1183  N1223   1.350   .     A
C1183  C173    1.424   1_556 S
C1184  N1224   1.350   .     A
C1184  H1221   1.077   .     S
C1185  C1186   1.542   .     S
C1185  H1206   1.095   .     S
C1185  H1207   1.111   .     S
C1186  C1187   1.528   .     S
C1187  H1203   1.110   .     S
C1187  H1222   1.111   .     S
C1187  H1314   1.111   1_455 S
C1188  O1226   1.296   .     A
C1188  O1228   1.300   .     A
C1189  C1190   1.542   .     S
C1189  H1214   1.111   .     S
C1189  H1215   1.095   .     S
C1190  C1191   1.528   .     S
C1190  H203    1.112   1_556 S
C1190  H205    1.111   1_556 S
C1191  H1210   1.110   .     S
C1191  H1209   1.111   .     S
C1191  H1264   1.111   .     S
C1192  O1231   1.300   .     A
C1192  O1229   1.288   .     A
C1192  C1194   1.437   .     S
C1193  O1232   1.300   .     A
C1193  C1195   1.437   .     S
C1193  O1230   1.288   .     A
C1194  C1307   1.343   1_455 S
C1194  H1313   1.087   1_455 S
C1195  C1250   1.343   .     S
C1195  H1268   1.087   .     S
C1196  H1216   1.083   .     S
C1197  H1217   1.083   .     S
C1197  C1346   1.384   .     S
C1198  H1218   1.083   .     S
C1198  C1364   1.384   .     S
Cu1199 Cu1200  2.700   .     S
Cu1199 O1228   1.966   .     S
Cu1199 O1229   1.946   .     S
Cu1199 O1225   1.962   .     S
Cu1199 O1232   1.956   .     S
Cu1199 N1223   2.029   .     S
Cu1200 O1227   1.966   .     S
Cu1200 O1231   1.956   .     S
Cu1200 O1226   1.962   .     S
Cu1200 O1230   1.946   .     S
Cu1200 N1224   2.029   .     S
H1201  C1250   1.087   .     S
H1202  C1243   1.111   .     S
H1204  C178    1.111   1_556 S
H1205  C178    1.112   1_556 S
H1208  C1303   1.111   1_455 S
H1212  C1307   1.087   1_455 S
C1233  C1236   1.450   .     S
C1233  O1283   1.300   .     A
C1233  O1281   1.296   .     A
C1234  C1236   1.403   .     A
C1234  H1275   1.083   .     S
C1235  C1253   1.400   .     A
C1235  C1254   1.403   .     A
C1235  C1244   1.450   .     S
C1236  C1252   1.400   .     A
C1237  C1241   1.524   .     S
C1237  N1280   1.399   .     A
C1238  N1279   1.399   .     A
C1238  C1245   1.524   .     S
C1238  C232    1.424   1_556 S
C1239  H1276   1.077   .     S
C1239  N1279   1.350   .     A
C1239  C229    1.424   1_556 S
C1240  N1280   1.350   .     A
C1240  H1277   1.077   .     S
C1241  C1242   1.542   .     S
C1241  H1262   1.095   .     S
C1241  H1263   1.111   .     S
C1242  C1243   1.528   .     S
C1243  H1259   1.110   .     S
C1243  H1278   1.111   .     S
C1244  O1282   1.296   .     A
C1244  O1284   1.300   .     A
C1245  C1246   1.542   .     S
C1245  H1270   1.111   .     S
C1245  H1271   1.095   .     S
C1246  C1247   1.528   .     S
C1246  H259    1.112   1_556 S
C1246  H261    1.111   1_556 S
C1247  H1266   1.110   .     S
C1247  H1265   1.111   .     S
C1247  H1320   1.111   .     S
C1248  O1287   1.300   .     A
C1248  O1285   1.288   .     A
C1248  C1250   1.437   .     S
C1249  O1288   1.300   .     A
C1249  C1251   1.437   .     S
C1249  O1286   1.288   .     A
C1251  C1306   1.343   .     S
C1251  H1324   1.087   .     S
C1252  H1272   1.083   .     S
C1253  H1273   1.083   .     S
C1253  C1402   1.384   .     S
C1254  H1274   1.083   .     S
C1254  C1420   1.384   .     S
Cu1255 Cu1256  2.700   .     S
Cu1255 O1284   1.966   .     S
Cu1255 O1285   1.946   .     S
Cu1255 O1281   1.962   .     S
Cu1255 O1288   1.956   .     S
Cu1255 N1279   2.029   .     S
Cu1256 O1283   1.966   .     S
Cu1256 O1287   1.956   .     S
Cu1256 O1282   1.962   .     S
Cu1256 O1286   1.946   .     S
Cu1256 N1280   2.029   .     S
H1257  C1306   1.087   .     S
H1258  C1299   1.111   .     S
H1260  C234    1.111   1_556 S
H1261  C234    1.112   1_556 S
C1289  C1292   1.450   .     S
C1289  O1339   1.300   .     A
C1289  O1337   1.296   .     A
C1290  C1292   1.403   .     A
C1290  H1331   1.083   .     S
C1291  C1309   1.400   .     A
C1291  C1310   1.403   .     A
C1291  C1300   1.450   .     S
C1292  C1308   1.400   .     A
C1293  C1297   1.524   .     S
C1293  N1336   1.399   .     A
C1294  N1335   1.399   .     A
C1294  C1301   1.524   .     S
C1294  C288    1.424   1_556 S
C1295  H1332   1.077   .     S
C1295  N1335   1.350   .     A
C1295  C285    1.424   1_556 S
C1296  N1336   1.350   .     A
C1296  H1333   1.077   .     S
C1297  C1298   1.542   .     S
C1297  H1318   1.095   .     S
C1297  H1319   1.111   .     S
C1298  C1299   1.528   .     S
C1299  H1315   1.110   .     S
C1299  H1334   1.111   .     S
C1300  O1338   1.296   .     A
C1300  O1340   1.300   .     A
C1301  C1302   1.542   .     S
C1301  H1326   1.111   .     S
C1301  H1327   1.095   .     S
C1302  C1303   1.528   .     S
C1302  H315    1.112   1_556 S
C1302  H317    1.111   1_556 S
C1303  H1322   1.110   .     S
C1303  H1321   1.111   .     S
C1303  H1208   1.111   1_655 S
C1304  O1343   1.300   .     A
C1304  O1341   1.288   .     A
C1304  C1306   1.437   .     S
C1305  O1344   1.300   .     A
C1305  C1307   1.437   .     S
C1305  O1342   1.288   .     A
C1307  C1194   1.343   1_655 S
C1307  H1212   1.087   1_655 S
C1308  H1328   1.083   .     S
C1309  H1329   1.083   .     S
C1309  C1458   1.384   .     S
C1310  H1330   1.083   .     S
C1310  C1476   1.384   .     S
Cu1311 Cu1312  2.700   .     S
Cu1311 O1340   1.966   .     S
Cu1311 O1341   1.946   .     S
Cu1311 O1337   1.962   .     S
Cu1311 O1344   1.956   .     S
Cu1311 N1335   2.029   .     S
Cu1312 O1339   1.966   .     S
Cu1312 O1343   1.956   .     S
Cu1312 O1338   1.962   .     S
Cu1312 O1342   1.946   .     S
Cu1312 N1336   2.029   .     S
H1313  C1194   1.087   1_655 S
H1314  C1187   1.111   1_655 S
H1316  C290    1.111   1_556 S
H1317  C290    1.112   1_556 S
C1345  C1348   1.450   .     S
C1345  O1395   1.300   .     A
C1345  O1393   1.296   .     A
C1346  C1348   1.403   .     A
C1346  H1387   1.083   .     S
C1347  C1365   1.400   .     A
C1347  C1366   1.403   .     A
C1347  C1356   1.450   .     S
C1348  C1364   1.400   .     A
C1349  C1353   1.524   .     S
C1349  N1392   1.399   .     A
C1350  N1391   1.399   .     A
C1350  C1357   1.524   .     S
C1350  C344    1.424   1_556 S
C1351  H1388   1.077   .     S
C1351  N1391   1.350   .     A
C1351  C341    1.424   1_556 S
C1352  N1392   1.350   .     A
C1352  H1389   1.077   .     S
C1353  C1354   1.542   .     S
C1353  H1374   1.095   .     S
C1353  H1375   1.111   .     S
C1354  C1355   1.528   .     S
C1355  H1371   1.110   .     S
C1355  H1390   1.111   .     S
C1355  H1482   1.111   1_455 S
C1356  O1394   1.296   .     A
C1356  O1396   1.300   .     A
C1357  C1358   1.542   .     S
C1357  H1382   1.111   .     S
C1357  H1383   1.095   .     S
C1358  C1359   1.528   .     S
C1358  H371    1.112   1_556 S
C1358  H373    1.111   1_556 S
C1359  H1378   1.110   .     S
C1359  H1377   1.111   .     S
C1359  H1432   1.111   .     S
C1360  O1399   1.300   .     A
C1360  O1397   1.288   .     A
C1360  C1362   1.437   .     S
C1361  O1400   1.300   .     A
C1361  C1363   1.437   .     S
C1361  O1398   1.288   .     A
C1362  C1475   1.343   1_455 S
C1362  H1481   1.087   1_455 S
C1363  C1418   1.343   .     S
C1363  H1436   1.087   .     S
C1364  H1384   1.083   .     S
C1365  H1385   1.083   .     S
C1365  C1010   1.384   1_565 S
C1366  H1386   1.083   .     S
C1366  C1028   1.384   1_565 S
Cu1367 Cu1368  2.700   .     S
Cu1367 O1396   1.966   .     S
Cu1367 O1397   1.946   .     S
Cu1367 O1393   1.962   .     S
Cu1367 O1400   1.956   .     S
Cu1367 N1391   2.029   .     S
Cu1368 O1395   1.966   .     S
Cu1368 O1399   1.956   .     S
Cu1368 O1394   1.962   .     S
Cu1368 O1398   1.946   .     S
Cu1368 N1392   2.029   .     S
H1369  C1418   1.087   .     S
H1370  C1411   1.111   .     S
H1372  C346    1.111   1_556 S
H1373  C346    1.112   1_556 S
H1376  C1471   1.111   1_455 S
H1380  C1475   1.087   1_455 S
C1401  C1404   1.450   .     S
C1401  O1451   1.300   .     A
C1401  O1449   1.296   .     A
C1402  C1404   1.403   .     A
C1402  H1443   1.083   .     S
C1403  C1421   1.400   .     A
C1403  C1422   1.403   .     A
C1403  C1412   1.450   .     S
C1404  C1420   1.400   .     A
C1405  C1409   1.524   .     S
C1405  N1448   1.399   .     A
C1406  N1447   1.399   .     A
C1406  C1413   1.524   .     S
C1406  C400    1.424   1_556 S
C1407  H1444   1.077   .     S
C1407  N1447   1.350   .     A
C1407  C397    1.424   1_556 S
C1408  N1448   1.350   .     A
C1408  H1445   1.077   .     S
C1409  C1410   1.542   .     S
C1409  H1430   1.095   .     S
C1409  H1431   1.111   .     S
C1410  C1411   1.528   .     S
C1411  H1427   1.110   .     S
C1411  H1446   1.111   .     S
C1412  O1450   1.296   .     A
C1412  O1452   1.300   .     A
C1413  C1414   1.542   .     S
C1413  H1438   1.111   .     S
C1413  H1439   1.095   .     S
C1414  C1415   1.528   .     S
C1414  H427    1.112   1_556 S
C1414  H429    1.111   1_556 S
C1415  H1434   1.110   .     S
C1415  H1433   1.111   .     S
C1415  H1488   1.111   .     S
C1416  O1455   1.300   .     A
C1416  O1453   1.288   .     A
C1416  C1418   1.437   .     S
C1417  O1456   1.300   .     A
C1417  C1419   1.437   .     S
C1417  O1454   1.288   .     A
C1419  C1474   1.343   .     S
C1419  H1492   1.087   .     S
C1420  H1440   1.083   .     S
C1421  H1441   1.083   .     S
C1421  C1066   1.384   1_565 S
C1422  H1442   1.083   .     S
C1422  C1084   1.384   1_565 S
Cu1423 Cu1424  2.700   .     S
Cu1423 O1452   1.966   .     S
Cu1423 O1453   1.946   .     S
Cu1423 O1449   1.962   .     S
Cu1423 O1456   1.956   .     S
Cu1423 N1447   2.029   .     S
Cu1424 O1451   1.966   .     S
Cu1424 O1455   1.956   .     S
Cu1424 O1450   1.962   .     S
Cu1424 O1454   1.946   .     S
Cu1424 N1448   2.029   .     S
H1425  C1474   1.087   .     S
H1426  C1467   1.111   .     S
H1428  C402    1.111   1_556 S
H1429  C402    1.112   1_556 S
C1457  C1460   1.450   .     S
C1457  O1507   1.300   .     A
C1457  O1505   1.296   .     A
C1458  C1460   1.403   .     A
C1458  H1499   1.083   .     S
C1459  C1477   1.400   .     A
C1459  C1478   1.403   .     A
C1459  C1468   1.450   .     S
C1460  C1476   1.400   .     A
C1461  C1465   1.524   .     S
C1461  N1504   1.399   .     A
C1462  N1503   1.399   .     A
C1462  C1469   1.524   .     S
C1462  C456    1.424   1_556 S
C1463  H1500   1.077   .     S
C1463  N1503   1.350   .     A
C1463  C453    1.424   1_556 S
C1464  N1504   1.350   .     A
C1464  H1501   1.077   .     S
C1465  C1466   1.542   .     S
C1465  H1486   1.095   .     S
C1465  H1487   1.111   .     S
C1466  C1467   1.528   .     S
C1467  H1483   1.110   .     S
C1467  H1502   1.111   .     S
C1468  O1506   1.296   .     A
C1468  O1508   1.300   .     A
C1469  C1470   1.542   .     S
C1469  H1494   1.111   .     S
C1469  H1495   1.095   .     S
C1470  C1471   1.528   .     S
C1470  H483    1.112   1_556 S
C1470  H485    1.111   1_556 S
C1471  H1490   1.110   .     S
C1471  H1489   1.111   .     S
C1471  H1376   1.111   1_655 S
C1472  O1511   1.300   .     A
C1472  O1509   1.288   .     A
C1472  C1474   1.437   .     S
C1473  O1512   1.300   .     A
C1473  C1475   1.437   .     S
C1473  O1510   1.288   .     A
C1475  C1362   1.343   1_655 S
C1475  H1380   1.087   1_655 S
C1476  H1496   1.083   .     S
C1477  H1497   1.083   .     S
C1477  C1122   1.384   1_565 S
C1478  H1498   1.083   .     S
C1478  C1140   1.384   1_565 S
Cu1479 Cu1480  2.700   .     S
Cu1479 O1508   1.966   .     S
Cu1479 O1509   1.946   .     S
Cu1479 O1505   1.962   .     S
Cu1479 O1512   1.956   .     S
Cu1479 N1503   2.029   .     S
Cu1480 O1507   1.966   .     S
Cu1480 O1511   1.956   .     S
Cu1480 O1506   1.962   .     S
Cu1480 O1510   1.946   .     S
Cu1480 N1504   2.029   .     S
H1481  C1362   1.087   1_655 S
H1482  C1355   1.111   1_655 S
H1484  C458    1.111   1_556 S
H1485  C458    1.112   1_556 S
