data_str_m2_o10_o18_pcu_sym.14
_audit_creation_date              2020-01-03
_audit_creation_method            'Materials Studio'
_symmetry_space_group_name_H-M    'P1'
_symmetry_Int_Tables_number       1
_symmetry_cell_setting            triclinic
loop_
_symmetry_equiv_pos_as_xyz
  x,y,z
_cell_length_a                    22.2641
_cell_length_b                    26.0863
_cell_length_c                    31.6677
_cell_angle_alpha                 94.2578
_cell_angle_beta                  74.5896
_cell_angle_gamma                 103.2306
loop_
_atom_site_label
_atom_site_type_symbol
_atom_site_fract_x
_atom_site_fract_y
_atom_site_fract_z
_atom_site_U_iso_or_equiv
_atom_site_adp_type
_atom_site_occupancy
Br1    Br    0.02557   0.22904   0.12928   0.00000  Uiso   1.00
Br2    Br    0.30777   0.10428   0.37072   0.00000  Uiso   1.00
C3     C     0.18172   0.26674   0.25130   0.00000  Uiso   1.00
C4     C     0.20595   0.17145   0.16673   0.00000  Uiso   1.00
C5     C     0.10270   0.15507   0.38116   0.00000  Uiso   1.00
C6     C     0.23064   0.17826   0.11884   0.00000  Uiso   1.00
C7     C     0.02300   0.11803   0.44597   0.00000  Uiso   1.00
C8     C     0.31034   0.21529   0.05402   0.00000  Uiso   1.00
C9     C     0.03967   0.12894   0.40141   0.00000  Uiso   1.00
C10    C     0.29367   0.20438   0.09859   0.00000  Uiso   1.00
C11    C     0.14648   0.17164   0.40676   0.00000  Uiso   1.00
C12    C     0.18685   0.16170   0.09324   0.00000  Uiso   1.00
C13    C     0.13087   0.16000   0.45158   0.00000  Uiso   1.00
C14    C     0.15162   0.06659   0.24870   0.00000  Uiso   1.00
C15    C     0.20246   0.17332   0.04842   0.00000  Uiso   1.00
C16    C     0.06793   0.13242   0.47084   0.00000  Uiso   1.00
C17    C     0.26541   0.20090   0.02916   0.00000  Uiso   1.00
C18    C     0.17614   0.17389   0.47749   0.00000  Uiso   1.00
C19    C     0.15720   0.15943   0.02251   0.00000  Uiso   1.00
C20    C     0.09360   0.13186   0.04009   0.00000  Uiso   1.00
C21    C     0.23974   0.20147   0.45991   0.00000  Uiso   1.00
C22    C     0.05017   0.11880   0.01471   0.00000  Uiso   1.00
C23    C     0.28317   0.21452   0.48528   0.00000  Uiso   1.00
C24    C     0.19019   0.32270   0.25195   0.00000  Uiso   1.00
C25    C     0.14314   0.01063   0.24805   0.00000  Uiso   1.00
C26    C     0.12738   0.16188   0.33327   0.00000  Uiso   1.00
Cu27   Cu    0.10737   0.16108   0.24517   0.00000  Uiso   1.00
Cu28   Cu    0.22596   0.17225   0.25484   0.00000  Uiso   1.00
H29    H     0.00199   0.09772   0.02971   0.00000  Uiso   1.00
H30    H     0.09781   0.32014   0.24437   0.00000  Uiso   1.00
H31    H     0.00118   0.20480   0.28453   0.00000  Uiso   1.00
H32    H     0.33216   0.12854   0.21547   0.00000  Uiso   1.00
H33    H     0.33135   0.23559   0.47029   0.00000  Uiso   1.00
H34    H     0.14004   0.14062   0.10971   0.00000  Uiso   1.00
H35    H     0.19329   0.19272   0.39029   0.00000  Uiso   1.00
H36    H     0.30807   0.09731   0.46116   0.00000  Uiso   1.00
H37    H     0.02527   0.23600   0.03884   0.00000  Uiso   1.00
H38    H     0.07506   0.11941   0.07354   0.00000  Uiso   1.00
H39    H     0.25829   0.21391   0.42646   0.00000  Uiso   1.00
H40    H     0.23552   0.01319   0.25564   0.00000  Uiso   1.00
N41    N     0.31506   0.18068   0.26212   0.00000  Uiso   1.00
N42    N     0.01827   0.15265   0.23788   0.00000  Uiso   1.00
O43    O     0.12815   0.23809   0.24686   0.00000  Uiso   1.00
O44    O     0.20518   0.09524   0.25314   0.00000  Uiso   1.00
O45    O     0.22829   0.24753   0.25503   0.00000  Uiso   1.00
O46    O     0.10504   0.08580   0.24498   0.00000  Uiso   1.00
O47    O     0.08851   0.15930   0.30855   0.00000  Uiso   1.00
O48    O     0.24482   0.17403   0.19146   0.00000  Uiso   1.00
O49    O     0.18866   0.16874   0.31671   0.00000  Uiso   1.00
O50    O     0.14468   0.16460   0.18329   0.00000  Uiso   1.00
Br51   Br    0.35890   0.22904   0.12928   0.00000  Uiso   1.00
Br52   Br    0.64110   0.10428   0.37072   0.00000  Uiso   1.00
C53    C     0.51505   0.26674   0.25130   0.00000  Uiso   1.00
C54    C     0.53929   0.17145   0.16673   0.00000  Uiso   1.00
C55    C     0.43603   0.15507   0.38116   0.00000  Uiso   1.00
C56    C     0.56397   0.17826   0.11884   0.00000  Uiso   1.00
C57    C     0.35633   0.11803   0.44597   0.00000  Uiso   1.00
C58    C     0.64368   0.21529   0.05402   0.00000  Uiso   1.00
C59    C     0.37300   0.12894   0.40141   0.00000  Uiso   1.00
C60    C     0.62700   0.20438   0.09859   0.00000  Uiso   1.00
C61    C     0.47981   0.17164   0.40676   0.00000  Uiso   1.00
C62    C     0.52019   0.16170   0.09324   0.00000  Uiso   1.00
C63    C     0.46421   0.16000   0.45158   0.00000  Uiso   1.00
C64    C     0.48495   0.06659   0.24870   0.00000  Uiso   1.00
C65    C     0.53580   0.17332   0.04842   0.00000  Uiso   1.00
C66    C     0.40126   0.13242   0.47084   0.00000  Uiso   1.00
C67    C     0.59875   0.20090   0.02916   0.00000  Uiso   1.00
C68    C     0.50947   0.17389   0.47749   0.00000  Uiso   1.00
C69    C     0.49053   0.15943   0.02251   0.00000  Uiso   1.00
C70    C     0.42694   0.13186   0.04009   0.00000  Uiso   1.00
C71    C     0.57307   0.20147   0.45991   0.00000  Uiso   1.00
C72    C     0.38351   0.11880   0.01471   0.00000  Uiso   1.00
C73    C     0.61650   0.21452   0.48528   0.00000  Uiso   1.00
C74    C     0.52352   0.32270   0.25195   0.00000  Uiso   1.00
C75    C     0.47648   0.01063   0.24805   0.00000  Uiso   1.00
C76    C     0.46071   0.16188   0.33327   0.00000  Uiso   1.00
Cu77   Cu    0.44071   0.16108   0.24517   0.00000  Uiso   1.00
Cu78   Cu    0.55929   0.17225   0.25484   0.00000  Uiso   1.00
H79    H     0.33532   0.09772   0.02971   0.00000  Uiso   1.00
H80    H     0.43115   0.32014   0.24437   0.00000  Uiso   1.00
H81    H     0.33451   0.20480   0.28453   0.00000  Uiso   1.00
H82    H     0.66549   0.12854   0.21547   0.00000  Uiso   1.00
H83    H     0.66468   0.23559   0.47029   0.00000  Uiso   1.00
H84    H     0.47337   0.14062   0.10971   0.00000  Uiso   1.00
H85    H     0.52663   0.19272   0.39029   0.00000  Uiso   1.00
H86    H     0.64140   0.09731   0.46116   0.00000  Uiso   1.00
H87    H     0.35861   0.23600   0.03884   0.00000  Uiso   1.00
H88    H     0.40839   0.11941   0.07354   0.00000  Uiso   1.00
H89    H     0.59162   0.21391   0.42646   0.00000  Uiso   1.00
H90    H     0.56885   0.01319   0.25564   0.00000  Uiso   1.00
N91    N     0.64839   0.18068   0.26212   0.00000  Uiso   1.00
N92    N     0.35161   0.15265   0.23788   0.00000  Uiso   1.00
O93    O     0.46148   0.23809   0.24686   0.00000  Uiso   1.00
O94    O     0.53852   0.09524   0.25314   0.00000  Uiso   1.00
O95    O     0.56163   0.24753   0.25503   0.00000  Uiso   1.00
O96    O     0.43837   0.08580   0.24498   0.00000  Uiso   1.00
O97    O     0.42185   0.15930   0.30855   0.00000  Uiso   1.00
O98    O     0.57815   0.17403   0.19146   0.00000  Uiso   1.00
O99    O     0.52199   0.16874   0.31671   0.00000  Uiso   1.00
O100   O     0.47801   0.16460   0.18329   0.00000  Uiso   1.00
Br101  Br    0.69223   0.22904   0.12928   0.00000  Uiso   1.00
Br102  Br    0.97444   0.10428   0.37072   0.00000  Uiso   1.00
C103   C     0.84838   0.26674   0.25130   0.00000  Uiso   1.00
C104   C     0.87262   0.17145   0.16673   0.00000  Uiso   1.00
C105   C     0.76936   0.15507   0.38116   0.00000  Uiso   1.00
C106   C     0.89730   0.17826   0.11884   0.00000  Uiso   1.00
C107   C     0.68966   0.11803   0.44597   0.00000  Uiso   1.00
C108   C     0.97701   0.21529   0.05402   0.00000  Uiso   1.00
C109   C     0.70633   0.12894   0.40141   0.00000  Uiso   1.00
C110   C     0.96034   0.20438   0.09859   0.00000  Uiso   1.00
C111   C     0.81315   0.17164   0.40676   0.00000  Uiso   1.00
C112   C     0.85352   0.16170   0.09324   0.00000  Uiso   1.00
C113   C     0.79754   0.16000   0.45158   0.00000  Uiso   1.00
C114   C     0.81828   0.06659   0.24870   0.00000  Uiso   1.00
C115   C     0.86913   0.17332   0.04842   0.00000  Uiso   1.00
C116   C     0.73459   0.13242   0.47084   0.00000  Uiso   1.00
C117   C     0.93208   0.20090   0.02916   0.00000  Uiso   1.00
C118   C     0.84280   0.17389   0.47749   0.00000  Uiso   1.00
C119   C     0.82387   0.15943   0.02251   0.00000  Uiso   1.00
C120   C     0.76027   0.13186   0.04009   0.00000  Uiso   1.00
C121   C     0.90640   0.20147   0.45991   0.00000  Uiso   1.00
C122   C     0.71684   0.11880   0.01471   0.00000  Uiso   1.00
C123   C     0.94984   0.21452   0.48528   0.00000  Uiso   1.00
C124   C     0.85686   0.32270   0.25195   0.00000  Uiso   1.00
C125   C     0.80981   0.01063   0.24805   0.00000  Uiso   1.00
C126   C     0.79405   0.16188   0.33327   0.00000  Uiso   1.00
Cu127  Cu    0.77404   0.16108   0.24517   0.00000  Uiso   1.00
Cu128  Cu    0.89263   0.17225   0.25484   0.00000  Uiso   1.00
H129   H     0.66866   0.09772   0.02971   0.00000  Uiso   1.00
H130   H     0.76448   0.32014   0.24437   0.00000  Uiso   1.00
H131   H     0.66784   0.20480   0.28453   0.00000  Uiso   1.00
H132   H     0.99882   0.12854   0.21547   0.00000  Uiso   1.00
H133   H     0.99802   0.23559   0.47029   0.00000  Uiso   1.00
H134   H     0.80670   0.14062   0.10971   0.00000  Uiso   1.00
H135   H     0.85996   0.19272   0.39029   0.00000  Uiso   1.00
H136   H     0.97473   0.09731   0.46116   0.00000  Uiso   1.00
H137   H     0.69194   0.23600   0.03884   0.00000  Uiso   1.00
H138   H     0.74173   0.11941   0.07354   0.00000  Uiso   1.00
H139   H     0.92495   0.21391   0.42646   0.00000  Uiso   1.00
H140   H     0.90218   0.01319   0.25564   0.00000  Uiso   1.00
N141   N     0.98173   0.18068   0.26212   0.00000  Uiso   1.00
N142   N     0.68494   0.15265   0.23788   0.00000  Uiso   1.00
O143   O     0.79482   0.23809   0.24686   0.00000  Uiso   1.00
O144   O     0.87185   0.09524   0.25314   0.00000  Uiso   1.00
O145   O     0.89496   0.24753   0.25503   0.00000  Uiso   1.00
O146   O     0.77171   0.08580   0.24498   0.00000  Uiso   1.00
O147   O     0.75518   0.15930   0.30855   0.00000  Uiso   1.00
O148   O     0.91149   0.17403   0.19146   0.00000  Uiso   1.00
O149   O     0.85532   0.16874   0.31671   0.00000  Uiso   1.00
O150   O     0.81134   0.16460   0.18329   0.00000  Uiso   1.00
Br151  Br    0.02557   0.56237   0.12928   0.00000  Uiso   1.00
Br152  Br    0.30777   0.43762   0.37072   0.00000  Uiso   1.00
C153   C     0.18172   0.60007   0.25130   0.00000  Uiso   1.00
C154   C     0.20595   0.50478   0.16673   0.00000  Uiso   1.00
C155   C     0.10270   0.48841   0.38116   0.00000  Uiso   1.00
C156   C     0.23064   0.51159   0.11884   0.00000  Uiso   1.00
C157   C     0.02300   0.45136   0.44597   0.00000  Uiso   1.00
C158   C     0.31034   0.54862   0.05402   0.00000  Uiso   1.00
C159   C     0.03967   0.46227   0.40141   0.00000  Uiso   1.00
C160   C     0.29367   0.53772   0.09859   0.00000  Uiso   1.00
C161   C     0.14648   0.50497   0.40676   0.00000  Uiso   1.00
C162   C     0.18685   0.49503   0.09324   0.00000  Uiso   1.00
C163   C     0.13087   0.49334   0.45158   0.00000  Uiso   1.00
C164   C     0.15162   0.39993   0.24870   0.00000  Uiso   1.00
C165   C     0.20246   0.50666   0.04842   0.00000  Uiso   1.00
C166   C     0.06793   0.46576   0.47084   0.00000  Uiso   1.00
C167   C     0.26541   0.53423   0.02916   0.00000  Uiso   1.00
C168   C     0.17614   0.50722   0.47749   0.00000  Uiso   1.00
C169   C     0.15720   0.49277   0.02251   0.00000  Uiso   1.00
C170   C     0.09360   0.46519   0.04009   0.00000  Uiso   1.00
C171   C     0.23974   0.53480   0.45991   0.00000  Uiso   1.00
C172   C     0.05017   0.45213   0.01471   0.00000  Uiso   1.00
C173   C     0.28317   0.54786   0.48528   0.00000  Uiso   1.00
C174   C     0.19019   0.65604   0.25195   0.00000  Uiso   1.00
C175   C     0.14314   0.34396   0.24805   0.00000  Uiso   1.00
C176   C     0.12738   0.49522   0.33327   0.00000  Uiso   1.00
Cu177  Cu    0.10737   0.49441   0.24517   0.00000  Uiso   1.00
Cu178  Cu    0.22596   0.50559   0.25484   0.00000  Uiso   1.00
H179   H     0.00199   0.43106   0.02971   0.00000  Uiso   1.00
H180   H     0.09781   0.65347   0.24437   0.00000  Uiso   1.00
H181   H     0.00118   0.53813   0.28453   0.00000  Uiso   1.00
H182   H     0.33216   0.46187   0.21547   0.00000  Uiso   1.00
H183   H     0.33135   0.56893   0.47029   0.00000  Uiso   1.00
H184   H     0.14004   0.47396   0.10971   0.00000  Uiso   1.00
H185   H     0.19329   0.52605   0.39029   0.00000  Uiso   1.00
H186   H     0.30807   0.43065   0.46116   0.00000  Uiso   1.00
H187   H     0.02527   0.56934   0.03884   0.00000  Uiso   1.00
H188   H     0.07506   0.45274   0.07354   0.00000  Uiso   1.00
H189   H     0.25829   0.54724   0.42646   0.00000  Uiso   1.00
H190   H     0.23552   0.34653   0.25564   0.00000  Uiso   1.00
N191   N     0.31506   0.51401   0.26212   0.00000  Uiso   1.00
N192   N     0.01827   0.48599   0.23788   0.00000  Uiso   1.00
O193   O     0.12815   0.57142   0.24686   0.00000  Uiso   1.00
O194   O     0.20518   0.42858   0.25314   0.00000  Uiso   1.00
O195   O     0.22829   0.58086   0.25503   0.00000  Uiso   1.00
O196   O     0.10504   0.41914   0.24498   0.00000  Uiso   1.00
O197   O     0.08851   0.49263   0.30855   0.00000  Uiso   1.00
O198   O     0.24482   0.50737   0.19146   0.00000  Uiso   1.00
O199   O     0.18866   0.50207   0.31671   0.00000  Uiso   1.00
O200   O     0.14468   0.49793   0.18329   0.00000  Uiso   1.00
Br201  Br    0.35890   0.56237   0.12928   0.00000  Uiso   1.00
Br202  Br    0.64110   0.43762   0.37072   0.00000  Uiso   1.00
C203   C     0.51505   0.60007   0.25130   0.00000  Uiso   1.00
C204   C     0.53929   0.50478   0.16673   0.00000  Uiso   1.00
C205   C     0.43603   0.48841   0.38116   0.00000  Uiso   1.00
C206   C     0.56397   0.51159   0.11884   0.00000  Uiso   1.00
C207   C     0.35633   0.45136   0.44597   0.00000  Uiso   1.00
C208   C     0.64368   0.54862   0.05402   0.00000  Uiso   1.00
C209   C     0.37300   0.46227   0.40141   0.00000  Uiso   1.00
C210   C     0.62700   0.53772   0.09859   0.00000  Uiso   1.00
C211   C     0.47981   0.50497   0.40676   0.00000  Uiso   1.00
C212   C     0.52019   0.49503   0.09324   0.00000  Uiso   1.00
C213   C     0.46421   0.49334   0.45158   0.00000  Uiso   1.00
C214   C     0.48495   0.39993   0.24870   0.00000  Uiso   1.00
C215   C     0.53580   0.50666   0.04842   0.00000  Uiso   1.00
C216   C     0.40126   0.46576   0.47084   0.00000  Uiso   1.00
C217   C     0.59875   0.53423   0.02916   0.00000  Uiso   1.00
C218   C     0.50947   0.50722   0.47749   0.00000  Uiso   1.00
C219   C     0.49053   0.49277   0.02251   0.00000  Uiso   1.00
C220   C     0.42694   0.46519   0.04009   0.00000  Uiso   1.00
C221   C     0.57307   0.53480   0.45991   0.00000  Uiso   1.00
C222   C     0.38351   0.45213   0.01471   0.00000  Uiso   1.00
C223   C     0.61650   0.54786   0.48528   0.00000  Uiso   1.00
C224   C     0.52352   0.65604   0.25195   0.00000  Uiso   1.00
C225   C     0.47648   0.34396   0.24805   0.00000  Uiso   1.00
C226   C     0.46071   0.49522   0.33327   0.00000  Uiso   1.00
Cu227  Cu    0.44071   0.49441   0.24517   0.00000  Uiso   1.00
Cu228  Cu    0.55929   0.50559   0.25484   0.00000  Uiso   1.00
H229   H     0.33532   0.43106   0.02971   0.00000  Uiso   1.00
H230   H     0.43115   0.65347   0.24437   0.00000  Uiso   1.00
H231   H     0.33451   0.53813   0.28453   0.00000  Uiso   1.00
H232   H     0.66549   0.46187   0.21547   0.00000  Uiso   1.00
H233   H     0.66468   0.56893   0.47029   0.00000  Uiso   1.00
H234   H     0.47337   0.47396   0.10971   0.00000  Uiso   1.00
H235   H     0.52663   0.52605   0.39029   0.00000  Uiso   1.00
H236   H     0.64140   0.43065   0.46116   0.00000  Uiso   1.00
H237   H     0.35861   0.56934   0.03884   0.00000  Uiso   1.00
H238   H     0.40839   0.45274   0.07354   0.00000  Uiso   1.00
H239   H     0.59162   0.54724   0.42646   0.00000  Uiso   1.00
H240   H     0.56885   0.34653   0.25564   0.00000  Uiso   1.00
N241   N     0.64839   0.51401   0.26212   0.00000  Uiso   1.00
N242   N     0.35161   0.48599   0.23788   0.00000  Uiso   1.00
O243   O     0.46148   0.57142   0.24686   0.00000  Uiso   1.00
O244   O     0.53852   0.42858   0.25314   0.00000  Uiso   1.00
O245   O     0.56163   0.58086   0.25503   0.00000  Uiso   1.00
O246   O     0.43837   0.41914   0.24498   0.00000  Uiso   1.00
O247   O     0.42185   0.49263   0.30855   0.00000  Uiso   1.00
O248   O     0.57815   0.50737   0.19146   0.00000  Uiso   1.00
O249   O     0.52199   0.50207   0.31671   0.00000  Uiso   1.00
O250   O     0.47801   0.49793   0.18329   0.00000  Uiso   1.00
Br251  Br    0.69223   0.56237   0.12928   0.00000  Uiso   1.00
Br252  Br    0.97444   0.43762   0.37072   0.00000  Uiso   1.00
C253   C     0.84838   0.60007   0.25130   0.00000  Uiso   1.00
C254   C     0.87262   0.50478   0.16673   0.00000  Uiso   1.00
C255   C     0.76936   0.48841   0.38116   0.00000  Uiso   1.00
C256   C     0.89730   0.51159   0.11884   0.00000  Uiso   1.00
C257   C     0.68966   0.45136   0.44597   0.00000  Uiso   1.00
C258   C     0.97701   0.54862   0.05402   0.00000  Uiso   1.00
C259   C     0.70633   0.46227   0.40141   0.00000  Uiso   1.00
C260   C     0.96034   0.53772   0.09859   0.00000  Uiso   1.00
C261   C     0.81315   0.50497   0.40676   0.00000  Uiso   1.00
C262   C     0.85352   0.49503   0.09324   0.00000  Uiso   1.00
C263   C     0.79754   0.49334   0.45158   0.00000  Uiso   1.00
C264   C     0.81828   0.39993   0.24870   0.00000  Uiso   1.00
C265   C     0.86913   0.50666   0.04842   0.00000  Uiso   1.00
C266   C     0.73459   0.46576   0.47084   0.00000  Uiso   1.00
C267   C     0.93208   0.53423   0.02916   0.00000  Uiso   1.00
C268   C     0.84280   0.50722   0.47749   0.00000  Uiso   1.00
C269   C     0.82387   0.49277   0.02251   0.00000  Uiso   1.00
C270   C     0.76027   0.46519   0.04009   0.00000  Uiso   1.00
C271   C     0.90640   0.53480   0.45991   0.00000  Uiso   1.00
C272   C     0.71684   0.45213   0.01471   0.00000  Uiso   1.00
C273   C     0.94984   0.54786   0.48528   0.00000  Uiso   1.00
C274   C     0.85686   0.65604   0.25195   0.00000  Uiso   1.00
C275   C     0.80981   0.34396   0.24805   0.00000  Uiso   1.00
C276   C     0.79405   0.49522   0.33327   0.00000  Uiso   1.00
Cu277  Cu    0.77404   0.49441   0.24517   0.00000  Uiso   1.00
Cu278  Cu    0.89263   0.50559   0.25484   0.00000  Uiso   1.00
H279   H     0.66866   0.43106   0.02971   0.00000  Uiso   1.00
H280   H     0.76448   0.65347   0.24437   0.00000  Uiso   1.00
H281   H     0.66784   0.53813   0.28453   0.00000  Uiso   1.00
H282   H     0.99882   0.46187   0.21547   0.00000  Uiso   1.00
H283   H     0.99802   0.56893   0.47029   0.00000  Uiso   1.00
H284   H     0.80670   0.47396   0.10971   0.00000  Uiso   1.00
H285   H     0.85996   0.52605   0.39029   0.00000  Uiso   1.00
H286   H     0.97473   0.43065   0.46116   0.00000  Uiso   1.00
H287   H     0.69194   0.56934   0.03884   0.00000  Uiso   1.00
H288   H     0.74173   0.45274   0.07354   0.00000  Uiso   1.00
H289   H     0.92495   0.54724   0.42646   0.00000  Uiso   1.00
H290   H     0.90218   0.34653   0.25564   0.00000  Uiso   1.00
N291   N     0.98173   0.51401   0.26212   0.00000  Uiso   1.00
N292   N     0.68494   0.48599   0.23788   0.00000  Uiso   1.00
O293   O     0.79482   0.57142   0.24686   0.00000  Uiso   1.00
O294   O     0.87185   0.42858   0.25314   0.00000  Uiso   1.00
O295   O     0.89496   0.58086   0.25503   0.00000  Uiso   1.00
O296   O     0.77171   0.41914   0.24498   0.00000  Uiso   1.00
O297   O     0.75518   0.49263   0.30855   0.00000  Uiso   1.00
O298   O     0.91149   0.50737   0.19146   0.00000  Uiso   1.00
O299   O     0.85532   0.50207   0.31671   0.00000  Uiso   1.00
O300   O     0.81134   0.49793   0.18329   0.00000  Uiso   1.00
Br301  Br    0.02557   0.89571   0.12928   0.00000  Uiso   1.00
Br302  Br    0.30777   0.77095   0.37072   0.00000  Uiso   1.00
C303   C     0.18172   0.93341   0.25130   0.00000  Uiso   1.00
C304   C     0.20595   0.83812   0.16673   0.00000  Uiso   1.00
C305   C     0.10270   0.82174   0.38116   0.00000  Uiso   1.00
C306   C     0.23064   0.84492   0.11884   0.00000  Uiso   1.00
C307   C     0.02300   0.78470   0.44597   0.00000  Uiso   1.00
C308   C     0.31034   0.88196   0.05402   0.00000  Uiso   1.00
C309   C     0.03967   0.79561   0.40141   0.00000  Uiso   1.00
C310   C     0.29367   0.87105   0.09859   0.00000  Uiso   1.00
C311   C     0.14648   0.83830   0.40676   0.00000  Uiso   1.00
C312   C     0.18685   0.82836   0.09324   0.00000  Uiso   1.00
C313   C     0.13087   0.82667   0.45158   0.00000  Uiso   1.00
C314   C     0.15162   0.73326   0.24870   0.00000  Uiso   1.00
C315   C     0.20246   0.83999   0.04842   0.00000  Uiso   1.00
C316   C     0.06793   0.79909   0.47084   0.00000  Uiso   1.00
C317   C     0.26541   0.86757   0.02916   0.00000  Uiso   1.00
C318   C     0.17614   0.84056   0.47749   0.00000  Uiso   1.00
C319   C     0.15720   0.82610   0.02251   0.00000  Uiso   1.00
C320   C     0.09360   0.79852   0.04009   0.00000  Uiso   1.00
C321   C     0.23974   0.86813   0.45991   0.00000  Uiso   1.00
C322   C     0.05017   0.78546   0.01471   0.00000  Uiso   1.00
C323   C     0.28317   0.88119   0.48528   0.00000  Uiso   1.00
C324   C     0.19019   0.98937   0.25195   0.00000  Uiso   1.00
C325   C     0.14314   0.67730   0.24805   0.00000  Uiso   1.00
C326   C     0.12738   0.82855   0.33327   0.00000  Uiso   1.00
Cu327  Cu    0.10737   0.82775   0.24517   0.00000  Uiso   1.00
Cu328  Cu    0.22596   0.83892   0.25484   0.00000  Uiso   1.00
H329   H     0.00199   0.76439   0.02971   0.00000  Uiso   1.00
H330   H     0.09781   0.98681   0.24437   0.00000  Uiso   1.00
H331   H     0.00118   0.87146   0.28453   0.00000  Uiso   1.00
H332   H     0.33216   0.79520   0.21547   0.00000  Uiso   1.00
H333   H     0.33135   0.90226   0.47029   0.00000  Uiso   1.00
H334   H     0.14004   0.80729   0.10971   0.00000  Uiso   1.00
H335   H     0.19329   0.85939   0.39029   0.00000  Uiso   1.00
H336   H     0.30807   0.76398   0.46116   0.00000  Uiso   1.00
H337   H     0.02527   0.90267   0.03884   0.00000  Uiso   1.00
H338   H     0.07506   0.78608   0.07354   0.00000  Uiso   1.00
H339   H     0.25829   0.88057   0.42646   0.00000  Uiso   1.00
H340   H     0.23552   0.67986   0.25564   0.00000  Uiso   1.00
N341   N     0.31506   0.84735   0.26212   0.00000  Uiso   1.00
N342   N     0.01827   0.81932   0.23788   0.00000  Uiso   1.00
O343   O     0.12815   0.90476   0.24686   0.00000  Uiso   1.00
O344   O     0.20518   0.76191   0.25314   0.00000  Uiso   1.00
O345   O     0.22829   0.91420   0.25503   0.00000  Uiso   1.00
O346   O     0.10504   0.75247   0.24498   0.00000  Uiso   1.00
O347   O     0.08851   0.82597   0.30855   0.00000  Uiso   1.00
O348   O     0.24482   0.84070   0.19146   0.00000  Uiso   1.00
O349   O     0.18866   0.83540   0.31671   0.00000  Uiso   1.00
O350   O     0.14468   0.83126   0.18329   0.00000  Uiso   1.00
Br351  Br    0.35890   0.89571   0.12928   0.00000  Uiso   1.00
Br352  Br    0.64110   0.77095   0.37072   0.00000  Uiso   1.00
C353   C     0.51505   0.93341   0.25130   0.00000  Uiso   1.00
C354   C     0.53929   0.83812   0.16673   0.00000  Uiso   1.00
C355   C     0.43603   0.82174   0.38116   0.00000  Uiso   1.00
C356   C     0.56397   0.84492   0.11884   0.00000  Uiso   1.00
C357   C     0.35633   0.78470   0.44597   0.00000  Uiso   1.00
C358   C     0.64368   0.88196   0.05402   0.00000  Uiso   1.00
C359   C     0.37300   0.79561   0.40141   0.00000  Uiso   1.00
C360   C     0.62700   0.87105   0.09859   0.00000  Uiso   1.00
C361   C     0.47981   0.83830   0.40676   0.00000  Uiso   1.00
C362   C     0.52019   0.82836   0.09324   0.00000  Uiso   1.00
C363   C     0.46421   0.82667   0.45158   0.00000  Uiso   1.00
C364   C     0.48495   0.73326   0.24870   0.00000  Uiso   1.00
C365   C     0.53580   0.83999   0.04842   0.00000  Uiso   1.00
C366   C     0.40126   0.79909   0.47084   0.00000  Uiso   1.00
C367   C     0.59875   0.86757   0.02916   0.00000  Uiso   1.00
C368   C     0.50947   0.84056   0.47749   0.00000  Uiso   1.00
C369   C     0.49053   0.82610   0.02251   0.00000  Uiso   1.00
C370   C     0.42694   0.79852   0.04009   0.00000  Uiso   1.00
C371   C     0.57307   0.86813   0.45991   0.00000  Uiso   1.00
C372   C     0.38351   0.78546   0.01471   0.00000  Uiso   1.00
C373   C     0.61650   0.88119   0.48528   0.00000  Uiso   1.00
C374   C     0.52352   0.98937   0.25195   0.00000  Uiso   1.00
C375   C     0.47648   0.67730   0.24805   0.00000  Uiso   1.00
C376   C     0.46071   0.82855   0.33327   0.00000  Uiso   1.00
Cu377  Cu    0.44071   0.82775   0.24517   0.00000  Uiso   1.00
Cu378  Cu    0.55929   0.83892   0.25484   0.00000  Uiso   1.00
H379   H     0.33532   0.76439   0.02971   0.00000  Uiso   1.00
H380   H     0.43115   0.98681   0.24437   0.00000  Uiso   1.00
H381   H     0.33451   0.87146   0.28453   0.00000  Uiso   1.00
H382   H     0.66549   0.79520   0.21547   0.00000  Uiso   1.00
H383   H     0.66468   0.90226   0.47029   0.00000  Uiso   1.00
H384   H     0.47337   0.80729   0.10971   0.00000  Uiso   1.00
H385   H     0.52663   0.85939   0.39029   0.00000  Uiso   1.00
H386   H     0.64140   0.76398   0.46116   0.00000  Uiso   1.00
H387   H     0.35861   0.90267   0.03884   0.00000  Uiso   1.00
H388   H     0.40839   0.78608   0.07354   0.00000  Uiso   1.00
H389   H     0.59162   0.88057   0.42646   0.00000  Uiso   1.00
H390   H     0.56885   0.67986   0.25564   0.00000  Uiso   1.00
N391   N     0.64839   0.84735   0.26212   0.00000  Uiso   1.00
N392   N     0.35161   0.81932   0.23788   0.00000  Uiso   1.00
O393   O     0.46148   0.90476   0.24686   0.00000  Uiso   1.00
O394   O     0.53852   0.76191   0.25314   0.00000  Uiso   1.00
O395   O     0.56163   0.91420   0.25503   0.00000  Uiso   1.00
O396   O     0.43837   0.75247   0.24498   0.00000  Uiso   1.00
O397   O     0.42185   0.82597   0.30855   0.00000  Uiso   1.00
O398   O     0.57815   0.84070   0.19146   0.00000  Uiso   1.00
O399   O     0.52199   0.83540   0.31671   0.00000  Uiso   1.00
O400   O     0.47801   0.83126   0.18329   0.00000  Uiso   1.00
Br401  Br    0.69223   0.89571   0.12928   0.00000  Uiso   1.00
Br402  Br    0.97444   0.77095   0.37072   0.00000  Uiso   1.00
C403   C     0.84838   0.93341   0.25130   0.00000  Uiso   1.00
C404   C     0.87262   0.83812   0.16673   0.00000  Uiso   1.00
C405   C     0.76936   0.82174   0.38116   0.00000  Uiso   1.00
C406   C     0.89730   0.84492   0.11884   0.00000  Uiso   1.00
C407   C     0.68966   0.78470   0.44597   0.00000  Uiso   1.00
C408   C     0.97701   0.88196   0.05402   0.00000  Uiso   1.00
C409   C     0.70633   0.79561   0.40141   0.00000  Uiso   1.00
C410   C     0.96034   0.87105   0.09859   0.00000  Uiso   1.00
C411   C     0.81315   0.83830   0.40676   0.00000  Uiso   1.00
C412   C     0.85352   0.82836   0.09324   0.00000  Uiso   1.00
C413   C     0.79754   0.82667   0.45158   0.00000  Uiso   1.00
C414   C     0.81828   0.73326   0.24870   0.00000  Uiso   1.00
C415   C     0.86913   0.83999   0.04842   0.00000  Uiso   1.00
C416   C     0.73459   0.79909   0.47084   0.00000  Uiso   1.00
C417   C     0.93208   0.86757   0.02916   0.00000  Uiso   1.00
C418   C     0.84280   0.84056   0.47749   0.00000  Uiso   1.00
C419   C     0.82387   0.82610   0.02251   0.00000  Uiso   1.00
C420   C     0.76027   0.79852   0.04009   0.00000  Uiso   1.00
C421   C     0.90640   0.86813   0.45991   0.00000  Uiso   1.00
C422   C     0.71684   0.78546   0.01471   0.00000  Uiso   1.00
C423   C     0.94984   0.88119   0.48528   0.00000  Uiso   1.00
C424   C     0.85686   0.98937   0.25195   0.00000  Uiso   1.00
C425   C     0.80981   0.67730   0.24805   0.00000  Uiso   1.00
C426   C     0.79405   0.82855   0.33327   0.00000  Uiso   1.00
Cu427  Cu    0.77404   0.82775   0.24517   0.00000  Uiso   1.00
Cu428  Cu    0.89263   0.83892   0.25484   0.00000  Uiso   1.00
H429   H     0.66866   0.76439   0.02971   0.00000  Uiso   1.00
H430   H     0.76448   0.98681   0.24437   0.00000  Uiso   1.00
H431   H     0.66784   0.87146   0.28453   0.00000  Uiso   1.00
H432   H     0.99882   0.79520   0.21547   0.00000  Uiso   1.00
H433   H     0.99802   0.90226   0.47029   0.00000  Uiso   1.00
H434   H     0.80670   0.80729   0.10971   0.00000  Uiso   1.00
H435   H     0.85996   0.85939   0.39029   0.00000  Uiso   1.00
H436   H     0.97473   0.76398   0.46116   0.00000  Uiso   1.00
H437   H     0.69194   0.90267   0.03884   0.00000  Uiso   1.00
H438   H     0.74173   0.78608   0.07354   0.00000  Uiso   1.00
H439   H     0.92495   0.88057   0.42646   0.00000  Uiso   1.00
H440   H     0.90218   0.67986   0.25564   0.00000  Uiso   1.00
N441   N     0.98173   0.84735   0.26212   0.00000  Uiso   1.00
N442   N     0.68494   0.81932   0.23788   0.00000  Uiso   1.00
O443   O     0.79482   0.90476   0.24686   0.00000  Uiso   1.00
O444   O     0.87185   0.76191   0.25314   0.00000  Uiso   1.00
O445   O     0.89496   0.91420   0.25503   0.00000  Uiso   1.00
O446   O     0.77171   0.75247   0.24498   0.00000  Uiso   1.00
O447   O     0.75518   0.82597   0.30855   0.00000  Uiso   1.00
O448   O     0.91149   0.84070   0.19146   0.00000  Uiso   1.00
O449   O     0.85532   0.83540   0.31671   0.00000  Uiso   1.00
O450   O     0.81134   0.83126   0.18329   0.00000  Uiso   1.00
Br451  Br    0.02557   0.22904   0.62928   0.00000  Uiso   1.00
Br452  Br    0.30777   0.10428   0.87072   0.00000  Uiso   1.00
C453   C     0.18172   0.26674   0.75130   0.00000  Uiso   1.00
C454   C     0.20595   0.17145   0.66673   0.00000  Uiso   1.00
C455   C     0.10270   0.15507   0.88116   0.00000  Uiso   1.00
C456   C     0.23064   0.17826   0.61884   0.00000  Uiso   1.00
C457   C     0.02300   0.11803   0.94597   0.00000  Uiso   1.00
C458   C     0.31034   0.21529   0.55402   0.00000  Uiso   1.00
C459   C     0.03967   0.12894   0.90141   0.00000  Uiso   1.00
C460   C     0.29367   0.20438   0.59859   0.00000  Uiso   1.00
C461   C     0.14648   0.17164   0.90676   0.00000  Uiso   1.00
C462   C     0.18685   0.16170   0.59324   0.00000  Uiso   1.00
C463   C     0.13087   0.16000   0.95158   0.00000  Uiso   1.00
C464   C     0.15162   0.06659   0.74870   0.00000  Uiso   1.00
C465   C     0.20246   0.17332   0.54842   0.00000  Uiso   1.00
C466   C     0.06793   0.13242   0.97084   0.00000  Uiso   1.00
C467   C     0.26541   0.20090   0.52916   0.00000  Uiso   1.00
C468   C     0.17614   0.17389   0.97749   0.00000  Uiso   1.00
C469   C     0.15720   0.15943   0.52251   0.00000  Uiso   1.00
C470   C     0.09360   0.13186   0.54009   0.00000  Uiso   1.00
C471   C     0.23974   0.20147   0.95991   0.00000  Uiso   1.00
C472   C     0.05017   0.11880   0.51471   0.00000  Uiso   1.00
C473   C     0.28317   0.21452   0.98528   0.00000  Uiso   1.00
C474   C     0.19019   0.32270   0.75195   0.00000  Uiso   1.00
C475   C     0.14314   0.01063   0.74805   0.00000  Uiso   1.00
C476   C     0.12738   0.16188   0.83327   0.00000  Uiso   1.00
Cu477  Cu    0.10737   0.16108   0.74517   0.00000  Uiso   1.00
Cu478  Cu    0.22596   0.17225   0.75484   0.00000  Uiso   1.00
H479   H     0.00199   0.09772   0.52971   0.00000  Uiso   1.00
H480   H     0.09781   0.32014   0.74437   0.00000  Uiso   1.00
H481   H     0.00118   0.20480   0.78453   0.00000  Uiso   1.00
H482   H     0.33216   0.12854   0.71547   0.00000  Uiso   1.00
H483   H     0.33135   0.23559   0.97029   0.00000  Uiso   1.00
H484   H     0.14004   0.14062   0.60971   0.00000  Uiso   1.00
H485   H     0.19329   0.19272   0.89029   0.00000  Uiso   1.00
H486   H     0.30807   0.09731   0.96116   0.00000  Uiso   1.00
H487   H     0.02527   0.23600   0.53884   0.00000  Uiso   1.00
H488   H     0.07506   0.11941   0.57354   0.00000  Uiso   1.00
H489   H     0.25829   0.21391   0.92646   0.00000  Uiso   1.00
H490   H     0.23552   0.01319   0.75564   0.00000  Uiso   1.00
N491   N     0.31506   0.18068   0.76212   0.00000  Uiso   1.00
N492   N     0.01827   0.15265   0.73788   0.00000  Uiso   1.00
O493   O     0.12815   0.23809   0.74686   0.00000  Uiso   1.00
O494   O     0.20518   0.09524   0.75314   0.00000  Uiso   1.00
O495   O     0.22829   0.24753   0.75503   0.00000  Uiso   1.00
O496   O     0.10504   0.08580   0.74498   0.00000  Uiso   1.00
O497   O     0.08851   0.15930   0.80855   0.00000  Uiso   1.00
O498   O     0.24482   0.17403   0.69146   0.00000  Uiso   1.00
O499   O     0.18866   0.16874   0.81671   0.00000  Uiso   1.00
O500   O     0.14468   0.16460   0.68329   0.00000  Uiso   1.00
Br501  Br    0.35890   0.22904   0.62928   0.00000  Uiso   1.00
Br502  Br    0.64110   0.10428   0.87072   0.00000  Uiso   1.00
C503   C     0.51505   0.26674   0.75130   0.00000  Uiso   1.00
C504   C     0.53929   0.17145   0.66673   0.00000  Uiso   1.00
C505   C     0.43603   0.15507   0.88116   0.00000  Uiso   1.00
C506   C     0.56397   0.17826   0.61884   0.00000  Uiso   1.00
C507   C     0.35633   0.11803   0.94597   0.00000  Uiso   1.00
C508   C     0.64368   0.21529   0.55402   0.00000  Uiso   1.00
C509   C     0.37300   0.12894   0.90141   0.00000  Uiso   1.00
C510   C     0.62700   0.20438   0.59859   0.00000  Uiso   1.00
C511   C     0.47981   0.17164   0.90676   0.00000  Uiso   1.00
C512   C     0.52019   0.16170   0.59324   0.00000  Uiso   1.00
C513   C     0.46421   0.16000   0.95158   0.00000  Uiso   1.00
C514   C     0.48495   0.06659   0.74870   0.00000  Uiso   1.00
C515   C     0.53580   0.17332   0.54842   0.00000  Uiso   1.00
C516   C     0.40126   0.13242   0.97084   0.00000  Uiso   1.00
C517   C     0.59875   0.20090   0.52916   0.00000  Uiso   1.00
C518   C     0.50947   0.17389   0.97749   0.00000  Uiso   1.00
C519   C     0.49053   0.15943   0.52251   0.00000  Uiso   1.00
C520   C     0.42694   0.13186   0.54009   0.00000  Uiso   1.00
C521   C     0.57307   0.20147   0.95991   0.00000  Uiso   1.00
C522   C     0.38351   0.11880   0.51471   0.00000  Uiso   1.00
C523   C     0.61650   0.21452   0.98528   0.00000  Uiso   1.00
C524   C     0.52352   0.32270   0.75195   0.00000  Uiso   1.00
C525   C     0.47648   0.01063   0.74805   0.00000  Uiso   1.00
C526   C     0.46071   0.16188   0.83327   0.00000  Uiso   1.00
Cu527  Cu    0.44071   0.16108   0.74517   0.00000  Uiso   1.00
Cu528  Cu    0.55929   0.17225   0.75484   0.00000  Uiso   1.00
H529   H     0.33532   0.09772   0.52971   0.00000  Uiso   1.00
H530   H     0.43115   0.32014   0.74437   0.00000  Uiso   1.00
H531   H     0.33451   0.20480   0.78453   0.00000  Uiso   1.00
H532   H     0.66549   0.12854   0.71547   0.00000  Uiso   1.00
H533   H     0.66468   0.23559   0.97029   0.00000  Uiso   1.00
H534   H     0.47337   0.14062   0.60971   0.00000  Uiso   1.00
H535   H     0.52663   0.19272   0.89029   0.00000  Uiso   1.00
H536   H     0.64140   0.09731   0.96116   0.00000  Uiso   1.00
H537   H     0.35861   0.23600   0.53884   0.00000  Uiso   1.00
H538   H     0.40839   0.11941   0.57354   0.00000  Uiso   1.00
H539   H     0.59162   0.21391   0.92646   0.00000  Uiso   1.00
H540   H     0.56885   0.01319   0.75564   0.00000  Uiso   1.00
N541   N     0.64839   0.18068   0.76212   0.00000  Uiso   1.00
N542   N     0.35161   0.15265   0.73788   0.00000  Uiso   1.00
O543   O     0.46148   0.23809   0.74686   0.00000  Uiso   1.00
O544   O     0.53852   0.09524   0.75314   0.00000  Uiso   1.00
O545   O     0.56163   0.24753   0.75503   0.00000  Uiso   1.00
O546   O     0.43837   0.08580   0.74498   0.00000  Uiso   1.00
O547   O     0.42185   0.15930   0.80855   0.00000  Uiso   1.00
O548   O     0.57815   0.17403   0.69146   0.00000  Uiso   1.00
O549   O     0.52199   0.16874   0.81671   0.00000  Uiso   1.00
O550   O     0.47801   0.16460   0.68329   0.00000  Uiso   1.00
Br551  Br    0.69223   0.22904   0.62928   0.00000  Uiso   1.00
Br552  Br    0.97444   0.10428   0.87072   0.00000  Uiso   1.00
C553   C     0.84838   0.26674   0.75130   0.00000  Uiso   1.00
C554   C     0.87262   0.17145   0.66673   0.00000  Uiso   1.00
C555   C     0.76936   0.15507   0.88116   0.00000  Uiso   1.00
C556   C     0.89730   0.17826   0.61884   0.00000  Uiso   1.00
C557   C     0.68966   0.11803   0.94597   0.00000  Uiso   1.00
C558   C     0.97701   0.21529   0.55402   0.00000  Uiso   1.00
C559   C     0.70633   0.12894   0.90141   0.00000  Uiso   1.00
C560   C     0.96034   0.20438   0.59859   0.00000  Uiso   1.00
C561   C     0.81315   0.17164   0.90676   0.00000  Uiso   1.00
C562   C     0.85352   0.16170   0.59324   0.00000  Uiso   1.00
C563   C     0.79754   0.16000   0.95158   0.00000  Uiso   1.00
C564   C     0.81828   0.06659   0.74870   0.00000  Uiso   1.00
C565   C     0.86913   0.17332   0.54842   0.00000  Uiso   1.00
C566   C     0.73459   0.13242   0.97084   0.00000  Uiso   1.00
C567   C     0.93208   0.20090   0.52916   0.00000  Uiso   1.00
C568   C     0.84280   0.17389   0.97749   0.00000  Uiso   1.00
C569   C     0.82387   0.15943   0.52251   0.00000  Uiso   1.00
C570   C     0.76027   0.13186   0.54009   0.00000  Uiso   1.00
C571   C     0.90640   0.20147   0.95991   0.00000  Uiso   1.00
C572   C     0.71684   0.11880   0.51471   0.00000  Uiso   1.00
C573   C     0.94984   0.21452   0.98528   0.00000  Uiso   1.00
C574   C     0.85686   0.32270   0.75195   0.00000  Uiso   1.00
C575   C     0.80981   0.01063   0.74805   0.00000  Uiso   1.00
C576   C     0.79405   0.16188   0.83327   0.00000  Uiso   1.00
Cu577  Cu    0.77404   0.16108   0.74517   0.00000  Uiso   1.00
Cu578  Cu    0.89263   0.17225   0.75484   0.00000  Uiso   1.00
H579   H     0.66866   0.09772   0.52971   0.00000  Uiso   1.00
H580   H     0.76448   0.32014   0.74437   0.00000  Uiso   1.00
H581   H     0.66784   0.20480   0.78453   0.00000  Uiso   1.00
H582   H     0.99882   0.12854   0.71547   0.00000  Uiso   1.00
H583   H     0.99802   0.23559   0.97029   0.00000  Uiso   1.00
H584   H     0.80670   0.14062   0.60971   0.00000  Uiso   1.00
H585   H     0.85996   0.19272   0.89029   0.00000  Uiso   1.00
H586   H     0.97473   0.09731   0.96116   0.00000  Uiso   1.00
H587   H     0.69194   0.23600   0.53884   0.00000  Uiso   1.00
H588   H     0.74173   0.11941   0.57354   0.00000  Uiso   1.00
H589   H     0.92495   0.21391   0.92646   0.00000  Uiso   1.00
H590   H     0.90218   0.01319   0.75564   0.00000  Uiso   1.00
N591   N     0.98173   0.18068   0.76212   0.00000  Uiso   1.00
N592   N     0.68494   0.15265   0.73788   0.00000  Uiso   1.00
O593   O     0.79482   0.23809   0.74686   0.00000  Uiso   1.00
O594   O     0.87185   0.09524   0.75314   0.00000  Uiso   1.00
O595   O     0.89496   0.24753   0.75503   0.00000  Uiso   1.00
O596   O     0.77171   0.08580   0.74498   0.00000  Uiso   1.00
O597   O     0.75518   0.15930   0.80855   0.00000  Uiso   1.00
O598   O     0.91149   0.17403   0.69146   0.00000  Uiso   1.00
O599   O     0.85532   0.16874   0.81671   0.00000  Uiso   1.00
O600   O     0.81134   0.16460   0.68329   0.00000  Uiso   1.00
Br601  Br    0.02557   0.56237   0.62928   0.00000  Uiso   1.00
Br602  Br    0.30777   0.43762   0.87072   0.00000  Uiso   1.00
C603   C     0.18172   0.60007   0.75130   0.00000  Uiso   1.00
C604   C     0.20595   0.50478   0.66673   0.00000  Uiso   1.00
C605   C     0.10270   0.48841   0.88116   0.00000  Uiso   1.00
C606   C     0.23064   0.51159   0.61884   0.00000  Uiso   1.00
C607   C     0.02300   0.45136   0.94597   0.00000  Uiso   1.00
C608   C     0.31034   0.54862   0.55402   0.00000  Uiso   1.00
C609   C     0.03967   0.46227   0.90141   0.00000  Uiso   1.00
C610   C     0.29367   0.53772   0.59859   0.00000  Uiso   1.00
C611   C     0.14648   0.50497   0.90676   0.00000  Uiso   1.00
C612   C     0.18685   0.49503   0.59324   0.00000  Uiso   1.00
C613   C     0.13087   0.49334   0.95158   0.00000  Uiso   1.00
C614   C     0.15162   0.39993   0.74870   0.00000  Uiso   1.00
C615   C     0.20246   0.50666   0.54842   0.00000  Uiso   1.00
C616   C     0.06793   0.46576   0.97084   0.00000  Uiso   1.00
C617   C     0.26541   0.53423   0.52916   0.00000  Uiso   1.00
C618   C     0.17614   0.50722   0.97749   0.00000  Uiso   1.00
C619   C     0.15720   0.49277   0.52251   0.00000  Uiso   1.00
C620   C     0.09360   0.46519   0.54009   0.00000  Uiso   1.00
C621   C     0.23974   0.53480   0.95991   0.00000  Uiso   1.00
C622   C     0.05017   0.45213   0.51471   0.00000  Uiso   1.00
C623   C     0.28317   0.54786   0.98528   0.00000  Uiso   1.00
C624   C     0.19019   0.65604   0.75195   0.00000  Uiso   1.00
C625   C     0.14314   0.34396   0.74805   0.00000  Uiso   1.00
C626   C     0.12738   0.49522   0.83327   0.00000  Uiso   1.00
Cu627  Cu    0.10737   0.49441   0.74517   0.00000  Uiso   1.00
Cu628  Cu    0.22596   0.50559   0.75484   0.00000  Uiso   1.00
H629   H     0.00199   0.43106   0.52971   0.00000  Uiso   1.00
H630   H     0.09781   0.65347   0.74437   0.00000  Uiso   1.00
H631   H     0.00118   0.53813   0.78453   0.00000  Uiso   1.00
H632   H     0.33216   0.46187   0.71547   0.00000  Uiso   1.00
H633   H     0.33135   0.56893   0.97029   0.00000  Uiso   1.00
H634   H     0.14004   0.47396   0.60971   0.00000  Uiso   1.00
H635   H     0.19329   0.52605   0.89029   0.00000  Uiso   1.00
H636   H     0.30807   0.43065   0.96116   0.00000  Uiso   1.00
H637   H     0.02527   0.56934   0.53884   0.00000  Uiso   1.00
H638   H     0.07506   0.45274   0.57354   0.00000  Uiso   1.00
H639   H     0.25829   0.54724   0.92646   0.00000  Uiso   1.00
H640   H     0.23552   0.34653   0.75564   0.00000  Uiso   1.00
N641   N     0.31506   0.51401   0.76212   0.00000  Uiso   1.00
N642   N     0.01827   0.48599   0.73788   0.00000  Uiso   1.00
O643   O     0.12815   0.57142   0.74686   0.00000  Uiso   1.00
O644   O     0.20518   0.42858   0.75314   0.00000  Uiso   1.00
O645   O     0.22829   0.58086   0.75503   0.00000  Uiso   1.00
O646   O     0.10504   0.41914   0.74498   0.00000  Uiso   1.00
O647   O     0.08851   0.49263   0.80855   0.00000  Uiso   1.00
O648   O     0.24482   0.50737   0.69146   0.00000  Uiso   1.00
O649   O     0.18866   0.50207   0.81671   0.00000  Uiso   1.00
O650   O     0.14468   0.49793   0.68329   0.00000  Uiso   1.00
Br651  Br    0.35890   0.56237   0.62928   0.00000  Uiso   1.00
Br652  Br    0.64110   0.43762   0.87072   0.00000  Uiso   1.00
C653   C     0.51505   0.60007   0.75130   0.00000  Uiso   1.00
C654   C     0.53929   0.50478   0.66673   0.00000  Uiso   1.00
C655   C     0.43603   0.48841   0.88116   0.00000  Uiso   1.00
C656   C     0.56397   0.51159   0.61884   0.00000  Uiso   1.00
C657   C     0.35633   0.45136   0.94597   0.00000  Uiso   1.00
C658   C     0.64368   0.54862   0.55402   0.00000  Uiso   1.00
C659   C     0.37300   0.46227   0.90141   0.00000  Uiso   1.00
C660   C     0.62700   0.53772   0.59859   0.00000  Uiso   1.00
C661   C     0.47981   0.50497   0.90676   0.00000  Uiso   1.00
C662   C     0.52019   0.49503   0.59324   0.00000  Uiso   1.00
C663   C     0.46421   0.49334   0.95158   0.00000  Uiso   1.00
C664   C     0.48495   0.39993   0.74870   0.00000  Uiso   1.00
C665   C     0.53580   0.50666   0.54842   0.00000  Uiso   1.00
C666   C     0.40126   0.46576   0.97084   0.00000  Uiso   1.00
C667   C     0.59875   0.53423   0.52916   0.00000  Uiso   1.00
C668   C     0.50947   0.50722   0.97749   0.00000  Uiso   1.00
C669   C     0.49053   0.49277   0.52251   0.00000  Uiso   1.00
C670   C     0.42694   0.46519   0.54009   0.00000  Uiso   1.00
C671   C     0.57307   0.53480   0.95991   0.00000  Uiso   1.00
C672   C     0.38351   0.45213   0.51471   0.00000  Uiso   1.00
C673   C     0.61650   0.54786   0.98528   0.00000  Uiso   1.00
C674   C     0.52352   0.65604   0.75195   0.00000  Uiso   1.00
C675   C     0.47648   0.34396   0.74805   0.00000  Uiso   1.00
C676   C     0.46071   0.49522   0.83327   0.00000  Uiso   1.00
Cu677  Cu    0.44071   0.49441   0.74517   0.00000  Uiso   1.00
Cu678  Cu    0.55929   0.50559   0.75484   0.00000  Uiso   1.00
H679   H     0.33532   0.43106   0.52971   0.00000  Uiso   1.00
H680   H     0.43115   0.65347   0.74437   0.00000  Uiso   1.00
H681   H     0.33451   0.53813   0.78453   0.00000  Uiso   1.00
H682   H     0.66549   0.46187   0.71547   0.00000  Uiso   1.00
H683   H     0.66468   0.56893   0.97029   0.00000  Uiso   1.00
H684   H     0.47337   0.47396   0.60971   0.00000  Uiso   1.00
H685   H     0.52663   0.52605   0.89029   0.00000  Uiso   1.00
H686   H     0.64140   0.43065   0.96116   0.00000  Uiso   1.00
H687   H     0.35861   0.56934   0.53884   0.00000  Uiso   1.00
H688   H     0.40839   0.45274   0.57354   0.00000  Uiso   1.00
H689   H     0.59162   0.54724   0.92646   0.00000  Uiso   1.00
H690   H     0.56885   0.34653   0.75564   0.00000  Uiso   1.00
N691   N     0.64839   0.51401   0.76212   0.00000  Uiso   1.00
N692   N     0.35161   0.48599   0.73788   0.00000  Uiso   1.00
O693   O     0.46148   0.57142   0.74686   0.00000  Uiso   1.00
O694   O     0.53852   0.42858   0.75314   0.00000  Uiso   1.00
O695   O     0.56163   0.58086   0.75503   0.00000  Uiso   1.00
O696   O     0.43837   0.41914   0.74498   0.00000  Uiso   1.00
O697   O     0.42185   0.49263   0.80855   0.00000  Uiso   1.00
O698   O     0.57815   0.50737   0.69146   0.00000  Uiso   1.00
O699   O     0.52199   0.50207   0.81671   0.00000  Uiso   1.00
O700   O     0.47801   0.49793   0.68329   0.00000  Uiso   1.00
Br701  Br    0.69223   0.56237   0.62928   0.00000  Uiso   1.00
Br702  Br    0.97444   0.43762   0.87072   0.00000  Uiso   1.00
C703   C     0.84838   0.60007   0.75130   0.00000  Uiso   1.00
C704   C     0.87262   0.50478   0.66673   0.00000  Uiso   1.00
C705   C     0.76936   0.48841   0.88116   0.00000  Uiso   1.00
C706   C     0.89730   0.51159   0.61884   0.00000  Uiso   1.00
C707   C     0.68966   0.45136   0.94597   0.00000  Uiso   1.00
C708   C     0.97701   0.54862   0.55402   0.00000  Uiso   1.00
C709   C     0.70633   0.46227   0.90141   0.00000  Uiso   1.00
C710   C     0.96034   0.53772   0.59859   0.00000  Uiso   1.00
C711   C     0.81315   0.50497   0.90676   0.00000  Uiso   1.00
C712   C     0.85352   0.49503   0.59324   0.00000  Uiso   1.00
C713   C     0.79754   0.49334   0.95158   0.00000  Uiso   1.00
C714   C     0.81828   0.39993   0.74870   0.00000  Uiso   1.00
C715   C     0.86913   0.50666   0.54842   0.00000  Uiso   1.00
C716   C     0.73459   0.46576   0.97084   0.00000  Uiso   1.00
C717   C     0.93208   0.53423   0.52916   0.00000  Uiso   1.00
C718   C     0.84280   0.50722   0.97749   0.00000  Uiso   1.00
C719   C     0.82387   0.49277   0.52251   0.00000  Uiso   1.00
C720   C     0.76027   0.46519   0.54009   0.00000  Uiso   1.00
C721   C     0.90640   0.53480   0.95991   0.00000  Uiso   1.00
C722   C     0.71684   0.45213   0.51471   0.00000  Uiso   1.00
C723   C     0.94984   0.54786   0.98528   0.00000  Uiso   1.00
C724   C     0.85686   0.65604   0.75195   0.00000  Uiso   1.00
C725   C     0.80981   0.34396   0.74805   0.00000  Uiso   1.00
C726   C     0.79405   0.49522   0.83327   0.00000  Uiso   1.00
Cu727  Cu    0.77404   0.49441   0.74517   0.00000  Uiso   1.00
Cu728  Cu    0.89263   0.50559   0.75484   0.00000  Uiso   1.00
H729   H     0.66866   0.43106   0.52971   0.00000  Uiso   1.00
H730   H     0.76448   0.65347   0.74437   0.00000  Uiso   1.00
H731   H     0.66784   0.53813   0.78453   0.00000  Uiso   1.00
H732   H     0.99882   0.46187   0.71547   0.00000  Uiso   1.00
H733   H     0.99802   0.56893   0.97029   0.00000  Uiso   1.00
H734   H     0.80670   0.47396   0.60971   0.00000  Uiso   1.00
H735   H     0.85996   0.52605   0.89029   0.00000  Uiso   1.00
H736   H     0.97473   0.43065   0.96116   0.00000  Uiso   1.00
H737   H     0.69194   0.56934   0.53884   0.00000  Uiso   1.00
H738   H     0.74173   0.45274   0.57354   0.00000  Uiso   1.00
H739   H     0.92495   0.54724   0.92646   0.00000  Uiso   1.00
H740   H     0.90218   0.34653   0.75564   0.00000  Uiso   1.00
N741   N     0.98173   0.51401   0.76212   0.00000  Uiso   1.00
N742   N     0.68494   0.48599   0.73788   0.00000  Uiso   1.00
O743   O     0.79482   0.57142   0.74686   0.00000  Uiso   1.00
O744   O     0.87185   0.42858   0.75314   0.00000  Uiso   1.00
O745   O     0.89496   0.58086   0.75503   0.00000  Uiso   1.00
O746   O     0.77171   0.41914   0.74498   0.00000  Uiso   1.00
O747   O     0.75518   0.49263   0.80855   0.00000  Uiso   1.00
O748   O     0.91149   0.50737   0.69146   0.00000  Uiso   1.00
O749   O     0.85532   0.50207   0.81671   0.00000  Uiso   1.00
O750   O     0.81134   0.49793   0.68329   0.00000  Uiso   1.00
Br751  Br    0.02557   0.89571   0.62928   0.00000  Uiso   1.00
Br752  Br    0.30777   0.77095   0.87072   0.00000  Uiso   1.00
C753   C     0.18172   0.93341   0.75130   0.00000  Uiso   1.00
C754   C     0.20595   0.83812   0.66673   0.00000  Uiso   1.00
C755   C     0.10270   0.82174   0.88116   0.00000  Uiso   1.00
C756   C     0.23064   0.84492   0.61884   0.00000  Uiso   1.00
C757   C     0.02300   0.78470   0.94597   0.00000  Uiso   1.00
C758   C     0.31034   0.88196   0.55402   0.00000  Uiso   1.00
C759   C     0.03967   0.79561   0.90141   0.00000  Uiso   1.00
C760   C     0.29367   0.87105   0.59859   0.00000  Uiso   1.00
C761   C     0.14648   0.83830   0.90676   0.00000  Uiso   1.00
C762   C     0.18685   0.82836   0.59324   0.00000  Uiso   1.00
C763   C     0.13087   0.82667   0.95158   0.00000  Uiso   1.00
C764   C     0.15162   0.73326   0.74870   0.00000  Uiso   1.00
C765   C     0.20246   0.83999   0.54842   0.00000  Uiso   1.00
C766   C     0.06793   0.79909   0.97084   0.00000  Uiso   1.00
C767   C     0.26541   0.86757   0.52916   0.00000  Uiso   1.00
C768   C     0.17614   0.84056   0.97749   0.00000  Uiso   1.00
C769   C     0.15720   0.82610   0.52251   0.00000  Uiso   1.00
C770   C     0.09360   0.79852   0.54009   0.00000  Uiso   1.00
C771   C     0.23974   0.86813   0.95991   0.00000  Uiso   1.00
C772   C     0.05017   0.78546   0.51471   0.00000  Uiso   1.00
C773   C     0.28317   0.88119   0.98528   0.00000  Uiso   1.00
C774   C     0.19019   0.98937   0.75195   0.00000  Uiso   1.00
C775   C     0.14314   0.67730   0.74805   0.00000  Uiso   1.00
C776   C     0.12738   0.82855   0.83327   0.00000  Uiso   1.00
Cu777  Cu    0.10737   0.82775   0.74517   0.00000  Uiso   1.00
Cu778  Cu    0.22596   0.83892   0.75484   0.00000  Uiso   1.00
H779   H     0.00199   0.76439   0.52971   0.00000  Uiso   1.00
H780   H     0.09781   0.98681   0.74437   0.00000  Uiso   1.00
H781   H     0.00118   0.87146   0.78453   0.00000  Uiso   1.00
H782   H     0.33216   0.79520   0.71547   0.00000  Uiso   1.00
H783   H     0.33135   0.90226   0.97029   0.00000  Uiso   1.00
H784   H     0.14004   0.80729   0.60971   0.00000  Uiso   1.00
H785   H     0.19329   0.85939   0.89029   0.00000  Uiso   1.00
H786   H     0.30807   0.76398   0.96116   0.00000  Uiso   1.00
H787   H     0.02527   0.90267   0.53884   0.00000  Uiso   1.00
H788   H     0.07506   0.78608   0.57354   0.00000  Uiso   1.00
H789   H     0.25829   0.88057   0.92646   0.00000  Uiso   1.00
H790   H     0.23552   0.67986   0.75564   0.00000  Uiso   1.00
N791   N     0.31506   0.84735   0.76212   0.00000  Uiso   1.00
N792   N     0.01827   0.81932   0.73788   0.00000  Uiso   1.00
O793   O     0.12815   0.90476   0.74686   0.00000  Uiso   1.00
O794   O     0.20518   0.76191   0.75314   0.00000  Uiso   1.00
O795   O     0.22829   0.91420   0.75503   0.00000  Uiso   1.00
O796   O     0.10504   0.75247   0.74498   0.00000  Uiso   1.00
O797   O     0.08851   0.82597   0.80855   0.00000  Uiso   1.00
O798   O     0.24482   0.84070   0.69146   0.00000  Uiso   1.00
O799   O     0.18866   0.83540   0.81671   0.00000  Uiso   1.00
O800   O     0.14468   0.83126   0.68329   0.00000  Uiso   1.00
Br801  Br    0.35890   0.89571   0.62928   0.00000  Uiso   1.00
Br802  Br    0.64110   0.77095   0.87072   0.00000  Uiso   1.00
C803   C     0.51505   0.93341   0.75130   0.00000  Uiso   1.00
C804   C     0.53929   0.83812   0.66673   0.00000  Uiso   1.00
C805   C     0.43603   0.82174   0.88116   0.00000  Uiso   1.00
C806   C     0.56397   0.84492   0.61884   0.00000  Uiso   1.00
C807   C     0.35633   0.78470   0.94597   0.00000  Uiso   1.00
C808   C     0.64368   0.88196   0.55402   0.00000  Uiso   1.00
C809   C     0.37300   0.79561   0.90141   0.00000  Uiso   1.00
C810   C     0.62700   0.87105   0.59859   0.00000  Uiso   1.00
C811   C     0.47981   0.83830   0.90676   0.00000  Uiso   1.00
C812   C     0.52019   0.82836   0.59324   0.00000  Uiso   1.00
C813   C     0.46421   0.82667   0.95158   0.00000  Uiso   1.00
C814   C     0.48495   0.73326   0.74870   0.00000  Uiso   1.00
C815   C     0.53580   0.83999   0.54842   0.00000  Uiso   1.00
C816   C     0.40126   0.79909   0.97084   0.00000  Uiso   1.00
C817   C     0.59875   0.86757   0.52916   0.00000  Uiso   1.00
C818   C     0.50947   0.84056   0.97749   0.00000  Uiso   1.00
C819   C     0.49053   0.82610   0.52251   0.00000  Uiso   1.00
C820   C     0.42694   0.79852   0.54009   0.00000  Uiso   1.00
C821   C     0.57307   0.86813   0.95991   0.00000  Uiso   1.00
C822   C     0.38351   0.78546   0.51471   0.00000  Uiso   1.00
C823   C     0.61650   0.88119   0.98528   0.00000  Uiso   1.00
C824   C     0.52352   0.98937   0.75195   0.00000  Uiso   1.00
C825   C     0.47648   0.67730   0.74805   0.00000  Uiso   1.00
C826   C     0.46071   0.82855   0.83327   0.00000  Uiso   1.00
Cu827  Cu    0.44071   0.82775   0.74517   0.00000  Uiso   1.00
Cu828  Cu    0.55929   0.83892   0.75484   0.00000  Uiso   1.00
H829   H     0.33532   0.76439   0.52971   0.00000  Uiso   1.00
H830   H     0.43115   0.98681   0.74437   0.00000  Uiso   1.00
H831   H     0.33451   0.87146   0.78453   0.00000  Uiso   1.00
H832   H     0.66549   0.79520   0.71547   0.00000  Uiso   1.00
H833   H     0.66468   0.90226   0.97029   0.00000  Uiso   1.00
H834   H     0.47337   0.80729   0.60971   0.00000  Uiso   1.00
H835   H     0.52663   0.85939   0.89029   0.00000  Uiso   1.00
H836   H     0.64140   0.76398   0.96116   0.00000  Uiso   1.00
H837   H     0.35861   0.90267   0.53884   0.00000  Uiso   1.00
H838   H     0.40839   0.78608   0.57354   0.00000  Uiso   1.00
H839   H     0.59162   0.88057   0.92646   0.00000  Uiso   1.00
H840   H     0.56885   0.67986   0.75564   0.00000  Uiso   1.00
N841   N     0.64839   0.84735   0.76212   0.00000  Uiso   1.00
N842   N     0.35161   0.81932   0.73788   0.00000  Uiso   1.00
O843   O     0.46148   0.90476   0.74686   0.00000  Uiso   1.00
O844   O     0.53852   0.76191   0.75314   0.00000  Uiso   1.00
O845   O     0.56163   0.91420   0.75503   0.00000  Uiso   1.00
O846   O     0.43837   0.75247   0.74498   0.00000  Uiso   1.00
O847   O     0.42185   0.82597   0.80855   0.00000  Uiso   1.00
O848   O     0.57815   0.84070   0.69146   0.00000  Uiso   1.00
O849   O     0.52199   0.83540   0.81671   0.00000  Uiso   1.00
O850   O     0.47801   0.83126   0.68329   0.00000  Uiso   1.00
Br851  Br    0.69223   0.89571   0.62928   0.00000  Uiso   1.00
Br852  Br    0.97444   0.77095   0.87072   0.00000  Uiso   1.00
C853   C     0.84838   0.93341   0.75130   0.00000  Uiso   1.00
C854   C     0.87262   0.83812   0.66673   0.00000  Uiso   1.00
C855   C     0.76936   0.82174   0.88116   0.00000  Uiso   1.00
C856   C     0.89730   0.84492   0.61884   0.00000  Uiso   1.00
C857   C     0.68966   0.78470   0.94597   0.00000  Uiso   1.00
C858   C     0.97701   0.88196   0.55402   0.00000  Uiso   1.00
C859   C     0.70633   0.79561   0.90141   0.00000  Uiso   1.00
C860   C     0.96034   0.87105   0.59859   0.00000  Uiso   1.00
C861   C     0.81315   0.83830   0.90676   0.00000  Uiso   1.00
C862   C     0.85352   0.82836   0.59324   0.00000  Uiso   1.00
C863   C     0.79754   0.82667   0.95158   0.00000  Uiso   1.00
C864   C     0.81828   0.73326   0.74870   0.00000  Uiso   1.00
C865   C     0.86913   0.83999   0.54842   0.00000  Uiso   1.00
C866   C     0.73459   0.79909   0.97084   0.00000  Uiso   1.00
C867   C     0.93208   0.86757   0.52916   0.00000  Uiso   1.00
C868   C     0.84280   0.84056   0.97749   0.00000  Uiso   1.00
C869   C     0.82387   0.82610   0.52251   0.00000  Uiso   1.00
C870   C     0.76027   0.79852   0.54009   0.00000  Uiso   1.00
C871   C     0.90640   0.86813   0.95991   0.00000  Uiso   1.00
C872   C     0.71684   0.78546   0.51471   0.00000  Uiso   1.00
C873   C     0.94984   0.88119   0.98528   0.00000  Uiso   1.00
C874   C     0.85686   0.98937   0.75195   0.00000  Uiso   1.00
C875   C     0.80981   0.67730   0.74805   0.00000  Uiso   1.00
C876   C     0.79405   0.82855   0.83327   0.00000  Uiso   1.00
Cu877  Cu    0.77404   0.82775   0.74517   0.00000  Uiso   1.00
Cu878  Cu    0.89263   0.83892   0.75484   0.00000  Uiso   1.00
H879   H     0.66866   0.76439   0.52971   0.00000  Uiso   1.00
H880   H     0.76448   0.98681   0.74437   0.00000  Uiso   1.00
H881   H     0.66784   0.87146   0.78453   0.00000  Uiso   1.00
H882   H     0.99882   0.79520   0.71547   0.00000  Uiso   1.00
H883   H     0.99802   0.90226   0.97029   0.00000  Uiso   1.00
H884   H     0.80670   0.80729   0.60971   0.00000  Uiso   1.00
H885   H     0.85996   0.85939   0.89029   0.00000  Uiso   1.00
H886   H     0.97473   0.76398   0.96116   0.00000  Uiso   1.00
H887   H     0.69194   0.90267   0.53884   0.00000  Uiso   1.00
H888   H     0.74173   0.78608   0.57354   0.00000  Uiso   1.00
H889   H     0.92495   0.88057   0.92646   0.00000  Uiso   1.00
H890   H     0.90218   0.67986   0.75564   0.00000  Uiso   1.00
N891   N     0.98173   0.84735   0.76212   0.00000  Uiso   1.00
N892   N     0.68494   0.81932   0.73788   0.00000  Uiso   1.00
O893   O     0.79482   0.90476   0.74686   0.00000  Uiso   1.00
O894   O     0.87185   0.76191   0.75314   0.00000  Uiso   1.00
O895   O     0.89496   0.91420   0.75503   0.00000  Uiso   1.00
O896   O     0.77171   0.75247   0.74498   0.00000  Uiso   1.00
O897   O     0.75518   0.82597   0.80855   0.00000  Uiso   1.00
O898   O     0.91149   0.84070   0.69146   0.00000  Uiso   1.00
O899   O     0.85532   0.83540   0.81671   0.00000  Uiso   1.00
O900   O     0.81134   0.83126   0.68329   0.00000  Uiso   1.00
loop_
_geom_bond_atom_site_label_1
_geom_bond_atom_site_label_2
_geom_bond_distance
_geom_bond_site_symmetry_2
_ccdc_geom_bond_type
Br1    C110    1.923   1_455 S
Br2    C59     1.923   .     S
C3     O45     1.285   .     A
C3     O43     1.291   .     A
C3     C24     1.428   .     S
C4     C6      1.478   .     S
C4     O48     1.301   .     A
C4     O50     1.300   .     A
C5     C9      1.412   .     A
C5     C11     1.403   .     A
C5     C26     1.479   .     S
C6     C10     1.412   .     A
C6     C12     1.403   .     A
C7     C16     1.402   .     A
C7     C9      1.394   .     A
C7     H136    1.084   1_455 S
C8     C10     1.394   .     A
C8     C17     1.402   .     A
C8     H87     1.084   .     S
C9     Br102   1.923   1_455 S
C10    Br51    1.923   .     S
C11    H35     1.073   .     S
C11    C13     1.407   .     A
C12    C15     1.408   .     A
C12    H34     1.073   .     S
C13    C18     1.431   .     A
C13    C16     1.415   .     A
C14    O46     1.285   .     A
C14    C25     1.428   .     S
C14    O44     1.291   .     A
C15    C19     1.431   .     A
C15    C17     1.415   .     A
C16    C472    1.389   .     S
C17    C473    1.389   1_554 S
C18    C21     1.417   .     A
C18    C469    1.428   .     S
C19    C20     1.417   .     A
C19    C468    1.428   1_554 S
C20    H38     1.075   .     S
C20    C22     1.385   .     A
C21    H39     1.075   .     S
C21    C23     1.385   .     A
C22    H29     1.085   .     S
C22    C466    1.389   1_554 S
C23    H33     1.085   .     S
C23    C467    1.389   .     S
C24    C175    1.328   .     S
C24    H190    1.088   .     S
C25    C324    1.328   1_545 S
C25    H330    1.088   1_545 S
C26    O47     1.301   .     A
C26    O49     1.300   .     A
Cu27   O50     1.914   .     S
Cu27   N42     2.018   .     S
Cu27   O46     1.952   .     S
Cu27   O43     1.956   .     S
Cu27   Cu28    2.686   .     S
Cu27   O47     1.940   .     S
Cu28   O45     1.952   .     S
Cu28   N41     2.018   .     S
Cu28   O48     1.940   .     S
Cu28   O44     1.956   .     S
Cu28   O49     1.914   .     S
H30    C175    1.088   .     S
H31    N141    1.029   1_455 S
H32    N92     1.029   .     S
H36    C57     1.084   .     S
H37    C108    1.084   1_455 S
H40    C324    1.088   1_545 S
N41    H81     1.029   .     S
N41    N92     1.282   .     S
N42    H132    1.029   1_455 S
N42    N141    1.282   1_455 S
Br52   C109    1.923   .     S
C53    O95     1.285   .     A
C53    O93     1.291   .     A
C53    C74     1.428   .     S
C54    C56     1.478   .     S
C54    O98     1.301   .     A
C54    O100    1.300   .     A
C55    C59     1.412   .     A
C55    C61     1.403   .     A
C55    C76     1.479   .     S
C56    C60     1.412   .     A
C56    C62     1.403   .     A
C57    C66     1.402   .     A
C57    C59     1.394   .     A
C58    C60     1.394   .     A
C58    C67     1.402   .     A
C58    H137    1.084   .     S
C60    Br101   1.923   .     S
C61    H85     1.073   .     S
C61    C63     1.407   .     A
C62    C65     1.408   .     A
C62    H84     1.073   .     S
C63    C68     1.431   .     A
C63    C66     1.415   .     A
C64    O96     1.285   .     A
C64    C75     1.428   .     S
C64    O94     1.291   .     A
C65    C69     1.431   .     A
C65    C67     1.415   .     A
C66    C522    1.389   .     S
C67    C523    1.389   1_554 S
C68    C71     1.417   .     A
C68    C519    1.428   .     S
C69    C70     1.417   .     A
C69    C518    1.428   1_554 S
C70    H88     1.075   .     S
C70    C72     1.385   .     A
C71    H89     1.075   .     S
C71    C73     1.385   .     A
C72    H79     1.085   .     S
C72    C516    1.389   1_554 S
C73    H83     1.085   .     S
C73    C517    1.389   .     S
C74    C225    1.328   .     S
C74    H240    1.088   .     S
C75    C374    1.328   1_545 S
C75    H380    1.088   1_545 S
C76    O97     1.301   .     A
C76    O99     1.300   .     A
Cu77   O100    1.914   .     S
Cu77   N92     2.018   .     S
Cu77   O96     1.952   .     S
Cu77   O93     1.956   .     S
Cu77   Cu78    2.686   .     S
Cu77   O97     1.940   .     S
Cu78   O95     1.952   .     S
Cu78   N91     2.018   .     S
Cu78   O98     1.940   .     S
Cu78   O94     1.956   .     S
Cu78   O99     1.914   .     S
H80    C225    1.088   .     S
H82    N142    1.029   .     S
H86    C107    1.084   .     S
H90    C374    1.088   1_545 S
N91    H131    1.029   .     S
N91    N142    1.282   .     S
Br102  C9      1.923   1_655 S
C103   O145    1.285   .     A
C103   O143    1.291   .     A
C103   C124    1.428   .     S
C104   C106    1.478   .     S
C104   O148    1.301   .     A
C104   O150    1.300   .     A
C105   C109    1.412   .     A
C105   C111    1.403   .     A
C105   C126    1.479   .     S
C106   C110    1.412   .     A
C106   C112    1.403   .     A
C107   C116    1.402   .     A
C107   C109    1.394   .     A
C108   C110    1.394   .     A
C108   C117    1.402   .     A
C108   H37     1.084   1_655 S
C110   Br1     1.923   1_655 S
C111   H135    1.073   .     S
C111   C113    1.407   .     A
C112   C115    1.408   .     A
C112   H134    1.073   .     S
C113   C118    1.431   .     A
C113   C116    1.415   .     A
C114   O146    1.285   .     A
C114   C125    1.428   .     S
C114   O144    1.291   .     A
C115   C119    1.431   .     A
C115   C117    1.415   .     A
C116   C572    1.389   .     S
C117   C573    1.389   1_554 S
C118   C121    1.417   .     A
C118   C569    1.428   .     S
C119   C120    1.417   .     A
C119   C568    1.428   1_554 S
C120   H138    1.075   .     S
C120   C122    1.385   .     A
C121   H139    1.075   .     S
C121   C123    1.385   .     A
C122   H129    1.085   .     S
C122   C566    1.389   1_554 S
C123   H133    1.085   .     S
C123   C567    1.389   .     S
C124   C275    1.328   .     S
C124   H290    1.088   .     S
C125   C424    1.328   1_545 S
C125   H430    1.088   1_545 S
C126   O147    1.301   .     A
C126   O149    1.300   .     A
Cu127  O150    1.914   .     S
Cu127  N142    2.018   .     S
Cu127  O146    1.952   .     S
Cu127  O143    1.956   .     S
Cu127  Cu128   2.686   .     S
Cu127  O147    1.940   .     S
Cu128  O145    1.952   .     S
Cu128  N141    2.018   .     S
Cu128  O148    1.940   .     S
Cu128  O144    1.956   .     S
Cu128  O149    1.914   .     S
H130   C275    1.088   .     S
H132   N42     1.029   1_655 S
H136   C7      1.084   1_655 S
H140   C424    1.088   1_545 S
N141   H31     1.029   1_655 S
N141   N42     1.282   1_655 S
Br151  C260    1.923   1_455 S
Br152  C209    1.923   .     S
C153   O195    1.285   .     A
C153   O193    1.291   .     A
C153   C174    1.428   .     S
C154   C156    1.478   .     S
C154   O198    1.301   .     A
C154   O200    1.300   .     A
C155   C159    1.412   .     A
C155   C161    1.403   .     A
C155   C176    1.479   .     S
C156   C160    1.412   .     A
C156   C162    1.403   .     A
C157   C166    1.402   .     A
C157   C159    1.394   .     A
C157   H286    1.084   1_455 S
C158   C160    1.394   .     A
C158   C167    1.402   .     A
C158   H237    1.084   .     S
C159   Br252   1.923   1_455 S
C160   Br201   1.923   .     S
C161   H185    1.073   .     S
C161   C163    1.407   .     A
C162   C165    1.408   .     A
C162   H184    1.073   .     S
C163   C168    1.431   .     A
C163   C166    1.415   .     A
C164   O196    1.285   .     A
C164   C175    1.428   .     S
C164   O194    1.291   .     A
C165   C169    1.431   .     A
C165   C167    1.415   .     A
C166   C622    1.389   .     S
C167   C623    1.389   1_554 S
C168   C171    1.417   .     A
C168   C619    1.428   .     S
C169   C170    1.417   .     A
C169   C618    1.428   1_554 S
C170   H188    1.075   .     S
C170   C172    1.385   .     A
C171   H189    1.075   .     S
C171   C173    1.385   .     A
C172   H179    1.085   .     S
C172   C616    1.389   1_554 S
C173   H183    1.085   .     S
C173   C617    1.389   .     S
C174   C325    1.328   .     S
C174   H340    1.088   .     S
C176   O197    1.301   .     A
C176   O199    1.300   .     A
Cu177  O200    1.914   .     S
Cu177  N192    2.018   .     S
Cu177  O196    1.952   .     S
Cu177  O193    1.956   .     S
Cu177  Cu178   2.686   .     S
Cu177  O197    1.940   .     S
Cu178  O195    1.952   .     S
Cu178  N191    2.018   .     S
Cu178  O198    1.940   .     S
Cu178  O194    1.956   .     S
Cu178  O199    1.914   .     S
H180   C325    1.088   .     S
H181   N291    1.029   1_455 S
H182   N242    1.029   .     S
H186   C207    1.084   .     S
H187   C258    1.084   1_455 S
N191   H231    1.029   .     S
N191   N242    1.282   .     S
N192   H282    1.029   1_455 S
N192   N291    1.282   1_455 S
Br202  C259    1.923   .     S
C203   O245    1.285   .     A
C203   O243    1.291   .     A
C203   C224    1.428   .     S
C204   C206    1.478   .     S
C204   O248    1.301   .     A
C204   O250    1.300   .     A
C205   C209    1.412   .     A
C205   C211    1.403   .     A
C205   C226    1.479   .     S
C206   C210    1.412   .     A
C206   C212    1.403   .     A
C207   C216    1.402   .     A
C207   C209    1.394   .     A
C208   C210    1.394   .     A
C208   C217    1.402   .     A
C208   H287    1.084   .     S
C210   Br251   1.923   .     S
C211   H235    1.073   .     S
C211   C213    1.407   .     A
C212   C215    1.408   .     A
C212   H234    1.073   .     S
C213   C218    1.431   .     A
C213   C216    1.415   .     A
C214   O246    1.285   .     A
C214   C225    1.428   .     S
C214   O244    1.291   .     A
C215   C219    1.431   .     A
C215   C217    1.415   .     A
C216   C672    1.389   .     S
C217   C673    1.389   1_554 S
C218   C221    1.417   .     A
C218   C669    1.428   .     S
C219   C220    1.417   .     A
C219   C668    1.428   1_554 S
C220   H238    1.075   .     S
C220   C222    1.385   .     A
C221   H239    1.075   .     S
C221   C223    1.385   .     A
C222   H229    1.085   .     S
C222   C666    1.389   1_554 S
C223   H233    1.085   .     S
C223   C667    1.389   .     S
C224   C375    1.328   .     S
C224   H390    1.088   .     S
C226   O247    1.301   .     A
C226   O249    1.300   .     A
Cu227  O250    1.914   .     S
Cu227  N242    2.018   .     S
Cu227  O246    1.952   .     S
Cu227  O243    1.956   .     S
Cu227  Cu228   2.686   .     S
Cu227  O247    1.940   .     S
Cu228  O245    1.952   .     S
Cu228  N241    2.018   .     S
Cu228  O248    1.940   .     S
Cu228  O244    1.956   .     S
Cu228  O249    1.914   .     S
H230   C375    1.088   .     S
H232   N292    1.029   .     S
H236   C257    1.084   .     S
N241   H281    1.029   .     S
N241   N292    1.282   .     S
Br252  C159    1.923   1_655 S
C253   O295    1.285   .     A
C253   O293    1.291   .     A
C253   C274    1.428   .     S
C254   C256    1.478   .     S
C254   O298    1.301   .     A
C254   O300    1.300   .     A
C255   C259    1.412   .     A
C255   C261    1.403   .     A
C255   C276    1.479   .     S
C256   C260    1.412   .     A
C256   C262    1.403   .     A
C257   C266    1.402   .     A
C257   C259    1.394   .     A
C258   C260    1.394   .     A
C258   C267    1.402   .     A
C258   H187    1.084   1_655 S
C260   Br151   1.923   1_655 S
C261   H285    1.073   .     S
C261   C263    1.407   .     A
C262   C265    1.408   .     A
C262   H284    1.073   .     S
C263   C268    1.431   .     A
C263   C266    1.415   .     A
C264   O296    1.285   .     A
C264   C275    1.428   .     S
C264   O294    1.291   .     A
C265   C269    1.431   .     A
C265   C267    1.415   .     A
C266   C722    1.389   .     S
C267   C723    1.389   1_554 S
C268   C271    1.417   .     A
C268   C719    1.428   .     S
C269   C270    1.417   .     A
C269   C718    1.428   1_554 S
C270   H288    1.075   .     S
C270   C272    1.385   .     A
C271   H289    1.075   .     S
C271   C273    1.385   .     A
C272   H279    1.085   .     S
C272   C716    1.389   1_554 S
C273   H283    1.085   .     S
C273   C717    1.389   .     S
C274   C425    1.328   .     S
C274   H440    1.088   .     S
C276   O297    1.301   .     A
C276   O299    1.300   .     A
Cu277  O300    1.914   .     S
Cu277  N292    2.018   .     S
Cu277  O296    1.952   .     S
Cu277  O293    1.956   .     S
Cu277  Cu278   2.686   .     S
Cu277  O297    1.940   .     S
Cu278  O295    1.952   .     S
Cu278  N291    2.018   .     S
Cu278  O298    1.940   .     S
Cu278  O294    1.956   .     S
Cu278  O299    1.914   .     S
H280   C425    1.088   .     S
H282   N192    1.029   1_655 S
H286   C157    1.084   1_655 S
N291   H181    1.029   1_655 S
N291   N192    1.282   1_655 S
Br301  C410    1.923   1_455 S
Br302  C359    1.923   .     S
C303   O345    1.285   .     A
C303   O343    1.291   .     A
C303   C324    1.428   .     S
C304   C306    1.478   .     S
C304   O348    1.301   .     A
C304   O350    1.300   .     A
C305   C309    1.412   .     A
C305   C311    1.403   .     A
C305   C326    1.479   .     S
C306   C310    1.412   .     A
C306   C312    1.403   .     A
C307   C316    1.402   .     A
C307   C309    1.394   .     A
C307   H436    1.084   1_455 S
C308   C310    1.394   .     A
C308   C317    1.402   .     A
C308   H387    1.084   .     S
C309   Br402   1.923   1_455 S
C310   Br351   1.923   .     S
C311   H335    1.073   .     S
C311   C313    1.407   .     A
C312   C315    1.408   .     A
C312   H334    1.073   .     S
C313   C318    1.431   .     A
C313   C316    1.415   .     A
C314   O346    1.285   .     A
C314   C325    1.428   .     S
C314   O344    1.291   .     A
C315   C319    1.431   .     A
C315   C317    1.415   .     A
C316   C772    1.389   .     S
C317   C773    1.389   1_554 S
C318   C321    1.417   .     A
C318   C769    1.428   .     S
C319   C320    1.417   .     A
C319   C768    1.428   1_554 S
C320   H338    1.075   .     S
C320   C322    1.385   .     A
C321   H339    1.075   .     S
C321   C323    1.385   .     A
C322   H329    1.085   .     S
C322   C766    1.389   1_554 S
C323   H333    1.085   .     S
C323   C767    1.389   .     S
C324   C25     1.328   1_565 S
C324   H40     1.088   1_565 S
C326   O347    1.301   .     A
C326   O349    1.300   .     A
Cu327  O350    1.914   .     S
Cu327  N342    2.018   .     S
Cu327  O346    1.952   .     S
Cu327  O343    1.956   .     S
Cu327  Cu328   2.686   .     S
Cu327  O347    1.940   .     S
Cu328  O345    1.952   .     S
Cu328  N341    2.018   .     S
Cu328  O348    1.940   .     S
Cu328  O344    1.956   .     S
Cu328  O349    1.914   .     S
H330   C25     1.088   1_565 S
H331   N441    1.029   1_455 S
H332   N392    1.029   .     S
H336   C357    1.084   .     S
H337   C408    1.084   1_455 S
N341   H381    1.029   .     S
N341   N392    1.282   .     S
N342   H432    1.029   1_455 S
N342   N441    1.282   1_455 S
Br352  C409    1.923   .     S
C353   O395    1.285   .     A
C353   O393    1.291   .     A
C353   C374    1.428   .     S
C354   C356    1.478   .     S
C354   O398    1.301   .     A
C354   O400    1.300   .     A
C355   C359    1.412   .     A
C355   C361    1.403   .     A
C355   C376    1.479   .     S
C356   C360    1.412   .     A
C356   C362    1.403   .     A
C357   C366    1.402   .     A
C357   C359    1.394   .     A
C358   C360    1.394   .     A
C358   C367    1.402   .     A
C358   H437    1.084   .     S
C360   Br401   1.923   .     S
C361   H385    1.073   .     S
C361   C363    1.407   .     A
C362   C365    1.408   .     A
C362   H384    1.073   .     S
C363   C368    1.431   .     A
C363   C366    1.415   .     A
C364   O396    1.285   .     A
C364   C375    1.428   .     S
C364   O394    1.291   .     A
C365   C369    1.431   .     A
C365   C367    1.415   .     A
C366   C822    1.389   .     S
C367   C823    1.389   1_554 S
C368   C371    1.417   .     A
C368   C819    1.428   .     S
C369   C370    1.417   .     A
C369   C818    1.428   1_554 S
C370   H388    1.075   .     S
C370   C372    1.385   .     A
C371   H389    1.075   .     S
C371   C373    1.385   .     A
C372   H379    1.085   .     S
C372   C816    1.389   1_554 S
C373   H383    1.085   .     S
C373   C817    1.389   .     S
C374   C75     1.328   1_565 S
C374   H90     1.088   1_565 S
C376   O397    1.301   .     A
C376   O399    1.300   .     A
Cu377  O400    1.914   .     S
Cu377  N392    2.018   .     S
Cu377  O396    1.952   .     S
Cu377  O393    1.956   .     S
Cu377  Cu378   2.686   .     S
Cu377  O397    1.940   .     S
Cu378  O395    1.952   .     S
Cu378  N391    2.018   .     S
Cu378  O398    1.940   .     S
Cu378  O394    1.956   .     S
Cu378  O399    1.914   .     S
H380   C75     1.088   1_565 S
H382   N442    1.029   .     S
H386   C407    1.084   .     S
N391   H431    1.029   .     S
N391   N442    1.282   .     S
Br402  C309    1.923   1_655 S
C403   O445    1.285   .     A
C403   O443    1.291   .     A
C403   C424    1.428   .     S
C404   C406    1.478   .     S
C404   O448    1.301   .     A
C404   O450    1.300   .     A
C405   C409    1.412   .     A
C405   C411    1.403   .     A
C405   C426    1.479   .     S
C406   C410    1.412   .     A
C406   C412    1.403   .     A
C407   C416    1.402   .     A
C407   C409    1.394   .     A
C408   C410    1.394   .     A
C408   C417    1.402   .     A
C408   H337    1.084   1_655 S
C410   Br301   1.923   1_655 S
C411   H435    1.073   .     S
C411   C413    1.407   .     A
C412   C415    1.408   .     A
C412   H434    1.073   .     S
C413   C418    1.431   .     A
C413   C416    1.415   .     A
C414   O446    1.285   .     A
C414   C425    1.428   .     S
C414   O444    1.291   .     A
C415   C419    1.431   .     A
C415   C417    1.415   .     A
C416   C872    1.389   .     S
C417   C873    1.389   1_554 S
C418   C421    1.417   .     A
C418   C869    1.428   .     S
C419   C420    1.417   .     A
C419   C868    1.428   1_554 S
C420   H438    1.075   .     S
C420   C422    1.385   .     A
C421   H439    1.075   .     S
C421   C423    1.385   .     A
C422   H429    1.085   .     S
C422   C866    1.389   1_554 S
C423   H433    1.085   .     S
C423   C867    1.389   .     S
C424   C125    1.328   1_565 S
C424   H140    1.088   1_565 S
C426   O447    1.301   .     A
C426   O449    1.300   .     A
Cu427  O450    1.914   .     S
Cu427  N442    2.018   .     S
Cu427  O446    1.952   .     S
Cu427  O443    1.956   .     S
Cu427  Cu428   2.686   .     S
Cu427  O447    1.940   .     S
Cu428  O445    1.952   .     S
Cu428  N441    2.018   .     S
Cu428  O448    1.940   .     S
Cu428  O444    1.956   .     S
Cu428  O449    1.914   .     S
H430   C125    1.088   1_565 S
H432   N342    1.029   1_655 S
H436   C307    1.084   1_655 S
N441   H331    1.029   1_655 S
N441   N342    1.282   1_655 S
Br451  C560    1.923   1_455 S
Br452  C509    1.923   .     S
C453   O495    1.285   .     A
C453   O493    1.291   .     A
C453   C474    1.428   .     S
C454   C456    1.478   .     S
C454   O498    1.301   .     A
C454   O500    1.300   .     A
C455   C459    1.412   .     A
C455   C461    1.403   .     A
C455   C476    1.479   .     S
C456   C460    1.412   .     A
C456   C462    1.403   .     A
C457   C466    1.402   .     A
C457   C459    1.394   .     A
C457   H586    1.084   1_455 S
C458   C460    1.394   .     A
C458   C467    1.402   .     A
C458   H537    1.084   .     S
C459   Br552   1.923   1_455 S
C460   Br501   1.923   .     S
C461   H485    1.073   .     S
C461   C463    1.407   .     A
C462   C465    1.408   .     A
C462   H484    1.073   .     S
C463   C468    1.431   .     A
C463   C466    1.415   .     A
C464   O496    1.285   .     A
C464   C475    1.428   .     S
C464   O494    1.291   .     A
C465   C469    1.431   .     A
C465   C467    1.415   .     A
C466   C22     1.389   1_556 S
C468   C471    1.417   .     A
C468   C19     1.428   1_556 S
C469   C470    1.417   .     A
C470   H488    1.075   .     S
C470   C472    1.385   .     A
C471   H489    1.075   .     S
C471   C473    1.385   .     A
C472   H479    1.085   .     S
C473   H483    1.085   .     S
C473   C17     1.389   1_556 S
C474   C625    1.328   .     S
C474   H640    1.088   .     S
C475   C774    1.328   1_545 S
C475   H780    1.088   1_545 S
C476   O497    1.301   .     A
C476   O499    1.300   .     A
Cu477  O500    1.914   .     S
Cu477  N492    2.018   .     S
Cu477  O496    1.952   .     S
Cu477  O493    1.956   .     S
Cu477  Cu478   2.686   .     S
Cu477  O497    1.940   .     S
Cu478  O495    1.952   .     S
Cu478  N491    2.018   .     S
Cu478  O498    1.940   .     S
Cu478  O494    1.956   .     S
Cu478  O499    1.914   .     S
H480   C625    1.088   .     S
H481   N591    1.029   1_455 S
H482   N542    1.029   .     S
H486   C507    1.084   .     S
H487   C558    1.084   1_455 S
H490   C774    1.088   1_545 S
N491   H531    1.029   .     S
N491   N542    1.282   .     S
N492   H582    1.029   1_455 S
N492   N591    1.282   1_455 S
Br502  C559    1.923   .     S
C503   O545    1.285   .     A
C503   O543    1.291   .     A
C503   C524    1.428   .     S
C504   C506    1.478   .     S
C504   O548    1.301   .     A
C504   O550    1.300   .     A
C505   C509    1.412   .     A
C505   C511    1.403   .     A
C505   C526    1.479   .     S
C506   C510    1.412   .     A
C506   C512    1.403   .     A
C507   C516    1.402   .     A
C507   C509    1.394   .     A
C508   C510    1.394   .     A
C508   C517    1.402   .     A
C508   H587    1.084   .     S
C510   Br551   1.923   .     S
C511   H535    1.073   .     S
C511   C513    1.407   .     A
C512   C515    1.408   .     A
C512   H534    1.073   .     S
C513   C518    1.431   .     A
C513   C516    1.415   .     A
C514   O546    1.285   .     A
C514   C525    1.428   .     S
C514   O544    1.291   .     A
C515   C519    1.431   .     A
C515   C517    1.415   .     A
C516   C72     1.389   1_556 S
C518   C521    1.417   .     A
C518   C69     1.428   1_556 S
C519   C520    1.417   .     A
C520   H538    1.075   .     S
C520   C522    1.385   .     A
C521   H539    1.075   .     S
C521   C523    1.385   .     A
C522   H529    1.085   .     S
C523   H533    1.085   .     S
C523   C67     1.389   1_556 S
C524   C675    1.328   .     S
C524   H690    1.088   .     S
C525   C824    1.328   1_545 S
C525   H830    1.088   1_545 S
C526   O547    1.301   .     A
C526   O549    1.300   .     A
Cu527  O550    1.914   .     S
Cu527  N542    2.018   .     S
Cu527  O546    1.952   .     S
Cu527  O543    1.956   .     S
Cu527  Cu528   2.686   .     S
Cu527  O547    1.940   .     S
Cu528  O545    1.952   .     S
Cu528  N541    2.018   .     S
Cu528  O548    1.940   .     S
Cu528  O544    1.956   .     S
Cu528  O549    1.914   .     S
H530   C675    1.088   .     S
H532   N592    1.029   .     S
H536   C557    1.084   .     S
H540   C824    1.088   1_545 S
N541   H581    1.029   .     S
N541   N592    1.282   .     S
Br552  C459    1.923   1_655 S
C553   O595    1.285   .     A
C553   O593    1.291   .     A
C553   C574    1.428   .     S
C554   C556    1.478   .     S
C554   O598    1.301   .     A
C554   O600    1.300   .     A
C555   C559    1.412   .     A
C555   C561    1.403   .     A
C555   C576    1.479   .     S
C556   C560    1.412   .     A
C556   C562    1.403   .     A
C557   C566    1.402   .     A
C557   C559    1.394   .     A
C558   C560    1.394   .     A
C558   C567    1.402   .     A
C558   H487    1.084   1_655 S
C560   Br451   1.923   1_655 S
C561   H585    1.073   .     S
C561   C563    1.407   .     A
C562   C565    1.408   .     A
C562   H584    1.073   .     S
C563   C568    1.431   .     A
C563   C566    1.415   .     A
C564   O596    1.285   .     A
C564   C575    1.428   .     S
C564   O594    1.291   .     A
C565   C569    1.431   .     A
C565   C567    1.415   .     A
C566   C122    1.389   1_556 S
C568   C571    1.417   .     A
C568   C119    1.428   1_556 S
C569   C570    1.417   .     A
C570   H588    1.075   .     S
C570   C572    1.385   .     A
C571   H589    1.075   .     S
C571   C573    1.385   .     A
C572   H579    1.085   .     S
C573   H583    1.085   .     S
C573   C117    1.389   1_556 S
C574   C725    1.328   .     S
C574   H740    1.088   .     S
C575   C874    1.328   1_545 S
C575   H880    1.088   1_545 S
C576   O597    1.301   .     A
C576   O599    1.300   .     A
Cu577  O600    1.914   .     S
Cu577  N592    2.018   .     S
Cu577  O596    1.952   .     S
Cu577  O593    1.956   .     S
Cu577  Cu578   2.686   .     S
Cu577  O597    1.940   .     S
Cu578  O595    1.952   .     S
Cu578  N591    2.018   .     S
Cu578  O598    1.940   .     S
Cu578  O594    1.956   .     S
Cu578  O599    1.914   .     S
H580   C725    1.088   .     S
H582   N492    1.029   1_655 S
H586   C457    1.084   1_655 S
H590   C874    1.088   1_545 S
N591   H481    1.029   1_655 S
N591   N492    1.282   1_655 S
Br601  C710    1.923   1_455 S
Br602  C659    1.923   .     S
C603   O645    1.285   .     A
C603   O643    1.291   .     A
C603   C624    1.428   .     S
C604   C606    1.478   .     S
C604   O648    1.301   .     A
C604   O650    1.300   .     A
C605   C609    1.412   .     A
C605   C611    1.403   .     A
C605   C626    1.479   .     S
C606   C610    1.412   .     A
C606   C612    1.403   .     A
C607   C616    1.402   .     A
C607   C609    1.394   .     A
C607   H736    1.084   1_455 S
C608   C610    1.394   .     A
C608   C617    1.402   .     A
C608   H687    1.084   .     S
C609   Br702   1.923   1_455 S
C610   Br651   1.923   .     S
C611   H635    1.073   .     S
C611   C613    1.407   .     A
C612   C615    1.408   .     A
C612   H634    1.073   .     S
C613   C618    1.431   .     A
C613   C616    1.415   .     A
C614   O646    1.285   .     A
C614   C625    1.428   .     S
C614   O644    1.291   .     A
C615   C619    1.431   .     A
C615   C617    1.415   .     A
C616   C172    1.389   1_556 S
C618   C621    1.417   .     A
C618   C169    1.428   1_556 S
C619   C620    1.417   .     A
C620   H638    1.075   .     S
C620   C622    1.385   .     A
C621   H639    1.075   .     S
C621   C623    1.385   .     A
C622   H629    1.085   .     S
C623   H633    1.085   .     S
C623   C167    1.389   1_556 S
C624   C775    1.328   .     S
C624   H790    1.088   .     S
C626   O647    1.301   .     A
C626   O649    1.300   .     A
Cu627  O650    1.914   .     S
Cu627  N642    2.018   .     S
Cu627  O646    1.952   .     S
Cu627  O643    1.956   .     S
Cu627  Cu628   2.686   .     S
Cu627  O647    1.940   .     S
Cu628  O645    1.952   .     S
Cu628  N641    2.018   .     S
Cu628  O648    1.940   .     S
Cu628  O644    1.956   .     S
Cu628  O649    1.914   .     S
H630   C775    1.088   .     S
H631   N741    1.029   1_455 S
H632   N692    1.029   .     S
H636   C657    1.084   .     S
H637   C708    1.084   1_455 S
N641   H681    1.029   .     S
N641   N692    1.282   .     S
N642   H732    1.029   1_455 S
N642   N741    1.282   1_455 S
Br652  C709    1.923   .     S
C653   O695    1.285   .     A
C653   O693    1.291   .     A
C653   C674    1.428   .     S
C654   C656    1.478   .     S
C654   O698    1.301   .     A
C654   O700    1.300   .     A
C655   C659    1.412   .     A
C655   C661    1.403   .     A
C655   C676    1.479   .     S
C656   C660    1.412   .     A
C656   C662    1.403   .     A
C657   C666    1.402   .     A
C657   C659    1.394   .     A
C658   C660    1.394   .     A
C658   C667    1.402   .     A
C658   H737    1.084   .     S
C660   Br701   1.923   .     S
C661   H685    1.073   .     S
C661   C663    1.407   .     A
C662   C665    1.408   .     A
C662   H684    1.073   .     S
C663   C668    1.431   .     A
C663   C666    1.415   .     A
C664   O696    1.285   .     A
C664   C675    1.428   .     S
C664   O694    1.291   .     A
C665   C669    1.431   .     A
C665   C667    1.415   .     A
C666   C222    1.389   1_556 S
C668   C671    1.417   .     A
C668   C219    1.428   1_556 S
C669   C670    1.417   .     A
C670   H688    1.075   .     S
C670   C672    1.385   .     A
C671   H689    1.075   .     S
C671   C673    1.385   .     A
C672   H679    1.085   .     S
C673   H683    1.085   .     S
C673   C217    1.389   1_556 S
C674   C825    1.328   .     S
C674   H840    1.088   .     S
C676   O697    1.301   .     A
C676   O699    1.300   .     A
Cu677  O700    1.914   .     S
Cu677  N692    2.018   .     S
Cu677  O696    1.952   .     S
Cu677  O693    1.956   .     S
Cu677  Cu678   2.686   .     S
Cu677  O697    1.940   .     S
Cu678  O695    1.952   .     S
Cu678  N691    2.018   .     S
Cu678  O698    1.940   .     S
Cu678  O694    1.956   .     S
Cu678  O699    1.914   .     S
H680   C825    1.088   .     S
H682   N742    1.029   .     S
H686   C707    1.084   .     S
N691   H731    1.029   .     S
N691   N742    1.282   .     S
Br702  C609    1.923   1_655 S
C703   O745    1.285   .     A
C703   O743    1.291   .     A
C703   C724    1.428   .     S
C704   C706    1.478   .     S
C704   O748    1.301   .     A
C704   O750    1.300   .     A
C705   C709    1.412   .     A
C705   C711    1.403   .     A
C705   C726    1.479   .     S
C706   C710    1.412   .     A
C706   C712    1.403   .     A
C707   C716    1.402   .     A
C707   C709    1.394   .     A
C708   C710    1.394   .     A
C708   C717    1.402   .     A
C708   H637    1.084   1_655 S
C710   Br601   1.923   1_655 S
C711   H735    1.073   .     S
C711   C713    1.407   .     A
C712   C715    1.408   .     A
C712   H734    1.073   .     S
C713   C718    1.431   .     A
C713   C716    1.415   .     A
C714   O746    1.285   .     A
C714   C725    1.428   .     S
C714   O744    1.291   .     A
C715   C719    1.431   .     A
C715   C717    1.415   .     A
C716   C272    1.389   1_556 S
C718   C721    1.417   .     A
C718   C269    1.428   1_556 S
C719   C720    1.417   .     A
C720   H738    1.075   .     S
C720   C722    1.385   .     A
C721   H739    1.075   .     S
C721   C723    1.385   .     A
C722   H729    1.085   .     S
C723   H733    1.085   .     S
C723   C267    1.389   1_556 S
C724   C875    1.328   .     S
C724   H890    1.088   .     S
C726   O747    1.301   .     A
C726   O749    1.300   .     A
Cu727  O750    1.914   .     S
Cu727  N742    2.018   .     S
Cu727  O746    1.952   .     S
Cu727  O743    1.956   .     S
Cu727  Cu728   2.686   .     S
Cu727  O747    1.940   .     S
Cu728  O745    1.952   .     S
Cu728  N741    2.018   .     S
Cu728  O748    1.940   .     S
Cu728  O744    1.956   .     S
Cu728  O749    1.914   .     S
H730   C875    1.088   .     S
H732   N642    1.029   1_655 S
H736   C607    1.084   1_655 S
N741   H631    1.029   1_655 S
N741   N642    1.282   1_655 S
Br751  C860    1.923   1_455 S
Br752  C809    1.923   .     S
C753   O795    1.285   .     A
C753   O793    1.291   .     A
C753   C774    1.428   .     S
C754   C756    1.478   .     S
C754   O798    1.301   .     A
C754   O800    1.300   .     A
C755   C759    1.412   .     A
C755   C761    1.403   .     A
C755   C776    1.479   .     S
C756   C760    1.412   .     A
C756   C762    1.403   .     A
C757   C766    1.402   .     A
C757   C759    1.394   .     A
C757   H886    1.084   1_455 S
C758   C760    1.394   .     A
C758   C767    1.402   .     A
C758   H837    1.084   .     S
C759   Br852   1.923   1_455 S
C760   Br801   1.923   .     S
C761   H785    1.073   .     S
C761   C763    1.407   .     A
C762   C765    1.408   .     A
C762   H784    1.073   .     S
C763   C768    1.431   .     A
C763   C766    1.415   .     A
C764   O796    1.285   .     A
C764   C775    1.428   .     S
C764   O794    1.291   .     A
C765   C769    1.431   .     A
C765   C767    1.415   .     A
C766   C322    1.389   1_556 S
C768   C771    1.417   .     A
C768   C319    1.428   1_556 S
C769   C770    1.417   .     A
C770   H788    1.075   .     S
C770   C772    1.385   .     A
C771   H789    1.075   .     S
C771   C773    1.385   .     A
C772   H779    1.085   .     S
C773   H783    1.085   .     S
C773   C317    1.389   1_556 S
C774   C475    1.328   1_565 S
C774   H490    1.088   1_565 S
C776   O797    1.301   .     A
C776   O799    1.300   .     A
Cu777  O800    1.914   .     S
Cu777  N792    2.018   .     S
Cu777  O796    1.952   .     S
Cu777  O793    1.956   .     S
Cu777  Cu778   2.686   .     S
Cu777  O797    1.940   .     S
Cu778  O795    1.952   .     S
Cu778  N791    2.018   .     S
Cu778  O798    1.940   .     S
Cu778  O794    1.956   .     S
Cu778  O799    1.914   .     S
H780   C475    1.088   1_565 S
H781   N891    1.029   1_455 S
H782   N842    1.029   .     S
H786   C807    1.084   .     S
H787   C858    1.084   1_455 S
N791   H831    1.029   .     S
N791   N842    1.282   .     S
N792   H882    1.029   1_455 S
N792   N891    1.282   1_455 S
Br802  C859    1.923   .     S
C803   O845    1.285   .     A
C803   O843    1.291   .     A
C803   C824    1.428   .     S
C804   C806    1.478   .     S
C804   O848    1.301   .     A
C804   O850    1.300   .     A
C805   C809    1.412   .     A
C805   C811    1.403   .     A
C805   C826    1.479   .     S
C806   C810    1.412   .     A
C806   C812    1.403   .     A
C807   C816    1.402   .     A
C807   C809    1.394   .     A
C808   C810    1.394   .     A
C808   C817    1.402   .     A
C808   H887    1.084   .     S
C810   Br851   1.923   .     S
C811   H835    1.073   .     S
C811   C813    1.407   .     A
C812   C815    1.408   .     A
C812   H834    1.073   .     S
C813   C818    1.431   .     A
C813   C816    1.415   .     A
C814   O846    1.285   .     A
C814   C825    1.428   .     S
C814   O844    1.291   .     A
C815   C819    1.431   .     A
C815   C817    1.415   .     A
C816   C372    1.389   1_556 S
C818   C821    1.417   .     A
C818   C369    1.428   1_556 S
C819   C820    1.417   .     A
C820   H838    1.075   .     S
C820   C822    1.385   .     A
C821   H839    1.075   .     S
C821   C823    1.385   .     A
C822   H829    1.085   .     S
C823   H833    1.085   .     S
C823   C367    1.389   1_556 S
C824   C525    1.328   1_565 S
C824   H540    1.088   1_565 S
C826   O847    1.301   .     A
C826   O849    1.300   .     A
Cu827  O850    1.914   .     S
Cu827  N842    2.018   .     S
Cu827  O846    1.952   .     S
Cu827  O843    1.956   .     S
Cu827  Cu828   2.686   .     S
Cu827  O847    1.940   .     S
Cu828  O845    1.952   .     S
Cu828  N841    2.018   .     S
Cu828  O848    1.940   .     S
Cu828  O844    1.956   .     S
Cu828  O849    1.914   .     S
H830   C525    1.088   1_565 S
H832   N892    1.029   .     S
H836   C857    1.084   .     S
N841   H881    1.029   .     S
N841   N892    1.282   .     S
Br852  C759    1.923   1_655 S
C853   O895    1.285   .     A
C853   O893    1.291   .     A
C853   C874    1.428   .     S
C854   C856    1.478   .     S
C854   O898    1.301   .     A
C854   O900    1.300   .     A
C855   C859    1.412   .     A
C855   C861    1.403   .     A
C855   C876    1.479   .     S
C856   C860    1.412   .     A
C856   C862    1.403   .     A
C857   C866    1.402   .     A
C857   C859    1.394   .     A
C858   C860    1.394   .     A
C858   C867    1.402   .     A
C858   H787    1.084   1_655 S
C860   Br751   1.923   1_655 S
C861   H885    1.073   .     S
C861   C863    1.407   .     A
C862   C865    1.408   .     A
C862   H884    1.073   .     S
C863   C868    1.431   .     A
C863   C866    1.415   .     A
C864   O896    1.285   .     A
C864   C875    1.428   .     S
C864   O894    1.291   .     A
C865   C869    1.431   .     A
C865   C867    1.415   .     A
C866   C422    1.389   1_556 S
C868   C871    1.417   .     A
C868   C419    1.428   1_556 S
C869   C870    1.417   .     A
C870   H888    1.075   .     S
C870   C872    1.385   .     A
C871   H889    1.075   .     S
C871   C873    1.385   .     A
C872   H879    1.085   .     S
C873   H883    1.085   .     S
C873   C417    1.389   1_556 S
C874   C575    1.328   1_565 S
C874   H590    1.088   1_565 S
C876   O897    1.301   .     A
C876   O899    1.300   .     A
Cu877  O900    1.914   .     S
Cu877  N892    2.018   .     S
Cu877  O896    1.952   .     S
Cu877  O893    1.956   .     S
Cu877  Cu878   2.686   .     S
Cu877  O897    1.940   .     S
Cu878  O895    1.952   .     S
Cu878  N891    2.018   .     S
Cu878  O898    1.940   .     S
Cu878  O894    1.956   .     S
Cu878  O899    1.914   .     S
H880   C575    1.088   1_565 S
H882   N792    1.029   1_655 S
H886   C757    1.084   1_655 S
N891   H781    1.029   1_655 S
N891   N792    1.282   1_655 S
