data_str_m2_o1_o18_pcu_sym.21
_audit_creation_date              2020-01-03
_audit_creation_method            'Materials Studio'
_symmetry_space_group_name_H-M    'P1'
_symmetry_Int_Tables_number       1
_symmetry_cell_setting            triclinic
loop_
_symmetry_equiv_pos_as_xyz
  x,y,z
_cell_length_a                    28.7260
_cell_length_b                    32.4642
_cell_length_c                    30.8461
_cell_angle_alpha                 88.4064
_cell_angle_beta                  73.9061
_cell_angle_gamma                 90.1254
loop_
_atom_site_label
_atom_site_type_symbol
_atom_site_fract_x
_atom_site_fract_y
_atom_site_fract_z
_atom_site_U_iso_or_equiv
_atom_site_adp_type
_atom_site_occupancy
C1     C     0.00007   0.08757   0.24947   0.00000  Uiso   1.00
C2     C     0.02357   0.02108   0.27699   0.00000  Uiso   1.00
C3     C     0.33203   0.29072   0.25080   0.00000  Uiso   1.00
C4     C     0.33278   0.04303   0.24993   0.00000  Uiso   1.00
C5     C     0.18038   0.14603   0.28352   0.00000  Uiso   1.00
C6     C     0.15270   0.18783   0.21672   0.00000  Uiso   1.00
C7     C     0.13127   0.14633   0.28315   0.00000  Uiso   1.00
C8     C     0.20213   0.18667   0.21661   0.00000  Uiso   1.00
C9     C     0.30605   0.16740   0.33608   0.00000  Uiso   1.00
C10    C     0.02726   0.16616   0.16394   0.00000  Uiso   1.00
C11    C     0.29123   0.16646   0.38560   0.00000  Uiso   1.00
C12    C     0.33316   0.24594   0.25007   0.00000  Uiso   1.00
C13    C     0.04195   0.16763   0.11448   0.00000  Uiso   1.00
C14    C     0.30476   0.14171   0.45645   0.00000  Uiso   1.00
C15    C     0.02919   0.19538   0.04478   0.00000  Uiso   1.00
C16    C     0.32056   0.14683   0.40921   0.00000  Uiso   1.00
C17    C     0.01299   0.18865   0.09149   0.00000  Uiso   1.00
C18    C     0.24723   0.18395   0.40951   0.00000  Uiso   1.00
C19    C     0.08644   0.15102   0.09003   0.00000  Uiso   1.00
C20    C     0.22624   0.17060   0.45485   0.00000  Uiso   1.00
C21    C     0.10764   0.16635   0.04545   0.00000  Uiso   1.00
C22    C     0.25727   0.15349   0.47922   0.00000  Uiso   1.00
C23    C     0.19218   0.15631   0.04821   0.00000  Uiso   1.00
C24    C     0.07669   0.18418   0.02151   0.00000  Uiso   1.00
C25    C     0.17562   0.17315   0.47663   0.00000  Uiso   1.00
C26    C     0.15825   0.16439   0.02374   0.00000  Uiso   1.00
C27    C     0.10426   0.11166   0.10603   0.00000  Uiso   1.00
C28    C     0.23077   0.22227   0.39040   0.00000  Uiso   1.00
C29    C     0.02474   0.09010   0.46348   0.00000  Uiso   1.00
C30    C     0.33193   0.25587   0.02684   0.00000  Uiso   1.00
C31    C     0.24461   0.05411   0.20252   0.00000  Uiso   1.00
C32    C     0.10107   0.29270   0.27925   0.00000  Uiso   1.00
C33    C     0.22817   0.29002   0.22791   0.00000  Uiso   1.00
C34    C     0.14154   0.18187   0.45238   0.00000  Uiso   1.00
C35    C     0.01477   0.04594   0.34668   0.00000  Uiso   1.00
C36    C     0.19008   0.12340   0.32214   0.00000  Uiso   1.00
C37    C     0.14102   0.21397   0.18107   0.00000  Uiso   1.00
C38    C     0.24029   0.14872   0.02616   0.00000  Uiso   1.00
C39    C     0.09356   0.18982   0.47469   0.00000  Uiso   1.00
C40    C     0.30712   0.02252   0.22409   0.00000  Uiso   1.00
C41    C     0.02607   0.31154   0.27494   0.00000  Uiso   1.00
C42    C     0.30378   0.31280   0.22719   0.00000  Uiso   1.00
Cu43   Cu    0.04689   0.16667   0.25000   0.00000  Uiso   1.00
Cu44   Cu    0.28645   0.16666   0.25000   0.00000  Uiso   1.00
H45    H     0.26413   0.13914   0.04622   0.00000  Uiso   1.00
H46    H     0.24099   0.22898   0.35439   0.00000  Uiso   1.00
H47    H     0.05759   0.09734   0.43532   0.00000  Uiso   1.00
H48    H     0.33318   0.06884   0.45268   0.00000  Uiso   1.00
H49    H     0.03699   0.07362   0.49027   0.00000  Uiso   1.00
H50    H     0.03578   0.26922   0.01372   0.00000  Uiso   1.00
H51    H     0.31593   0.26423   0.06260   0.00000  Uiso   1.00
H52    H     0.30920   0.26992   0.00670   0.00000  Uiso   1.00
H53    H     0.24079   0.08560   0.18907   0.00000  Uiso   1.00
H54    H     0.22788   0.05428   0.23971   0.00000  Uiso   1.00
H55    H     0.22411   0.03292   0.18681   0.00000  Uiso   1.00
H56    H     0.06955   0.19988   0.45499   0.00000  Uiso   1.00
H57    H     0.11004   0.28620   0.24260   0.00000  Uiso   1.00
H58    H     0.11988   0.26938   0.29509   0.00000  Uiso   1.00
H59    H     0.11555   0.32346   0.28404   0.00000  Uiso   1.00
H60    H     0.22079   0.26202   0.25007   0.00000  Uiso   1.00
H61    H     0.20563   0.28797   0.20409   0.00000  Uiso   1.00
H62    H     0.21537   0.31674   0.24967   0.00000  Uiso   1.00
H63    H     0.31676   0.06545   0.34512   0.00000  Uiso   1.00
H64    H     0.00193   0.01545   0.36312   0.00000  Uiso   1.00
H65    H     0.03417   0.06157   0.36811   0.00000  Uiso   1.00
H66    H     0.16880   0.13014   0.35610   0.00000  Uiso   1.00
H67    H     0.31096   0.19977   0.10971   0.00000  Uiso   1.00
H68    H     0.10611   0.22797   0.18599   0.00000  Uiso   1.00
H69    H     0.02277   0.13646   0.39079   0.00000  Uiso   1.00
H70    H     0.18176   0.15475   0.08469   0.00000  Uiso   1.00
H71    H     0.15160   0.18367   0.41596   0.00000  Uiso   1.00
H72    H     0.10407   0.12996   0.30945   0.00000  Uiso   1.00
H73    H     0.22949   0.20309   0.19057   0.00000  Uiso   1.00
H74    H     0.13425   0.09550   0.08406   0.00000  Uiso   1.00
N75    N     0.11736   0.16668   0.24999   0.00000  Uiso   1.00
N76    N     0.21597   0.16666   0.25001   0.00000  Uiso   1.00
O77    O     0.03958   0.10655   0.25000   0.00000  Uiso   1.00
O78    O     0.20794   0.24835   0.41520   0.00000  Uiso   1.00
O79    O     0.00163   0.12664   0.48142   0.00000  Uiso   1.00
O80    O     0.33189   0.21283   0.02197   0.00000  Uiso   1.00
O81    O     0.29421   0.04378   0.18953   0.00000  Uiso   1.00
O82    O     0.05084   0.28960   0.30055   0.00000  Uiso   1.00
O83    O     0.27758   0.29244   0.20264   0.00000  Uiso   1.00
O84    O     0.04726   0.04158   0.30352   0.00000  Uiso   1.00
O85    O     0.21851   0.09499   0.31680   0.00000  Uiso   1.00
O86    O     0.17146   0.22121   0.14520   0.00000  Uiso   1.00
O87    O     0.29375   0.22678   0.25000   0.00000  Uiso   1.00
O88    O     0.29372   0.10654   0.25001   0.00000  Uiso   1.00
O89    O     0.03961   0.22679   0.25000   0.00000  Uiso   1.00
O90    O     0.01852   0.16668   0.31492   0.00000  Uiso   1.00
O91    O     0.31481   0.16666   0.18509   0.00000  Uiso   1.00
O92    O     0.27267   0.16667   0.31492   0.00000  Uiso   1.00
O93    O     0.06067   0.16667   0.18508   0.00000  Uiso   1.00
O94    O     0.08395   0.09513   0.14241   0.00000  Uiso   1.00
C95    C     0.33340   0.08757   0.24947   0.00000  Uiso   1.00
C96    C     0.35690   0.02108   0.27699   0.00000  Uiso   1.00
C97    C     0.66536   0.29072   0.25080   0.00000  Uiso   1.00
C98    C     0.66612   0.04303   0.24993   0.00000  Uiso   1.00
C99    C     0.51372   0.14603   0.28352   0.00000  Uiso   1.00
C100   C     0.48603   0.18783   0.21672   0.00000  Uiso   1.00
C101   C     0.46460   0.14633   0.28315   0.00000  Uiso   1.00
C102   C     0.53547   0.18667   0.21661   0.00000  Uiso   1.00
C103   C     0.63938   0.16740   0.33608   0.00000  Uiso   1.00
C104   C     0.36059   0.16616   0.16394   0.00000  Uiso   1.00
C105   C     0.62456   0.16646   0.38560   0.00000  Uiso   1.00
C106   C     0.66649   0.24594   0.25007   0.00000  Uiso   1.00
C107   C     0.37528   0.16763   0.11448   0.00000  Uiso   1.00
C108   C     0.63809   0.14171   0.45645   0.00000  Uiso   1.00
C109   C     0.36252   0.19538   0.04478   0.00000  Uiso   1.00
C110   C     0.65389   0.14683   0.40921   0.00000  Uiso   1.00
C111   C     0.34632   0.18865   0.09149   0.00000  Uiso   1.00
C112   C     0.58056   0.18395   0.40951   0.00000  Uiso   1.00
C113   C     0.41977   0.15102   0.09003   0.00000  Uiso   1.00
C114   C     0.55957   0.17060   0.45485   0.00000  Uiso   1.00
C115   C     0.44097   0.16635   0.04545   0.00000  Uiso   1.00
C116   C     0.59060   0.15349   0.47922   0.00000  Uiso   1.00
C117   C     0.52552   0.15631   0.04821   0.00000  Uiso   1.00
C118   C     0.41002   0.18418   0.02151   0.00000  Uiso   1.00
C119   C     0.50895   0.17315   0.47663   0.00000  Uiso   1.00
C120   C     0.49158   0.16439   0.02374   0.00000  Uiso   1.00
C121   C     0.43759   0.11166   0.10603   0.00000  Uiso   1.00
C122   C     0.56411   0.22227   0.39040   0.00000  Uiso   1.00
C123   C     0.35808   0.09010   0.46348   0.00000  Uiso   1.00
C124   C     0.66527   0.25587   0.02684   0.00000  Uiso   1.00
C125   C     0.57794   0.05411   0.20252   0.00000  Uiso   1.00
C126   C     0.43441   0.29270   0.27925   0.00000  Uiso   1.00
C127   C     0.56151   0.29002   0.22791   0.00000  Uiso   1.00
C128   C     0.47487   0.18187   0.45238   0.00000  Uiso   1.00
C129   C     0.34810   0.04594   0.34668   0.00000  Uiso   1.00
C130   C     0.52341   0.12340   0.32214   0.00000  Uiso   1.00
C131   C     0.47435   0.21397   0.18107   0.00000  Uiso   1.00
C132   C     0.57362   0.14872   0.02616   0.00000  Uiso   1.00
C133   C     0.42690   0.18982   0.47469   0.00000  Uiso   1.00
C134   C     0.64045   0.02252   0.22409   0.00000  Uiso   1.00
C135   C     0.35940   0.31154   0.27494   0.00000  Uiso   1.00
C136   C     0.63711   0.31280   0.22719   0.00000  Uiso   1.00
Cu137  Cu    0.38022   0.16667   0.25000   0.00000  Uiso   1.00
Cu138  Cu    0.61978   0.16666   0.25000   0.00000  Uiso   1.00
H139   H     0.59747   0.13914   0.04622   0.00000  Uiso   1.00
H140   H     0.57433   0.22898   0.35439   0.00000  Uiso   1.00
H141   H     0.39092   0.09734   0.43532   0.00000  Uiso   1.00
H142   H     0.66651   0.06884   0.45268   0.00000  Uiso   1.00
H143   H     0.37033   0.07362   0.49027   0.00000  Uiso   1.00
H144   H     0.36911   0.26922   0.01372   0.00000  Uiso   1.00
H145   H     0.64926   0.26423   0.06260   0.00000  Uiso   1.00
H146   H     0.64253   0.26992   0.00670   0.00000  Uiso   1.00
H147   H     0.57412   0.08560   0.18907   0.00000  Uiso   1.00
H148   H     0.56121   0.05428   0.23971   0.00000  Uiso   1.00
H149   H     0.55745   0.03292   0.18681   0.00000  Uiso   1.00
H150   H     0.40288   0.19988   0.45499   0.00000  Uiso   1.00
H151   H     0.44337   0.28620   0.24260   0.00000  Uiso   1.00
H152   H     0.45321   0.26938   0.29509   0.00000  Uiso   1.00
H153   H     0.44889   0.32346   0.28404   0.00000  Uiso   1.00
H154   H     0.55413   0.26202   0.25007   0.00000  Uiso   1.00
H155   H     0.53896   0.28797   0.20409   0.00000  Uiso   1.00
H156   H     0.54871   0.31674   0.24967   0.00000  Uiso   1.00
H157   H     0.65009   0.06545   0.34512   0.00000  Uiso   1.00
H158   H     0.33526   0.01545   0.36312   0.00000  Uiso   1.00
H159   H     0.36751   0.06157   0.36811   0.00000  Uiso   1.00
H160   H     0.50213   0.13014   0.35610   0.00000  Uiso   1.00
H161   H     0.64429   0.19977   0.10971   0.00000  Uiso   1.00
H162   H     0.43944   0.22797   0.18599   0.00000  Uiso   1.00
H163   H     0.35611   0.13646   0.39079   0.00000  Uiso   1.00
H164   H     0.51510   0.15475   0.08469   0.00000  Uiso   1.00
H165   H     0.48493   0.18367   0.41596   0.00000  Uiso   1.00
H166   H     0.43741   0.12996   0.30945   0.00000  Uiso   1.00
H167   H     0.56282   0.20309   0.19057   0.00000  Uiso   1.00
H168   H     0.46759   0.09550   0.08406   0.00000  Uiso   1.00
N169   N     0.45069   0.16668   0.24999   0.00000  Uiso   1.00
N170   N     0.54931   0.16666   0.25001   0.00000  Uiso   1.00
O171   O     0.37291   0.10655   0.25000   0.00000  Uiso   1.00
O172   O     0.54127   0.24835   0.41520   0.00000  Uiso   1.00
O173   O     0.33497   0.12664   0.48142   0.00000  Uiso   1.00
O174   O     0.66522   0.21283   0.02197   0.00000  Uiso   1.00
O175   O     0.62754   0.04378   0.18953   0.00000  Uiso   1.00
O176   O     0.38417   0.28960   0.30055   0.00000  Uiso   1.00
O177   O     0.61091   0.29244   0.20264   0.00000  Uiso   1.00
O178   O     0.38059   0.04158   0.30352   0.00000  Uiso   1.00
O179   O     0.55185   0.09499   0.31680   0.00000  Uiso   1.00
O180   O     0.50480   0.22121   0.14520   0.00000  Uiso   1.00
O181   O     0.62709   0.22678   0.25000   0.00000  Uiso   1.00
O182   O     0.62706   0.10654   0.25001   0.00000  Uiso   1.00
O183   O     0.37294   0.22679   0.25000   0.00000  Uiso   1.00
O184   O     0.35186   0.16668   0.31492   0.00000  Uiso   1.00
O185   O     0.64814   0.16666   0.18509   0.00000  Uiso   1.00
O186   O     0.60600   0.16667   0.31492   0.00000  Uiso   1.00
O187   O     0.39400   0.16667   0.18508   0.00000  Uiso   1.00
O188   O     0.41729   0.09513   0.14241   0.00000  Uiso   1.00
C189   C     0.66674   0.08757   0.24947   0.00000  Uiso   1.00
C190   C     0.69024   0.02108   0.27699   0.00000  Uiso   1.00
C191   C     0.99869   0.29072   0.25080   0.00000  Uiso   1.00
C192   C     0.99945   0.04303   0.24993   0.00000  Uiso   1.00
C193   C     0.84705   0.14603   0.28352   0.00000  Uiso   1.00
C194   C     0.81937   0.18783   0.21672   0.00000  Uiso   1.00
C195   C     0.79793   0.14633   0.28315   0.00000  Uiso   1.00
C196   C     0.86880   0.18667   0.21661   0.00000  Uiso   1.00
C197   C     0.97272   0.16740   0.33608   0.00000  Uiso   1.00
C198   C     0.69393   0.16616   0.16394   0.00000  Uiso   1.00
C199   C     0.95790   0.16646   0.38560   0.00000  Uiso   1.00
C200   C     0.99982   0.24594   0.25007   0.00000  Uiso   1.00
C201   C     0.70861   0.16763   0.11448   0.00000  Uiso   1.00
C202   C     0.97143   0.14171   0.45645   0.00000  Uiso   1.00
C203   C     0.69585   0.19538   0.04478   0.00000  Uiso   1.00
C204   C     0.98722   0.14683   0.40921   0.00000  Uiso   1.00
C205   C     0.67965   0.18865   0.09149   0.00000  Uiso   1.00
C206   C     0.91389   0.18395   0.40951   0.00000  Uiso   1.00
C207   C     0.75310   0.15102   0.09003   0.00000  Uiso   1.00
C208   C     0.89290   0.17060   0.45485   0.00000  Uiso   1.00
C209   C     0.77431   0.16635   0.04545   0.00000  Uiso   1.00
C210   C     0.92393   0.15349   0.47922   0.00000  Uiso   1.00
C211   C     0.85885   0.15631   0.04821   0.00000  Uiso   1.00
C212   C     0.74335   0.18418   0.02151   0.00000  Uiso   1.00
C213   C     0.84228   0.17315   0.47663   0.00000  Uiso   1.00
C214   C     0.82491   0.16439   0.02374   0.00000  Uiso   1.00
C215   C     0.77092   0.11166   0.10603   0.00000  Uiso   1.00
C216   C     0.89744   0.22227   0.39040   0.00000  Uiso   1.00
C217   C     0.69141   0.09010   0.46348   0.00000  Uiso   1.00
C218   C     0.99860   0.25587   0.02684   0.00000  Uiso   1.00
C219   C     0.91127   0.05411   0.20252   0.00000  Uiso   1.00
C220   C     0.76774   0.29270   0.27925   0.00000  Uiso   1.00
C221   C     0.89484   0.29002   0.22791   0.00000  Uiso   1.00
C222   C     0.80821   0.18187   0.45238   0.00000  Uiso   1.00
C223   C     0.68144   0.04594   0.34668   0.00000  Uiso   1.00
C224   C     0.85674   0.12340   0.32214   0.00000  Uiso   1.00
C225   C     0.80768   0.21397   0.18107   0.00000  Uiso   1.00
C226   C     0.90695   0.14872   0.02616   0.00000  Uiso   1.00
C227   C     0.76023   0.18982   0.47469   0.00000  Uiso   1.00
C228   C     0.97378   0.02252   0.22409   0.00000  Uiso   1.00
C229   C     0.69273   0.31154   0.27494   0.00000  Uiso   1.00
C230   C     0.97044   0.31280   0.22719   0.00000  Uiso   1.00
Cu231  Cu    0.71355   0.16667   0.25000   0.00000  Uiso   1.00
Cu232  Cu    0.95311   0.16666   0.25000   0.00000  Uiso   1.00
H233   H     0.93080   0.13914   0.04622   0.00000  Uiso   1.00
H234   H     0.90766   0.22898   0.35439   0.00000  Uiso   1.00
H235   H     0.72425   0.09734   0.43532   0.00000  Uiso   1.00
H236   H     0.99984   0.06884   0.45268   0.00000  Uiso   1.00
H237   H     0.70366   0.07362   0.49027   0.00000  Uiso   1.00
H238   H     0.70245   0.26922   0.01372   0.00000  Uiso   1.00
H239   H     0.98259   0.26423   0.06260   0.00000  Uiso   1.00
H240   H     0.97587   0.26992   0.00670   0.00000  Uiso   1.00
H241   H     0.90745   0.08560   0.18907   0.00000  Uiso   1.00
H242   H     0.89455   0.05428   0.23971   0.00000  Uiso   1.00
H243   H     0.89078   0.03292   0.18681   0.00000  Uiso   1.00
H244   H     0.73622   0.19988   0.45499   0.00000  Uiso   1.00
H245   H     0.77670   0.28620   0.24260   0.00000  Uiso   1.00
H246   H     0.78655   0.26938   0.29509   0.00000  Uiso   1.00
H247   H     0.78222   0.32346   0.28404   0.00000  Uiso   1.00
H248   H     0.88746   0.26202   0.25007   0.00000  Uiso   1.00
H249   H     0.87230   0.28797   0.20409   0.00000  Uiso   1.00
H250   H     0.88204   0.31674   0.24967   0.00000  Uiso   1.00
H251   H     0.98343   0.06545   0.34512   0.00000  Uiso   1.00
H252   H     0.66859   0.01545   0.36312   0.00000  Uiso   1.00
H253   H     0.70084   0.06157   0.36811   0.00000  Uiso   1.00
H254   H     0.83547   0.13014   0.35610   0.00000  Uiso   1.00
H255   H     0.97762   0.19977   0.10971   0.00000  Uiso   1.00
H256   H     0.77278   0.22797   0.18599   0.00000  Uiso   1.00
H257   H     0.68944   0.13646   0.39079   0.00000  Uiso   1.00
H258   H     0.84843   0.15475   0.08469   0.00000  Uiso   1.00
H259   H     0.81827   0.18367   0.41596   0.00000  Uiso   1.00
H260   H     0.77074   0.12996   0.30945   0.00000  Uiso   1.00
H261   H     0.89616   0.20309   0.19057   0.00000  Uiso   1.00
H262   H     0.80092   0.09550   0.08406   0.00000  Uiso   1.00
N263   N     0.78403   0.16668   0.24999   0.00000  Uiso   1.00
N264   N     0.88264   0.16666   0.25001   0.00000  Uiso   1.00
O265   O     0.70625   0.10655   0.25000   0.00000  Uiso   1.00
O266   O     0.87461   0.24835   0.41520   0.00000  Uiso   1.00
O267   O     0.66830   0.12664   0.48142   0.00000  Uiso   1.00
O268   O     0.99855   0.21283   0.02197   0.00000  Uiso   1.00
O269   O     0.96088   0.04378   0.18953   0.00000  Uiso   1.00
O270   O     0.71751   0.28960   0.30055   0.00000  Uiso   1.00
O271   O     0.94425   0.29244   0.20264   0.00000  Uiso   1.00
O272   O     0.71393   0.04158   0.30352   0.00000  Uiso   1.00
O273   O     0.88518   0.09499   0.31680   0.00000  Uiso   1.00
O274   O     0.83813   0.22121   0.14520   0.00000  Uiso   1.00
O275   O     0.96042   0.22678   0.25000   0.00000  Uiso   1.00
O276   O     0.96039   0.10654   0.25001   0.00000  Uiso   1.00
O277   O     0.70628   0.22679   0.25000   0.00000  Uiso   1.00
O278   O     0.68519   0.16668   0.31492   0.00000  Uiso   1.00
O279   O     0.98148   0.16666   0.18509   0.00000  Uiso   1.00
O280   O     0.93933   0.16667   0.31492   0.00000  Uiso   1.00
O281   O     0.72733   0.16667   0.18508   0.00000  Uiso   1.00
O282   O     0.75062   0.09513   0.14241   0.00000  Uiso   1.00
C283   C     0.00007   0.42090   0.24947   0.00000  Uiso   1.00
C284   C     0.02357   0.35441   0.27699   0.00000  Uiso   1.00
C285   C     0.33203   0.62405   0.25080   0.00000  Uiso   1.00
C286   C     0.33278   0.37636   0.24993   0.00000  Uiso   1.00
C287   C     0.18038   0.47936   0.28352   0.00000  Uiso   1.00
C288   C     0.15270   0.52116   0.21672   0.00000  Uiso   1.00
C289   C     0.13127   0.47966   0.28315   0.00000  Uiso   1.00
C290   C     0.20213   0.52000   0.21661   0.00000  Uiso   1.00
C291   C     0.30605   0.50073   0.33608   0.00000  Uiso   1.00
C292   C     0.02726   0.49949   0.16394   0.00000  Uiso   1.00
C293   C     0.29123   0.49980   0.38560   0.00000  Uiso   1.00
C294   C     0.33316   0.57927   0.25007   0.00000  Uiso   1.00
C295   C     0.04195   0.50097   0.11448   0.00000  Uiso   1.00
C296   C     0.30476   0.47504   0.45645   0.00000  Uiso   1.00
C297   C     0.02919   0.52871   0.04478   0.00000  Uiso   1.00
C298   C     0.32056   0.48017   0.40921   0.00000  Uiso   1.00
C299   C     0.01299   0.52199   0.09149   0.00000  Uiso   1.00
C300   C     0.24723   0.51728   0.40951   0.00000  Uiso   1.00
C301   C     0.08644   0.48435   0.09003   0.00000  Uiso   1.00
C302   C     0.22624   0.50394   0.45485   0.00000  Uiso   1.00
C303   C     0.10764   0.49968   0.04545   0.00000  Uiso   1.00
C304   C     0.25727   0.48682   0.47922   0.00000  Uiso   1.00
C305   C     0.19218   0.48964   0.04821   0.00000  Uiso   1.00
C306   C     0.07669   0.51752   0.02151   0.00000  Uiso   1.00
C307   C     0.17562   0.50649   0.47663   0.00000  Uiso   1.00
C308   C     0.15825   0.49773   0.02374   0.00000  Uiso   1.00
C309   C     0.10426   0.44499   0.10603   0.00000  Uiso   1.00
C310   C     0.23077   0.55560   0.39040   0.00000  Uiso   1.00
C311   C     0.02474   0.42343   0.46348   0.00000  Uiso   1.00
C312   C     0.33193   0.58921   0.02684   0.00000  Uiso   1.00
C313   C     0.24461   0.38744   0.20252   0.00000  Uiso   1.00
C314   C     0.10107   0.62603   0.27925   0.00000  Uiso   1.00
C315   C     0.22817   0.62335   0.22791   0.00000  Uiso   1.00
C316   C     0.14154   0.51521   0.45238   0.00000  Uiso   1.00
C317   C     0.01477   0.37927   0.34668   0.00000  Uiso   1.00
C318   C     0.19008   0.45674   0.32214   0.00000  Uiso   1.00
C319   C     0.14102   0.54730   0.18107   0.00000  Uiso   1.00
C320   C     0.24029   0.48205   0.02616   0.00000  Uiso   1.00
C321   C     0.09356   0.52316   0.47469   0.00000  Uiso   1.00
C322   C     0.30712   0.35585   0.22409   0.00000  Uiso   1.00
C323   C     0.02607   0.64488   0.27494   0.00000  Uiso   1.00
C324   C     0.30378   0.64613   0.22719   0.00000  Uiso   1.00
Cu325  Cu    0.04689   0.50001   0.25000   0.00000  Uiso   1.00
Cu326  Cu    0.28645   0.49999   0.25000   0.00000  Uiso   1.00
H327   H     0.26413   0.47247   0.04622   0.00000  Uiso   1.00
H328   H     0.24099   0.56232   0.35439   0.00000  Uiso   1.00
H329   H     0.05759   0.43067   0.43532   0.00000  Uiso   1.00
H330   H     0.33318   0.40218   0.45268   0.00000  Uiso   1.00
H331   H     0.03699   0.40696   0.49027   0.00000  Uiso   1.00
H332   H     0.03578   0.60255   0.01372   0.00000  Uiso   1.00
H333   H     0.31593   0.59756   0.06260   0.00000  Uiso   1.00
H334   H     0.30920   0.60325   0.00670   0.00000  Uiso   1.00
H335   H     0.24079   0.41893   0.18907   0.00000  Uiso   1.00
H336   H     0.22788   0.38761   0.23971   0.00000  Uiso   1.00
H337   H     0.22411   0.36625   0.18681   0.00000  Uiso   1.00
H338   H     0.06955   0.53322   0.45499   0.00000  Uiso   1.00
H339   H     0.11004   0.61953   0.24260   0.00000  Uiso   1.00
H340   H     0.11988   0.60272   0.29509   0.00000  Uiso   1.00
H341   H     0.11555   0.65680   0.28404   0.00000  Uiso   1.00
H342   H     0.22079   0.59535   0.25007   0.00000  Uiso   1.00
H343   H     0.20563   0.62131   0.20409   0.00000  Uiso   1.00
H344   H     0.21537   0.65008   0.24967   0.00000  Uiso   1.00
H345   H     0.31676   0.39879   0.34512   0.00000  Uiso   1.00
H346   H     0.00193   0.34879   0.36312   0.00000  Uiso   1.00
H347   H     0.03417   0.39490   0.36811   0.00000  Uiso   1.00
H348   H     0.16880   0.46348   0.35610   0.00000  Uiso   1.00
H349   H     0.31096   0.53311   0.10971   0.00000  Uiso   1.00
H350   H     0.10611   0.56130   0.18599   0.00000  Uiso   1.00
H351   H     0.02277   0.46979   0.39079   0.00000  Uiso   1.00
H352   H     0.18176   0.48808   0.08469   0.00000  Uiso   1.00
H353   H     0.15160   0.51701   0.41596   0.00000  Uiso   1.00
H354   H     0.10407   0.46329   0.30945   0.00000  Uiso   1.00
H355   H     0.22949   0.53642   0.19057   0.00000  Uiso   1.00
H356   H     0.13425   0.42883   0.08406   0.00000  Uiso   1.00
N357   N     0.11736   0.50001   0.24999   0.00000  Uiso   1.00
N358   N     0.21597   0.49999   0.25001   0.00000  Uiso   1.00
O359   O     0.03958   0.43989   0.25000   0.00000  Uiso   1.00
O360   O     0.20794   0.58168   0.41520   0.00000  Uiso   1.00
O361   O     0.00163   0.45997   0.48142   0.00000  Uiso   1.00
O362   O     0.33189   0.54616   0.02197   0.00000  Uiso   1.00
O363   O     0.29421   0.37712   0.18953   0.00000  Uiso   1.00
O364   O     0.05084   0.62294   0.30055   0.00000  Uiso   1.00
O365   O     0.27758   0.62577   0.20264   0.00000  Uiso   1.00
O366   O     0.04726   0.37491   0.30352   0.00000  Uiso   1.00
O367   O     0.21851   0.42832   0.31680   0.00000  Uiso   1.00
O368   O     0.17146   0.55454   0.14520   0.00000  Uiso   1.00
O369   O     0.29375   0.56011   0.25000   0.00000  Uiso   1.00
O370   O     0.29372   0.43988   0.25001   0.00000  Uiso   1.00
O371   O     0.03961   0.56012   0.25000   0.00000  Uiso   1.00
O372   O     0.01852   0.50001   0.31492   0.00000  Uiso   1.00
O373   O     0.31481   0.49999   0.18509   0.00000  Uiso   1.00
O374   O     0.27267   0.50000   0.31492   0.00000  Uiso   1.00
O375   O     0.06067   0.50000   0.18508   0.00000  Uiso   1.00
O376   O     0.08395   0.42846   0.14241   0.00000  Uiso   1.00
C377   C     0.33340   0.42090   0.24947   0.00000  Uiso   1.00
C378   C     0.35690   0.35441   0.27699   0.00000  Uiso   1.00
C379   C     0.66536   0.62405   0.25080   0.00000  Uiso   1.00
C380   C     0.66612   0.37636   0.24993   0.00000  Uiso   1.00
C381   C     0.51372   0.47936   0.28352   0.00000  Uiso   1.00
C382   C     0.48603   0.52116   0.21672   0.00000  Uiso   1.00
C383   C     0.46460   0.47966   0.28315   0.00000  Uiso   1.00
C384   C     0.53547   0.52000   0.21661   0.00000  Uiso   1.00
C385   C     0.63938   0.50073   0.33608   0.00000  Uiso   1.00
C386   C     0.36059   0.49949   0.16394   0.00000  Uiso   1.00
C387   C     0.62456   0.49980   0.38560   0.00000  Uiso   1.00
C388   C     0.66649   0.57927   0.25007   0.00000  Uiso   1.00
C389   C     0.37528   0.50097   0.11448   0.00000  Uiso   1.00
C390   C     0.63809   0.47504   0.45645   0.00000  Uiso   1.00
C391   C     0.36252   0.52871   0.04478   0.00000  Uiso   1.00
C392   C     0.65389   0.48017   0.40921   0.00000  Uiso   1.00
C393   C     0.34632   0.52199   0.09149   0.00000  Uiso   1.00
C394   C     0.58056   0.51728   0.40951   0.00000  Uiso   1.00
C395   C     0.41977   0.48435   0.09003   0.00000  Uiso   1.00
C396   C     0.55957   0.50394   0.45485   0.00000  Uiso   1.00
C397   C     0.44097   0.49968   0.04545   0.00000  Uiso   1.00
C398   C     0.59060   0.48682   0.47922   0.00000  Uiso   1.00
C399   C     0.52552   0.48964   0.04821   0.00000  Uiso   1.00
C400   C     0.41002   0.51752   0.02151   0.00000  Uiso   1.00
C401   C     0.50895   0.50649   0.47663   0.00000  Uiso   1.00
C402   C     0.49158   0.49773   0.02374   0.00000  Uiso   1.00
C403   C     0.43759   0.44499   0.10603   0.00000  Uiso   1.00
C404   C     0.56411   0.55560   0.39040   0.00000  Uiso   1.00
C405   C     0.35808   0.42343   0.46348   0.00000  Uiso   1.00
C406   C     0.66527   0.58921   0.02684   0.00000  Uiso   1.00
C407   C     0.57794   0.38744   0.20252   0.00000  Uiso   1.00
C408   C     0.43441   0.62603   0.27925   0.00000  Uiso   1.00
C409   C     0.56151   0.62335   0.22791   0.00000  Uiso   1.00
C410   C     0.47487   0.51521   0.45238   0.00000  Uiso   1.00
C411   C     0.34810   0.37927   0.34668   0.00000  Uiso   1.00
C412   C     0.52341   0.45674   0.32214   0.00000  Uiso   1.00
C413   C     0.47435   0.54730   0.18107   0.00000  Uiso   1.00
C414   C     0.57362   0.48205   0.02616   0.00000  Uiso   1.00
C415   C     0.42690   0.52316   0.47469   0.00000  Uiso   1.00
C416   C     0.64045   0.35585   0.22409   0.00000  Uiso   1.00
C417   C     0.35940   0.64488   0.27494   0.00000  Uiso   1.00
C418   C     0.63711   0.64613   0.22719   0.00000  Uiso   1.00
Cu419  Cu    0.38022   0.50001   0.25000   0.00000  Uiso   1.00
Cu420  Cu    0.61978   0.49999   0.25000   0.00000  Uiso   1.00
H421   H     0.59747   0.47247   0.04622   0.00000  Uiso   1.00
H422   H     0.57433   0.56232   0.35439   0.00000  Uiso   1.00
H423   H     0.39092   0.43067   0.43532   0.00000  Uiso   1.00
H424   H     0.66651   0.40218   0.45268   0.00000  Uiso   1.00
H425   H     0.37033   0.40696   0.49027   0.00000  Uiso   1.00
H426   H     0.36911   0.60255   0.01372   0.00000  Uiso   1.00
H427   H     0.64926   0.59756   0.06260   0.00000  Uiso   1.00
H428   H     0.64253   0.60325   0.00670   0.00000  Uiso   1.00
H429   H     0.57412   0.41893   0.18907   0.00000  Uiso   1.00
H430   H     0.56121   0.38761   0.23971   0.00000  Uiso   1.00
H431   H     0.55745   0.36625   0.18681   0.00000  Uiso   1.00
H432   H     0.40288   0.53322   0.45499   0.00000  Uiso   1.00
H433   H     0.44337   0.61953   0.24260   0.00000  Uiso   1.00
H434   H     0.45321   0.60272   0.29509   0.00000  Uiso   1.00
H435   H     0.44889   0.65680   0.28404   0.00000  Uiso   1.00
H436   H     0.55413   0.59535   0.25007   0.00000  Uiso   1.00
H437   H     0.53896   0.62131   0.20409   0.00000  Uiso   1.00
H438   H     0.54871   0.65008   0.24967   0.00000  Uiso   1.00
H439   H     0.65009   0.39879   0.34512   0.00000  Uiso   1.00
H440   H     0.33526   0.34879   0.36312   0.00000  Uiso   1.00
H441   H     0.36751   0.39490   0.36811   0.00000  Uiso   1.00
H442   H     0.50213   0.46348   0.35610   0.00000  Uiso   1.00
H443   H     0.64429   0.53311   0.10971   0.00000  Uiso   1.00
H444   H     0.43944   0.56130   0.18599   0.00000  Uiso   1.00
H445   H     0.35611   0.46979   0.39079   0.00000  Uiso   1.00
H446   H     0.51510   0.48808   0.08469   0.00000  Uiso   1.00
H447   H     0.48493   0.51701   0.41596   0.00000  Uiso   1.00
H448   H     0.43741   0.46329   0.30945   0.00000  Uiso   1.00
H449   H     0.56282   0.53642   0.19057   0.00000  Uiso   1.00
H450   H     0.46759   0.42883   0.08406   0.00000  Uiso   1.00
N451   N     0.45069   0.50001   0.24999   0.00000  Uiso   1.00
N452   N     0.54931   0.49999   0.25001   0.00000  Uiso   1.00
O453   O     0.37291   0.43989   0.25000   0.00000  Uiso   1.00
O454   O     0.54127   0.58168   0.41520   0.00000  Uiso   1.00
O455   O     0.33497   0.45997   0.48142   0.00000  Uiso   1.00
O456   O     0.66522   0.54616   0.02197   0.00000  Uiso   1.00
O457   O     0.62754   0.37712   0.18953   0.00000  Uiso   1.00
O458   O     0.38417   0.62294   0.30055   0.00000  Uiso   1.00
O459   O     0.61091   0.62577   0.20264   0.00000  Uiso   1.00
O460   O     0.38059   0.37491   0.30352   0.00000  Uiso   1.00
O461   O     0.55185   0.42832   0.31680   0.00000  Uiso   1.00
O462   O     0.50480   0.55454   0.14520   0.00000  Uiso   1.00
O463   O     0.62709   0.56011   0.25000   0.00000  Uiso   1.00
O464   O     0.62706   0.43988   0.25001   0.00000  Uiso   1.00
O465   O     0.37294   0.56012   0.25000   0.00000  Uiso   1.00
O466   O     0.35186   0.50001   0.31492   0.00000  Uiso   1.00
O467   O     0.64814   0.49999   0.18509   0.00000  Uiso   1.00
O468   O     0.60600   0.50000   0.31492   0.00000  Uiso   1.00
O469   O     0.39400   0.50000   0.18508   0.00000  Uiso   1.00
O470   O     0.41729   0.42846   0.14241   0.00000  Uiso   1.00
C471   C     0.66674   0.42090   0.24947   0.00000  Uiso   1.00
C472   C     0.69024   0.35441   0.27699   0.00000  Uiso   1.00
C473   C     0.99869   0.62405   0.25080   0.00000  Uiso   1.00
C474   C     0.99945   0.37636   0.24993   0.00000  Uiso   1.00
C475   C     0.84705   0.47936   0.28352   0.00000  Uiso   1.00
C476   C     0.81937   0.52116   0.21672   0.00000  Uiso   1.00
C477   C     0.79793   0.47966   0.28315   0.00000  Uiso   1.00
C478   C     0.86880   0.52000   0.21661   0.00000  Uiso   1.00
C479   C     0.97272   0.50073   0.33608   0.00000  Uiso   1.00
C480   C     0.69393   0.49949   0.16394   0.00000  Uiso   1.00
C481   C     0.95790   0.49980   0.38560   0.00000  Uiso   1.00
C482   C     0.99982   0.57927   0.25007   0.00000  Uiso   1.00
C483   C     0.70861   0.50097   0.11448   0.00000  Uiso   1.00
C484   C     0.97143   0.47504   0.45645   0.00000  Uiso   1.00
C485   C     0.69585   0.52871   0.04478   0.00000  Uiso   1.00
C486   C     0.98722   0.48017   0.40921   0.00000  Uiso   1.00
C487   C     0.67965   0.52199   0.09149   0.00000  Uiso   1.00
C488   C     0.91389   0.51728   0.40951   0.00000  Uiso   1.00
C489   C     0.75310   0.48435   0.09003   0.00000  Uiso   1.00
C490   C     0.89290   0.50394   0.45485   0.00000  Uiso   1.00
C491   C     0.77431   0.49968   0.04545   0.00000  Uiso   1.00
C492   C     0.92393   0.48682   0.47922   0.00000  Uiso   1.00
C493   C     0.85885   0.48964   0.04821   0.00000  Uiso   1.00
C494   C     0.74335   0.51752   0.02151   0.00000  Uiso   1.00
C495   C     0.84228   0.50649   0.47663   0.00000  Uiso   1.00
C496   C     0.82491   0.49773   0.02374   0.00000  Uiso   1.00
C497   C     0.77092   0.44499   0.10603   0.00000  Uiso   1.00
C498   C     0.89744   0.55560   0.39040   0.00000  Uiso   1.00
C499   C     0.69141   0.42343   0.46348   0.00000  Uiso   1.00
C500   C     0.99860   0.58921   0.02684   0.00000  Uiso   1.00
C501   C     0.91127   0.38744   0.20252   0.00000  Uiso   1.00
C502   C     0.76774   0.62603   0.27925   0.00000  Uiso   1.00
C503   C     0.89484   0.62335   0.22791   0.00000  Uiso   1.00
C504   C     0.80821   0.51521   0.45238   0.00000  Uiso   1.00
C505   C     0.68144   0.37927   0.34668   0.00000  Uiso   1.00
C506   C     0.85674   0.45674   0.32214   0.00000  Uiso   1.00
C507   C     0.80768   0.54730   0.18107   0.00000  Uiso   1.00
C508   C     0.90695   0.48205   0.02616   0.00000  Uiso   1.00
C509   C     0.76023   0.52316   0.47469   0.00000  Uiso   1.00
C510   C     0.97378   0.35585   0.22409   0.00000  Uiso   1.00
C511   C     0.69273   0.64488   0.27494   0.00000  Uiso   1.00
C512   C     0.97044   0.64613   0.22719   0.00000  Uiso   1.00
Cu513  Cu    0.71355   0.50001   0.25000   0.00000  Uiso   1.00
Cu514  Cu    0.95311   0.49999   0.25000   0.00000  Uiso   1.00
H515   H     0.93080   0.47247   0.04622   0.00000  Uiso   1.00
H516   H     0.90766   0.56232   0.35439   0.00000  Uiso   1.00
H517   H     0.72425   0.43067   0.43532   0.00000  Uiso   1.00
H518   H     0.99984   0.40218   0.45268   0.00000  Uiso   1.00
H519   H     0.70366   0.40696   0.49027   0.00000  Uiso   1.00
H520   H     0.70245   0.60255   0.01372   0.00000  Uiso   1.00
H521   H     0.98259   0.59756   0.06260   0.00000  Uiso   1.00
H522   H     0.97587   0.60325   0.00670   0.00000  Uiso   1.00
H523   H     0.90745   0.41893   0.18907   0.00000  Uiso   1.00
H524   H     0.89455   0.38761   0.23971   0.00000  Uiso   1.00
H525   H     0.89078   0.36625   0.18681   0.00000  Uiso   1.00
H526   H     0.73622   0.53322   0.45499   0.00000  Uiso   1.00
H527   H     0.77670   0.61953   0.24260   0.00000  Uiso   1.00
H528   H     0.78655   0.60272   0.29509   0.00000  Uiso   1.00
H529   H     0.78222   0.65680   0.28404   0.00000  Uiso   1.00
H530   H     0.88746   0.59535   0.25007   0.00000  Uiso   1.00
H531   H     0.87230   0.62131   0.20409   0.00000  Uiso   1.00
H532   H     0.88204   0.65008   0.24967   0.00000  Uiso   1.00
H533   H     0.98343   0.39879   0.34512   0.00000  Uiso   1.00
H534   H     0.66859   0.34879   0.36312   0.00000  Uiso   1.00
H535   H     0.70084   0.39490   0.36811   0.00000  Uiso   1.00
H536   H     0.83547   0.46348   0.35610   0.00000  Uiso   1.00
H537   H     0.97762   0.53311   0.10971   0.00000  Uiso   1.00
H538   H     0.77278   0.56130   0.18599   0.00000  Uiso   1.00
H539   H     0.68944   0.46979   0.39079   0.00000  Uiso   1.00
H540   H     0.84843   0.48808   0.08469   0.00000  Uiso   1.00
H541   H     0.81827   0.51701   0.41596   0.00000  Uiso   1.00
H542   H     0.77074   0.46329   0.30945   0.00000  Uiso   1.00
H543   H     0.89616   0.53642   0.19057   0.00000  Uiso   1.00
H544   H     0.80092   0.42883   0.08406   0.00000  Uiso   1.00
N545   N     0.78403   0.50001   0.24999   0.00000  Uiso   1.00
N546   N     0.88264   0.49999   0.25001   0.00000  Uiso   1.00
O547   O     0.70625   0.43989   0.25000   0.00000  Uiso   1.00
O548   O     0.87461   0.58168   0.41520   0.00000  Uiso   1.00
O549   O     0.66830   0.45997   0.48142   0.00000  Uiso   1.00
O550   O     0.99855   0.54616   0.02197   0.00000  Uiso   1.00
O551   O     0.96088   0.37712   0.18953   0.00000  Uiso   1.00
O552   O     0.71751   0.62294   0.30055   0.00000  Uiso   1.00
O553   O     0.94425   0.62577   0.20264   0.00000  Uiso   1.00
O554   O     0.71393   0.37491   0.30352   0.00000  Uiso   1.00
O555   O     0.88518   0.42832   0.31680   0.00000  Uiso   1.00
O556   O     0.83813   0.55454   0.14520   0.00000  Uiso   1.00
O557   O     0.96042   0.56011   0.25000   0.00000  Uiso   1.00
O558   O     0.96039   0.43988   0.25001   0.00000  Uiso   1.00
O559   O     0.70628   0.56012   0.25000   0.00000  Uiso   1.00
O560   O     0.68519   0.50001   0.31492   0.00000  Uiso   1.00
O561   O     0.98148   0.49999   0.18509   0.00000  Uiso   1.00
O562   O     0.93933   0.50000   0.31492   0.00000  Uiso   1.00
O563   O     0.72733   0.50000   0.18508   0.00000  Uiso   1.00
O564   O     0.75062   0.42846   0.14241   0.00000  Uiso   1.00
C565   C     0.00007   0.75423   0.24947   0.00000  Uiso   1.00
C566   C     0.02357   0.68774   0.27699   0.00000  Uiso   1.00
C567   C     0.33203   0.95738   0.25080   0.00000  Uiso   1.00
C568   C     0.33278   0.70970   0.24993   0.00000  Uiso   1.00
C569   C     0.18038   0.81270   0.28352   0.00000  Uiso   1.00
C570   C     0.15270   0.85449   0.21672   0.00000  Uiso   1.00
C571   C     0.13127   0.81300   0.28315   0.00000  Uiso   1.00
C572   C     0.20213   0.85333   0.21661   0.00000  Uiso   1.00
C573   C     0.30605   0.83406   0.33608   0.00000  Uiso   1.00
C574   C     0.02726   0.83283   0.16394   0.00000  Uiso   1.00
C575   C     0.29123   0.83313   0.38560   0.00000  Uiso   1.00
C576   C     0.33316   0.91260   0.25007   0.00000  Uiso   1.00
C577   C     0.04195   0.83430   0.11448   0.00000  Uiso   1.00
C578   C     0.30476   0.80838   0.45645   0.00000  Uiso   1.00
C579   C     0.02919   0.86204   0.04478   0.00000  Uiso   1.00
C580   C     0.32056   0.81350   0.40921   0.00000  Uiso   1.00
C581   C     0.01299   0.85532   0.09149   0.00000  Uiso   1.00
C582   C     0.24723   0.85061   0.40951   0.00000  Uiso   1.00
C583   C     0.08644   0.81768   0.09003   0.00000  Uiso   1.00
C584   C     0.22624   0.83727   0.45485   0.00000  Uiso   1.00
C585   C     0.10764   0.83301   0.04545   0.00000  Uiso   1.00
C586   C     0.25727   0.82016   0.47922   0.00000  Uiso   1.00
C587   C     0.19218   0.82297   0.04821   0.00000  Uiso   1.00
C588   C     0.07669   0.85085   0.02151   0.00000  Uiso   1.00
C589   C     0.17562   0.83982   0.47663   0.00000  Uiso   1.00
C590   C     0.15825   0.83106   0.02374   0.00000  Uiso   1.00
C591   C     0.10426   0.77833   0.10603   0.00000  Uiso   1.00
C592   C     0.23077   0.88894   0.39040   0.00000  Uiso   1.00
C593   C     0.02474   0.75677   0.46348   0.00000  Uiso   1.00
C594   C     0.33193   0.92254   0.02684   0.00000  Uiso   1.00
C595   C     0.24461   0.72077   0.20252   0.00000  Uiso   1.00
C596   C     0.10107   0.95936   0.27925   0.00000  Uiso   1.00
C597   C     0.22817   0.95669   0.22791   0.00000  Uiso   1.00
C598   C     0.14154   0.84854   0.45238   0.00000  Uiso   1.00
C599   C     0.01477   0.71260   0.34668   0.00000  Uiso   1.00
C600   C     0.19008   0.79007   0.32214   0.00000  Uiso   1.00
C601   C     0.14102   0.88064   0.18107   0.00000  Uiso   1.00
C602   C     0.24029   0.81539   0.02616   0.00000  Uiso   1.00
C603   C     0.09356   0.85649   0.47469   0.00000  Uiso   1.00
C604   C     0.30712   0.68919   0.22409   0.00000  Uiso   1.00
C605   C     0.02607   0.97821   0.27494   0.00000  Uiso   1.00
C606   C     0.30378   0.97947   0.22719   0.00000  Uiso   1.00
Cu607  Cu    0.04689   0.83334   0.25000   0.00000  Uiso   1.00
Cu608  Cu    0.28645   0.83333   0.25000   0.00000  Uiso   1.00
H609   H     0.26413   0.80581   0.04622   0.00000  Uiso   1.00
H610   H     0.24099   0.89565   0.35439   0.00000  Uiso   1.00
H611   H     0.05759   0.76401   0.43532   0.00000  Uiso   1.00
H612   H     0.33318   0.73551   0.45268   0.00000  Uiso   1.00
H613   H     0.03699   0.74029   0.49027   0.00000  Uiso   1.00
H614   H     0.03578   0.93588   0.01372   0.00000  Uiso   1.00
H615   H     0.31593   0.93089   0.06260   0.00000  Uiso   1.00
H616   H     0.30920   0.93659   0.00670   0.00000  Uiso   1.00
H617   H     0.24079   0.75226   0.18907   0.00000  Uiso   1.00
H618   H     0.22788   0.72095   0.23971   0.00000  Uiso   1.00
H619   H     0.22411   0.69959   0.18681   0.00000  Uiso   1.00
H620   H     0.06955   0.86655   0.45499   0.00000  Uiso   1.00
H621   H     0.11004   0.95287   0.24260   0.00000  Uiso   1.00
H622   H     0.11988   0.93605   0.29509   0.00000  Uiso   1.00
H623   H     0.11555   0.99013   0.28404   0.00000  Uiso   1.00
H624   H     0.22079   0.92869   0.25007   0.00000  Uiso   1.00
H625   H     0.20563   0.95464   0.20409   0.00000  Uiso   1.00
H626   H     0.21537   0.98341   0.24967   0.00000  Uiso   1.00
H627   H     0.31676   0.73212   0.34512   0.00000  Uiso   1.00
H628   H     0.00193   0.68212   0.36312   0.00000  Uiso   1.00
H629   H     0.03417   0.72824   0.36811   0.00000  Uiso   1.00
H630   H     0.16880   0.79681   0.35610   0.00000  Uiso   1.00
H631   H     0.31096   0.86644   0.10971   0.00000  Uiso   1.00
H632   H     0.10611   0.89463   0.18599   0.00000  Uiso   1.00
H633   H     0.02277   0.80312   0.39079   0.00000  Uiso   1.00
H634   H     0.18176   0.82142   0.08469   0.00000  Uiso   1.00
H635   H     0.15160   0.85034   0.41596   0.00000  Uiso   1.00
H636   H     0.10407   0.79663   0.30945   0.00000  Uiso   1.00
H637   H     0.22949   0.86976   0.19057   0.00000  Uiso   1.00
H638   H     0.13425   0.76216   0.08406   0.00000  Uiso   1.00
N639   N     0.11736   0.83334   0.24999   0.00000  Uiso   1.00
N640   N     0.21597   0.83332   0.25001   0.00000  Uiso   1.00
O641   O     0.03958   0.77322   0.25000   0.00000  Uiso   1.00
O642   O     0.20794   0.91501   0.41520   0.00000  Uiso   1.00
O643   O     0.00163   0.79331   0.48142   0.00000  Uiso   1.00
O644   O     0.33189   0.87950   0.02197   0.00000  Uiso   1.00
O645   O     0.29421   0.71045   0.18953   0.00000  Uiso   1.00
O646   O     0.05084   0.95627   0.30055   0.00000  Uiso   1.00
O647   O     0.27758   0.95911   0.20264   0.00000  Uiso   1.00
O648   O     0.04726   0.70825   0.30352   0.00000  Uiso   1.00
O649   O     0.21851   0.76165   0.31680   0.00000  Uiso   1.00
O650   O     0.17146   0.88787   0.14520   0.00000  Uiso   1.00
O651   O     0.29375   0.89345   0.25000   0.00000  Uiso   1.00
O652   O     0.29372   0.77321   0.25001   0.00000  Uiso   1.00
O653   O     0.03961   0.89346   0.25000   0.00000  Uiso   1.00
O654   O     0.01852   0.83334   0.31492   0.00000  Uiso   1.00
O655   O     0.31481   0.83332   0.18509   0.00000  Uiso   1.00
O656   O     0.27267   0.83333   0.31492   0.00000  Uiso   1.00
O657   O     0.06067   0.83333   0.18508   0.00000  Uiso   1.00
O658   O     0.08395   0.76179   0.14241   0.00000  Uiso   1.00
C659   C     0.33340   0.75423   0.24947   0.00000  Uiso   1.00
C660   C     0.35690   0.68774   0.27699   0.00000  Uiso   1.00
C661   C     0.66536   0.95738   0.25080   0.00000  Uiso   1.00
C662   C     0.66612   0.70970   0.24993   0.00000  Uiso   1.00
C663   C     0.51372   0.81270   0.28352   0.00000  Uiso   1.00
C664   C     0.48603   0.85449   0.21672   0.00000  Uiso   1.00
C665   C     0.46460   0.81300   0.28315   0.00000  Uiso   1.00
C666   C     0.53547   0.85333   0.21661   0.00000  Uiso   1.00
C667   C     0.63938   0.83406   0.33608   0.00000  Uiso   1.00
C668   C     0.36059   0.83283   0.16394   0.00000  Uiso   1.00
C669   C     0.62456   0.83313   0.38560   0.00000  Uiso   1.00
C670   C     0.66649   0.91260   0.25007   0.00000  Uiso   1.00
C671   C     0.37528   0.83430   0.11448   0.00000  Uiso   1.00
C672   C     0.63809   0.80838   0.45645   0.00000  Uiso   1.00
C673   C     0.36252   0.86204   0.04478   0.00000  Uiso   1.00
C674   C     0.65389   0.81350   0.40921   0.00000  Uiso   1.00
C675   C     0.34632   0.85532   0.09149   0.00000  Uiso   1.00
C676   C     0.58056   0.85061   0.40951   0.00000  Uiso   1.00
C677   C     0.41977   0.81768   0.09003   0.00000  Uiso   1.00
C678   C     0.55957   0.83727   0.45485   0.00000  Uiso   1.00
C679   C     0.44097   0.83301   0.04545   0.00000  Uiso   1.00
C680   C     0.59060   0.82016   0.47922   0.00000  Uiso   1.00
C681   C     0.52552   0.82297   0.04821   0.00000  Uiso   1.00
C682   C     0.41002   0.85085   0.02151   0.00000  Uiso   1.00
C683   C     0.50895   0.83982   0.47663   0.00000  Uiso   1.00
C684   C     0.49158   0.83106   0.02374   0.00000  Uiso   1.00
C685   C     0.43759   0.77833   0.10603   0.00000  Uiso   1.00
C686   C     0.56411   0.88894   0.39040   0.00000  Uiso   1.00
C687   C     0.35808   0.75677   0.46348   0.00000  Uiso   1.00
C688   C     0.66527   0.92254   0.02684   0.00000  Uiso   1.00
C689   C     0.57794   0.72077   0.20252   0.00000  Uiso   1.00
C690   C     0.43441   0.95936   0.27925   0.00000  Uiso   1.00
C691   C     0.56151   0.95669   0.22791   0.00000  Uiso   1.00
C692   C     0.47487   0.84854   0.45238   0.00000  Uiso   1.00
C693   C     0.34810   0.71260   0.34668   0.00000  Uiso   1.00
C694   C     0.52341   0.79007   0.32214   0.00000  Uiso   1.00
C695   C     0.47435   0.88064   0.18107   0.00000  Uiso   1.00
C696   C     0.57362   0.81539   0.02616   0.00000  Uiso   1.00
C697   C     0.42690   0.85649   0.47469   0.00000  Uiso   1.00
C698   C     0.64045   0.68919   0.22409   0.00000  Uiso   1.00
C699   C     0.35940   0.97821   0.27494   0.00000  Uiso   1.00
C700   C     0.63711   0.97947   0.22719   0.00000  Uiso   1.00
Cu701  Cu    0.38022   0.83334   0.25000   0.00000  Uiso   1.00
Cu702  Cu    0.61978   0.83333   0.25000   0.00000  Uiso   1.00
H703   H     0.59747   0.80581   0.04622   0.00000  Uiso   1.00
H704   H     0.57433   0.89565   0.35439   0.00000  Uiso   1.00
H705   H     0.39092   0.76401   0.43532   0.00000  Uiso   1.00
H706   H     0.66651   0.73551   0.45268   0.00000  Uiso   1.00
H707   H     0.37033   0.74029   0.49027   0.00000  Uiso   1.00
H708   H     0.36911   0.93588   0.01372   0.00000  Uiso   1.00
H709   H     0.64926   0.93089   0.06260   0.00000  Uiso   1.00
H710   H     0.64253   0.93659   0.00670   0.00000  Uiso   1.00
H711   H     0.57412   0.75226   0.18907   0.00000  Uiso   1.00
H712   H     0.56121   0.72095   0.23971   0.00000  Uiso   1.00
H713   H     0.55745   0.69959   0.18681   0.00000  Uiso   1.00
H714   H     0.40288   0.86655   0.45499   0.00000  Uiso   1.00
H715   H     0.44337   0.95287   0.24260   0.00000  Uiso   1.00
H716   H     0.45321   0.93605   0.29509   0.00000  Uiso   1.00
H717   H     0.44889   0.99013   0.28404   0.00000  Uiso   1.00
H718   H     0.55413   0.92869   0.25007   0.00000  Uiso   1.00
H719   H     0.53896   0.95464   0.20409   0.00000  Uiso   1.00
H720   H     0.54871   0.98341   0.24967   0.00000  Uiso   1.00
H721   H     0.65009   0.73212   0.34512   0.00000  Uiso   1.00
H722   H     0.33526   0.68212   0.36312   0.00000  Uiso   1.00
H723   H     0.36751   0.72824   0.36811   0.00000  Uiso   1.00
H724   H     0.50213   0.79681   0.35610   0.00000  Uiso   1.00
H725   H     0.64429   0.86644   0.10971   0.00000  Uiso   1.00
H726   H     0.43944   0.89463   0.18599   0.00000  Uiso   1.00
H727   H     0.35611   0.80312   0.39079   0.00000  Uiso   1.00
H728   H     0.51510   0.82142   0.08469   0.00000  Uiso   1.00
H729   H     0.48493   0.85034   0.41596   0.00000  Uiso   1.00
H730   H     0.43741   0.79663   0.30945   0.00000  Uiso   1.00
H731   H     0.56282   0.86976   0.19057   0.00000  Uiso   1.00
H732   H     0.46759   0.76216   0.08406   0.00000  Uiso   1.00
N733   N     0.45069   0.83334   0.24999   0.00000  Uiso   1.00
N734   N     0.54931   0.83332   0.25001   0.00000  Uiso   1.00
O735   O     0.37291   0.77322   0.25000   0.00000  Uiso   1.00
O736   O     0.54127   0.91501   0.41520   0.00000  Uiso   1.00
O737   O     0.33497   0.79331   0.48142   0.00000  Uiso   1.00
O738   O     0.66522   0.87950   0.02197   0.00000  Uiso   1.00
O739   O     0.62754   0.71045   0.18953   0.00000  Uiso   1.00
O740   O     0.38417   0.95627   0.30055   0.00000  Uiso   1.00
O741   O     0.61091   0.95911   0.20264   0.00000  Uiso   1.00
O742   O     0.38059   0.70825   0.30352   0.00000  Uiso   1.00
O743   O     0.55185   0.76165   0.31680   0.00000  Uiso   1.00
O744   O     0.50480   0.88787   0.14520   0.00000  Uiso   1.00
O745   O     0.62709   0.89345   0.25000   0.00000  Uiso   1.00
O746   O     0.62706   0.77321   0.25001   0.00000  Uiso   1.00
O747   O     0.37294   0.89346   0.25000   0.00000  Uiso   1.00
O748   O     0.35186   0.83334   0.31492   0.00000  Uiso   1.00
O749   O     0.64814   0.83332   0.18509   0.00000  Uiso   1.00
O750   O     0.60600   0.83333   0.31492   0.00000  Uiso   1.00
O751   O     0.39400   0.83333   0.18508   0.00000  Uiso   1.00
O752   O     0.41729   0.76179   0.14241   0.00000  Uiso   1.00
C753   C     0.66674   0.75423   0.24947   0.00000  Uiso   1.00
C754   C     0.69024   0.68774   0.27699   0.00000  Uiso   1.00
C755   C     0.99869   0.95738   0.25080   0.00000  Uiso   1.00
C756   C     0.99945   0.70970   0.24993   0.00000  Uiso   1.00
C757   C     0.84705   0.81270   0.28352   0.00000  Uiso   1.00
C758   C     0.81937   0.85449   0.21672   0.00000  Uiso   1.00
C759   C     0.79793   0.81300   0.28315   0.00000  Uiso   1.00
C760   C     0.86880   0.85333   0.21661   0.00000  Uiso   1.00
C761   C     0.97272   0.83406   0.33608   0.00000  Uiso   1.00
C762   C     0.69393   0.83283   0.16394   0.00000  Uiso   1.00
C763   C     0.95790   0.83313   0.38560   0.00000  Uiso   1.00
C764   C     0.99982   0.91260   0.25007   0.00000  Uiso   1.00
C765   C     0.70861   0.83430   0.11448   0.00000  Uiso   1.00
C766   C     0.97143   0.80838   0.45645   0.00000  Uiso   1.00
C767   C     0.69585   0.86204   0.04478   0.00000  Uiso   1.00
C768   C     0.98722   0.81350   0.40921   0.00000  Uiso   1.00
C769   C     0.67965   0.85532   0.09149   0.00000  Uiso   1.00
C770   C     0.91389   0.85061   0.40951   0.00000  Uiso   1.00
C771   C     0.75310   0.81768   0.09003   0.00000  Uiso   1.00
C772   C     0.89290   0.83727   0.45485   0.00000  Uiso   1.00
C773   C     0.77431   0.83301   0.04545   0.00000  Uiso   1.00
C774   C     0.92393   0.82016   0.47922   0.00000  Uiso   1.00
C775   C     0.85885   0.82297   0.04821   0.00000  Uiso   1.00
C776   C     0.74335   0.85085   0.02151   0.00000  Uiso   1.00
C777   C     0.84228   0.83982   0.47663   0.00000  Uiso   1.00
C778   C     0.82491   0.83106   0.02374   0.00000  Uiso   1.00
C779   C     0.77092   0.77833   0.10603   0.00000  Uiso   1.00
C780   C     0.89744   0.88894   0.39040   0.00000  Uiso   1.00
C781   C     0.69141   0.75677   0.46348   0.00000  Uiso   1.00
C782   C     0.99860   0.92254   0.02684   0.00000  Uiso   1.00
C783   C     0.91127   0.72077   0.20252   0.00000  Uiso   1.00
C784   C     0.76774   0.95936   0.27925   0.00000  Uiso   1.00
C785   C     0.89484   0.95669   0.22791   0.00000  Uiso   1.00
C786   C     0.80821   0.84854   0.45238   0.00000  Uiso   1.00
C787   C     0.68144   0.71260   0.34668   0.00000  Uiso   1.00
C788   C     0.85674   0.79007   0.32214   0.00000  Uiso   1.00
C789   C     0.80768   0.88064   0.18107   0.00000  Uiso   1.00
C790   C     0.90695   0.81539   0.02616   0.00000  Uiso   1.00
C791   C     0.76023   0.85649   0.47469   0.00000  Uiso   1.00
C792   C     0.97378   0.68919   0.22409   0.00000  Uiso   1.00
C793   C     0.69273   0.97821   0.27494   0.00000  Uiso   1.00
C794   C     0.97044   0.97947   0.22719   0.00000  Uiso   1.00
Cu795  Cu    0.71355   0.83334   0.25000   0.00000  Uiso   1.00
Cu796  Cu    0.95311   0.83333   0.25000   0.00000  Uiso   1.00
H797   H     0.93080   0.80581   0.04622   0.00000  Uiso   1.00
H798   H     0.90766   0.89565   0.35439   0.00000  Uiso   1.00
H799   H     0.72425   0.76401   0.43532   0.00000  Uiso   1.00
H800   H     0.99984   0.73551   0.45268   0.00000  Uiso   1.00
H801   H     0.70366   0.74029   0.49027   0.00000  Uiso   1.00
H802   H     0.70245   0.93588   0.01372   0.00000  Uiso   1.00
H803   H     0.98259   0.93089   0.06260   0.00000  Uiso   1.00
H804   H     0.97587   0.93659   0.00670   0.00000  Uiso   1.00
H805   H     0.90745   0.75226   0.18907   0.00000  Uiso   1.00
H806   H     0.89455   0.72095   0.23971   0.00000  Uiso   1.00
H807   H     0.89078   0.69959   0.18681   0.00000  Uiso   1.00
H808   H     0.73622   0.86655   0.45499   0.00000  Uiso   1.00
H809   H     0.77670   0.95287   0.24260   0.00000  Uiso   1.00
H810   H     0.78655   0.93605   0.29509   0.00000  Uiso   1.00
H811   H     0.78222   0.99013   0.28404   0.00000  Uiso   1.00
H812   H     0.88746   0.92869   0.25007   0.00000  Uiso   1.00
H813   H     0.87230   0.95464   0.20409   0.00000  Uiso   1.00
H814   H     0.88204   0.98341   0.24967   0.00000  Uiso   1.00
H815   H     0.98343   0.73212   0.34512   0.00000  Uiso   1.00
H816   H     0.66859   0.68212   0.36312   0.00000  Uiso   1.00
H817   H     0.70084   0.72824   0.36811   0.00000  Uiso   1.00
H818   H     0.83547   0.79681   0.35610   0.00000  Uiso   1.00
H819   H     0.97762   0.86644   0.10971   0.00000  Uiso   1.00
H820   H     0.77278   0.89463   0.18599   0.00000  Uiso   1.00
H821   H     0.68944   0.80312   0.39079   0.00000  Uiso   1.00
H822   H     0.84843   0.82142   0.08469   0.00000  Uiso   1.00
H823   H     0.81827   0.85034   0.41596   0.00000  Uiso   1.00
H824   H     0.77074   0.79663   0.30945   0.00000  Uiso   1.00
H825   H     0.89616   0.86976   0.19057   0.00000  Uiso   1.00
H826   H     0.80092   0.76216   0.08406   0.00000  Uiso   1.00
N827   N     0.78403   0.83334   0.24999   0.00000  Uiso   1.00
N828   N     0.88264   0.83332   0.25001   0.00000  Uiso   1.00
O829   O     0.70625   0.77322   0.25000   0.00000  Uiso   1.00
O830   O     0.87461   0.91501   0.41520   0.00000  Uiso   1.00
O831   O     0.66830   0.79331   0.48142   0.00000  Uiso   1.00
O832   O     0.99855   0.87950   0.02197   0.00000  Uiso   1.00
O833   O     0.96088   0.71045   0.18953   0.00000  Uiso   1.00
O834   O     0.71751   0.95627   0.30055   0.00000  Uiso   1.00
O835   O     0.94425   0.95911   0.20264   0.00000  Uiso   1.00
O836   O     0.71393   0.70825   0.30352   0.00000  Uiso   1.00
O837   O     0.88518   0.76165   0.31680   0.00000  Uiso   1.00
O838   O     0.83813   0.88787   0.14520   0.00000  Uiso   1.00
O839   O     0.96042   0.89345   0.25000   0.00000  Uiso   1.00
O840   O     0.96039   0.77321   0.25001   0.00000  Uiso   1.00
O841   O     0.70628   0.89346   0.25000   0.00000  Uiso   1.00
O842   O     0.68519   0.83334   0.31492   0.00000  Uiso   1.00
O843   O     0.98148   0.83332   0.18509   0.00000  Uiso   1.00
O844   O     0.93933   0.83333   0.31492   0.00000  Uiso   1.00
O845   O     0.72733   0.83333   0.18508   0.00000  Uiso   1.00
O846   O     0.75062   0.76179   0.14241   0.00000  Uiso   1.00
C847   C     0.00007   0.08757   0.74947   0.00000  Uiso   1.00
C848   C     0.02357   0.02108   0.77699   0.00000  Uiso   1.00
C849   C     0.33203   0.29072   0.75080   0.00000  Uiso   1.00
C850   C     0.33278   0.04303   0.74993   0.00000  Uiso   1.00
C851   C     0.18038   0.14603   0.78352   0.00000  Uiso   1.00
C852   C     0.15270   0.18783   0.71672   0.00000  Uiso   1.00
C853   C     0.13127   0.14633   0.78315   0.00000  Uiso   1.00
C854   C     0.20213   0.18667   0.71661   0.00000  Uiso   1.00
C855   C     0.30605   0.16740   0.83608   0.00000  Uiso   1.00
C856   C     0.02726   0.16616   0.66394   0.00000  Uiso   1.00
C857   C     0.29123   0.16646   0.88560   0.00000  Uiso   1.00
C858   C     0.33316   0.24594   0.75007   0.00000  Uiso   1.00
C859   C     0.04195   0.16763   0.61448   0.00000  Uiso   1.00
C860   C     0.30476   0.14171   0.95645   0.00000  Uiso   1.00
C861   C     0.02919   0.19538   0.54478   0.00000  Uiso   1.00
C862   C     0.32056   0.14683   0.90921   0.00000  Uiso   1.00
C863   C     0.01299   0.18865   0.59149   0.00000  Uiso   1.00
C864   C     0.24723   0.18395   0.90951   0.00000  Uiso   1.00
C865   C     0.08644   0.15102   0.59003   0.00000  Uiso   1.00
C866   C     0.22624   0.17060   0.95485   0.00000  Uiso   1.00
C867   C     0.10764   0.16635   0.54545   0.00000  Uiso   1.00
C868   C     0.25727   0.15349   0.97922   0.00000  Uiso   1.00
C869   C     0.19218   0.15631   0.54821   0.00000  Uiso   1.00
C870   C     0.07669   0.18418   0.52151   0.00000  Uiso   1.00
C871   C     0.17562   0.17315   0.97663   0.00000  Uiso   1.00
C872   C     0.15825   0.16439   0.52374   0.00000  Uiso   1.00
C873   C     0.10426   0.11166   0.60603   0.00000  Uiso   1.00
C874   C     0.23077   0.22227   0.89040   0.00000  Uiso   1.00
C875   C     0.02474   0.09010   0.96348   0.00000  Uiso   1.00
C876   C     0.33193   0.25587   0.52684   0.00000  Uiso   1.00
C877   C     0.24461   0.05411   0.70252   0.00000  Uiso   1.00
C878   C     0.10107   0.29270   0.77925   0.00000  Uiso   1.00
C879   C     0.22817   0.29002   0.72791   0.00000  Uiso   1.00
C880   C     0.14154   0.18187   0.95238   0.00000  Uiso   1.00
C881   C     0.01477   0.04594   0.84668   0.00000  Uiso   1.00
C882   C     0.19008   0.12340   0.82214   0.00000  Uiso   1.00
C883   C     0.14102   0.21397   0.68107   0.00000  Uiso   1.00
C884   C     0.24029   0.14872   0.52616   0.00000  Uiso   1.00
C885   C     0.09356   0.18982   0.97469   0.00000  Uiso   1.00
C886   C     0.30712   0.02252   0.72409   0.00000  Uiso   1.00
C887   C     0.02607   0.31154   0.77494   0.00000  Uiso   1.00
C888   C     0.30378   0.31280   0.72719   0.00000  Uiso   1.00
Cu889  Cu    0.04689   0.16667   0.75000   0.00000  Uiso   1.00
Cu890  Cu    0.28645   0.16666   0.75000   0.00000  Uiso   1.00
H891   H     0.26413   0.13914   0.54622   0.00000  Uiso   1.00
H892   H     0.24099   0.22898   0.85439   0.00000  Uiso   1.00
H893   H     0.05759   0.09734   0.93532   0.00000  Uiso   1.00
H894   H     0.33318   0.06884   0.95268   0.00000  Uiso   1.00
H895   H     0.03699   0.07362   0.99027   0.00000  Uiso   1.00
H896   H     0.03578   0.26922   0.51372   0.00000  Uiso   1.00
H897   H     0.31593   0.26423   0.56260   0.00000  Uiso   1.00
H898   H     0.30920   0.26992   0.50670   0.00000  Uiso   1.00
H899   H     0.24079   0.08560   0.68907   0.00000  Uiso   1.00
H900   H     0.22788   0.05428   0.73971   0.00000  Uiso   1.00
H901   H     0.22411   0.03292   0.68681   0.00000  Uiso   1.00
H902   H     0.06955   0.19988   0.95499   0.00000  Uiso   1.00
H903   H     0.11004   0.28620   0.74260   0.00000  Uiso   1.00
H904   H     0.11988   0.26938   0.79509   0.00000  Uiso   1.00
H905   H     0.11555   0.32346   0.78404   0.00000  Uiso   1.00
H906   H     0.22079   0.26202   0.75007   0.00000  Uiso   1.00
H907   H     0.20563   0.28797   0.70409   0.00000  Uiso   1.00
H908   H     0.21537   0.31674   0.74967   0.00000  Uiso   1.00
H909   H     0.31676   0.06545   0.84512   0.00000  Uiso   1.00
H910   H     0.00193   0.01545   0.86312   0.00000  Uiso   1.00
H911   H     0.03417   0.06157   0.86811   0.00000  Uiso   1.00
H912   H     0.16880   0.13014   0.85610   0.00000  Uiso   1.00
H913   H     0.31096   0.19977   0.60971   0.00000  Uiso   1.00
H914   H     0.10611   0.22797   0.68599   0.00000  Uiso   1.00
H915   H     0.02277   0.13646   0.89079   0.00000  Uiso   1.00
H916   H     0.18176   0.15475   0.58469   0.00000  Uiso   1.00
H917   H     0.15160   0.18367   0.91596   0.00000  Uiso   1.00
H918   H     0.10407   0.12996   0.80945   0.00000  Uiso   1.00
H919   H     0.22949   0.20309   0.69057   0.00000  Uiso   1.00
H920   H     0.13425   0.09550   0.58406   0.00000  Uiso   1.00
N921   N     0.11736   0.16668   0.74999   0.00000  Uiso   1.00
N922   N     0.21597   0.16666   0.75001   0.00000  Uiso   1.00
O923   O     0.03958   0.10655   0.75000   0.00000  Uiso   1.00
O924   O     0.20794   0.24835   0.91520   0.00000  Uiso   1.00
O925   O     0.00163   0.12664   0.98142   0.00000  Uiso   1.00
O926   O     0.33189   0.21283   0.52197   0.00000  Uiso   1.00
O927   O     0.29421   0.04378   0.68953   0.00000  Uiso   1.00
O928   O     0.05084   0.28960   0.80055   0.00000  Uiso   1.00
O929   O     0.27758   0.29244   0.70264   0.00000  Uiso   1.00
O930   O     0.04726   0.04158   0.80352   0.00000  Uiso   1.00
O931   O     0.21851   0.09499   0.81680   0.00000  Uiso   1.00
O932   O     0.17146   0.22121   0.64520   0.00000  Uiso   1.00
O933   O     0.29375   0.22678   0.75000   0.00000  Uiso   1.00
O934   O     0.29372   0.10654   0.75001   0.00000  Uiso   1.00
O935   O     0.03961   0.22679   0.75000   0.00000  Uiso   1.00
O936   O     0.01852   0.16668   0.81492   0.00000  Uiso   1.00
O937   O     0.31481   0.16666   0.68509   0.00000  Uiso   1.00
O938   O     0.27267   0.16667   0.81492   0.00000  Uiso   1.00
O939   O     0.06067   0.16667   0.68508   0.00000  Uiso   1.00
O940   O     0.08395   0.09513   0.64241   0.00000  Uiso   1.00
C941   C     0.33340   0.08757   0.74947   0.00000  Uiso   1.00
C942   C     0.35690   0.02108   0.77699   0.00000  Uiso   1.00
C943   C     0.66536   0.29072   0.75080   0.00000  Uiso   1.00
C944   C     0.66612   0.04303   0.74993   0.00000  Uiso   1.00
C945   C     0.51372   0.14603   0.78352   0.00000  Uiso   1.00
C946   C     0.48603   0.18783   0.71672   0.00000  Uiso   1.00
C947   C     0.46460   0.14633   0.78315   0.00000  Uiso   1.00
C948   C     0.53547   0.18667   0.71661   0.00000  Uiso   1.00
C949   C     0.63938   0.16740   0.83608   0.00000  Uiso   1.00
C950   C     0.36059   0.16616   0.66394   0.00000  Uiso   1.00
C951   C     0.62456   0.16646   0.88560   0.00000  Uiso   1.00
C952   C     0.66649   0.24594   0.75007   0.00000  Uiso   1.00
C953   C     0.37528   0.16763   0.61448   0.00000  Uiso   1.00
C954   C     0.63809   0.14171   0.95645   0.00000  Uiso   1.00
C955   C     0.36252   0.19538   0.54478   0.00000  Uiso   1.00
C956   C     0.65389   0.14683   0.90921   0.00000  Uiso   1.00
C957   C     0.34632   0.18865   0.59149   0.00000  Uiso   1.00
C958   C     0.58056   0.18395   0.90951   0.00000  Uiso   1.00
C959   C     0.41977   0.15102   0.59003   0.00000  Uiso   1.00
C960   C     0.55957   0.17060   0.95485   0.00000  Uiso   1.00
C961   C     0.44097   0.16635   0.54545   0.00000  Uiso   1.00
C962   C     0.59060   0.15349   0.97922   0.00000  Uiso   1.00
C963   C     0.52552   0.15631   0.54821   0.00000  Uiso   1.00
C964   C     0.41002   0.18418   0.52151   0.00000  Uiso   1.00
C965   C     0.50895   0.17315   0.97663   0.00000  Uiso   1.00
C966   C     0.49158   0.16439   0.52374   0.00000  Uiso   1.00
C967   C     0.43759   0.11166   0.60603   0.00000  Uiso   1.00
C968   C     0.56411   0.22227   0.89040   0.00000  Uiso   1.00
C969   C     0.35808   0.09010   0.96348   0.00000  Uiso   1.00
C970   C     0.66527   0.25587   0.52684   0.00000  Uiso   1.00
C971   C     0.57794   0.05411   0.70252   0.00000  Uiso   1.00
C972   C     0.43441   0.29270   0.77925   0.00000  Uiso   1.00
C973   C     0.56151   0.29002   0.72791   0.00000  Uiso   1.00
C974   C     0.47487   0.18187   0.95238   0.00000  Uiso   1.00
C975   C     0.34810   0.04594   0.84668   0.00000  Uiso   1.00
C976   C     0.52341   0.12340   0.82214   0.00000  Uiso   1.00
C977   C     0.47435   0.21397   0.68107   0.00000  Uiso   1.00
C978   C     0.57362   0.14872   0.52616   0.00000  Uiso   1.00
C979   C     0.42690   0.18982   0.97469   0.00000  Uiso   1.00
C980   C     0.64045   0.02252   0.72409   0.00000  Uiso   1.00
C981   C     0.35940   0.31154   0.77494   0.00000  Uiso   1.00
C982   C     0.63711   0.31280   0.72719   0.00000  Uiso   1.00
Cu983  Cu    0.38022   0.16667   0.75000   0.00000  Uiso   1.00
Cu984  Cu    0.61978   0.16666   0.75000   0.00000  Uiso   1.00
H985   H     0.59747   0.13914   0.54622   0.00000  Uiso   1.00
H986   H     0.57433   0.22898   0.85439   0.00000  Uiso   1.00
H987   H     0.39092   0.09734   0.93532   0.00000  Uiso   1.00
H988   H     0.66651   0.06884   0.95268   0.00000  Uiso   1.00
H989   H     0.37033   0.07362   0.99027   0.00000  Uiso   1.00
H990   H     0.36911   0.26922   0.51372   0.00000  Uiso   1.00
H991   H     0.64926   0.26423   0.56260   0.00000  Uiso   1.00
H992   H     0.64253   0.26992   0.50670   0.00000  Uiso   1.00
H993   H     0.57412   0.08560   0.68907   0.00000  Uiso   1.00
H994   H     0.56121   0.05428   0.73971   0.00000  Uiso   1.00
H995   H     0.55745   0.03292   0.68681   0.00000  Uiso   1.00
H996   H     0.40288   0.19988   0.95499   0.00000  Uiso   1.00
H997   H     0.44337   0.28620   0.74260   0.00000  Uiso   1.00
H998   H     0.45321   0.26938   0.79509   0.00000  Uiso   1.00
H999   H     0.44889   0.32346   0.78404   0.00000  Uiso   1.00
H1000  H     0.55413   0.26202   0.75007   0.00000  Uiso   1.00
H1001  H     0.53896   0.28797   0.70409   0.00000  Uiso   1.00
H1002  H     0.54871   0.31674   0.74967   0.00000  Uiso   1.00
H1003  H     0.65009   0.06545   0.84512   0.00000  Uiso   1.00
H1004  H     0.33526   0.01545   0.86312   0.00000  Uiso   1.00
H1005  H     0.36751   0.06157   0.86811   0.00000  Uiso   1.00
H1006  H     0.50213   0.13014   0.85610   0.00000  Uiso   1.00
H1007  H     0.64429   0.19977   0.60971   0.00000  Uiso   1.00
H1008  H     0.43944   0.22797   0.68599   0.00000  Uiso   1.00
H1009  H     0.35611   0.13646   0.89079   0.00000  Uiso   1.00
H1010  H     0.51510   0.15475   0.58469   0.00000  Uiso   1.00
H1011  H     0.48493   0.18367   0.91596   0.00000  Uiso   1.00
H1012  H     0.43741   0.12996   0.80945   0.00000  Uiso   1.00
H1013  H     0.56282   0.20309   0.69057   0.00000  Uiso   1.00
H1014  H     0.46759   0.09550   0.58406   0.00000  Uiso   1.00
N1015  N     0.45069   0.16668   0.74999   0.00000  Uiso   1.00
N1016  N     0.54931   0.16666   0.75001   0.00000  Uiso   1.00
O1017  O     0.37291   0.10655   0.75000   0.00000  Uiso   1.00
O1018  O     0.54127   0.24835   0.91520   0.00000  Uiso   1.00
O1019  O     0.33497   0.12664   0.98142   0.00000  Uiso   1.00
O1020  O     0.66522   0.21283   0.52197   0.00000  Uiso   1.00
O1021  O     0.62754   0.04378   0.68953   0.00000  Uiso   1.00
O1022  O     0.38417   0.28960   0.80055   0.00000  Uiso   1.00
O1023  O     0.61091   0.29244   0.70264   0.00000  Uiso   1.00
O1024  O     0.38059   0.04158   0.80352   0.00000  Uiso   1.00
O1025  O     0.55185   0.09499   0.81680   0.00000  Uiso   1.00
O1026  O     0.50480   0.22121   0.64520   0.00000  Uiso   1.00
O1027  O     0.62709   0.22678   0.75000   0.00000  Uiso   1.00
O1028  O     0.62706   0.10654   0.75001   0.00000  Uiso   1.00
O1029  O     0.37294   0.22679   0.75000   0.00000  Uiso   1.00
O1030  O     0.35186   0.16668   0.81492   0.00000  Uiso   1.00
O1031  O     0.64814   0.16666   0.68509   0.00000  Uiso   1.00
O1032  O     0.60600   0.16667   0.81492   0.00000  Uiso   1.00
O1033  O     0.39400   0.16667   0.68508   0.00000  Uiso   1.00
O1034  O     0.41729   0.09513   0.64241   0.00000  Uiso   1.00
C1035  C     0.66674   0.08757   0.74947   0.00000  Uiso   1.00
C1036  C     0.69024   0.02108   0.77699   0.00000  Uiso   1.00
C1037  C     0.99869   0.29072   0.75080   0.00000  Uiso   1.00
C1038  C     0.99945   0.04303   0.74993   0.00000  Uiso   1.00
C1039  C     0.84705   0.14603   0.78352   0.00000  Uiso   1.00
C1040  C     0.81937   0.18783   0.71672   0.00000  Uiso   1.00
C1041  C     0.79793   0.14633   0.78315   0.00000  Uiso   1.00
C1042  C     0.86880   0.18667   0.71661   0.00000  Uiso   1.00
C1043  C     0.97272   0.16740   0.83608   0.00000  Uiso   1.00
C1044  C     0.69393   0.16616   0.66394   0.00000  Uiso   1.00
C1045  C     0.95790   0.16646   0.88560   0.00000  Uiso   1.00
C1046  C     0.99982   0.24594   0.75007   0.00000  Uiso   1.00
C1047  C     0.70861   0.16763   0.61448   0.00000  Uiso   1.00
C1048  C     0.97143   0.14171   0.95645   0.00000  Uiso   1.00
C1049  C     0.69585   0.19538   0.54478   0.00000  Uiso   1.00
C1050  C     0.98722   0.14683   0.90921   0.00000  Uiso   1.00
C1051  C     0.67965   0.18865   0.59149   0.00000  Uiso   1.00
C1052  C     0.91389   0.18395   0.90951   0.00000  Uiso   1.00
C1053  C     0.75310   0.15102   0.59003   0.00000  Uiso   1.00
C1054  C     0.89290   0.17060   0.95485   0.00000  Uiso   1.00
C1055  C     0.77431   0.16635   0.54545   0.00000  Uiso   1.00
C1056  C     0.92393   0.15349   0.97922   0.00000  Uiso   1.00
C1057  C     0.85885   0.15631   0.54821   0.00000  Uiso   1.00
C1058  C     0.74335   0.18418   0.52151   0.00000  Uiso   1.00
C1059  C     0.84228   0.17315   0.97663   0.00000  Uiso   1.00
C1060  C     0.82491   0.16439   0.52374   0.00000  Uiso   1.00
C1061  C     0.77092   0.11166   0.60603   0.00000  Uiso   1.00
C1062  C     0.89744   0.22227   0.89040   0.00000  Uiso   1.00
C1063  C     0.69141   0.09010   0.96348   0.00000  Uiso   1.00
C1064  C     0.99860   0.25587   0.52684   0.00000  Uiso   1.00
C1065  C     0.91127   0.05411   0.70252   0.00000  Uiso   1.00
C1066  C     0.76774   0.29270   0.77925   0.00000  Uiso   1.00
C1067  C     0.89484   0.29002   0.72791   0.00000  Uiso   1.00
C1068  C     0.80821   0.18187   0.95238   0.00000  Uiso   1.00
C1069  C     0.68144   0.04594   0.84668   0.00000  Uiso   1.00
C1070  C     0.85674   0.12340   0.82214   0.00000  Uiso   1.00
C1071  C     0.80768   0.21397   0.68107   0.00000  Uiso   1.00
C1072  C     0.90695   0.14872   0.52616   0.00000  Uiso   1.00
C1073  C     0.76023   0.18982   0.97469   0.00000  Uiso   1.00
C1074  C     0.97378   0.02252   0.72409   0.00000  Uiso   1.00
C1075  C     0.69273   0.31154   0.77494   0.00000  Uiso   1.00
C1076  C     0.97044   0.31280   0.72719   0.00000  Uiso   1.00
Cu1077 Cu    0.71355   0.16667   0.75000   0.00000  Uiso   1.00
Cu1078 Cu    0.95311   0.16666   0.75000   0.00000  Uiso   1.00
H1079  H     0.93080   0.13914   0.54622   0.00000  Uiso   1.00
H1080  H     0.90766   0.22898   0.85439   0.00000  Uiso   1.00
H1081  H     0.72425   0.09734   0.93532   0.00000  Uiso   1.00
H1082  H     0.99984   0.06884   0.95268   0.00000  Uiso   1.00
H1083  H     0.70366   0.07362   0.99027   0.00000  Uiso   1.00
H1084  H     0.70245   0.26922   0.51372   0.00000  Uiso   1.00
H1085  H     0.98259   0.26423   0.56260   0.00000  Uiso   1.00
H1086  H     0.97587   0.26992   0.50670   0.00000  Uiso   1.00
H1087  H     0.90745   0.08560   0.68907   0.00000  Uiso   1.00
H1088  H     0.89455   0.05428   0.73971   0.00000  Uiso   1.00
H1089  H     0.89078   0.03292   0.68681   0.00000  Uiso   1.00
H1090  H     0.73622   0.19988   0.95499   0.00000  Uiso   1.00
H1091  H     0.77670   0.28620   0.74260   0.00000  Uiso   1.00
H1092  H     0.78655   0.26938   0.79509   0.00000  Uiso   1.00
H1093  H     0.78222   0.32346   0.78404   0.00000  Uiso   1.00
H1094  H     0.88746   0.26202   0.75007   0.00000  Uiso   1.00
H1095  H     0.87230   0.28797   0.70409   0.00000  Uiso   1.00
H1096  H     0.88204   0.31674   0.74967   0.00000  Uiso   1.00
H1097  H     0.98343   0.06545   0.84512   0.00000  Uiso   1.00
H1098  H     0.66859   0.01545   0.86312   0.00000  Uiso   1.00
H1099  H     0.70084   0.06157   0.86811   0.00000  Uiso   1.00
H1100  H     0.83547   0.13014   0.85610   0.00000  Uiso   1.00
H1101  H     0.97762   0.19977   0.60971   0.00000  Uiso   1.00
H1102  H     0.77278   0.22797   0.68599   0.00000  Uiso   1.00
H1103  H     0.68944   0.13646   0.89079   0.00000  Uiso   1.00
H1104  H     0.84843   0.15475   0.58469   0.00000  Uiso   1.00
H1105  H     0.81827   0.18367   0.91596   0.00000  Uiso   1.00
H1106  H     0.77074   0.12996   0.80945   0.00000  Uiso   1.00
H1107  H     0.89616   0.20309   0.69057   0.00000  Uiso   1.00
H1108  H     0.80092   0.09550   0.58406   0.00000  Uiso   1.00
N1109  N     0.78403   0.16668   0.74999   0.00000  Uiso   1.00
N1110  N     0.88264   0.16666   0.75001   0.00000  Uiso   1.00
O1111  O     0.70625   0.10655   0.75000   0.00000  Uiso   1.00
O1112  O     0.87461   0.24835   0.91520   0.00000  Uiso   1.00
O1113  O     0.66830   0.12664   0.98142   0.00000  Uiso   1.00
O1114  O     0.99855   0.21283   0.52197   0.00000  Uiso   1.00
O1115  O     0.96088   0.04378   0.68953   0.00000  Uiso   1.00
O1116  O     0.71751   0.28960   0.80055   0.00000  Uiso   1.00
O1117  O     0.94425   0.29244   0.70264   0.00000  Uiso   1.00
O1118  O     0.71393   0.04158   0.80352   0.00000  Uiso   1.00
O1119  O     0.88518   0.09499   0.81680   0.00000  Uiso   1.00
O1120  O     0.83813   0.22121   0.64520   0.00000  Uiso   1.00
O1121  O     0.96042   0.22678   0.75000   0.00000  Uiso   1.00
O1122  O     0.96039   0.10654   0.75001   0.00000  Uiso   1.00
O1123  O     0.70628   0.22679   0.75000   0.00000  Uiso   1.00
O1124  O     0.68519   0.16668   0.81492   0.00000  Uiso   1.00
O1125  O     0.98148   0.16666   0.68509   0.00000  Uiso   1.00
O1126  O     0.93933   0.16667   0.81492   0.00000  Uiso   1.00
O1127  O     0.72733   0.16667   0.68508   0.00000  Uiso   1.00
O1128  O     0.75062   0.09513   0.64241   0.00000  Uiso   1.00
C1129  C     0.00007   0.42090   0.74947   0.00000  Uiso   1.00
C1130  C     0.02357   0.35441   0.77699   0.00000  Uiso   1.00
C1131  C     0.33203   0.62405   0.75080   0.00000  Uiso   1.00
C1132  C     0.33278   0.37636   0.74993   0.00000  Uiso   1.00
C1133  C     0.18038   0.47936   0.78352   0.00000  Uiso   1.00
C1134  C     0.15270   0.52116   0.71672   0.00000  Uiso   1.00
C1135  C     0.13127   0.47966   0.78315   0.00000  Uiso   1.00
C1136  C     0.20213   0.52000   0.71661   0.00000  Uiso   1.00
C1137  C     0.30605   0.50073   0.83608   0.00000  Uiso   1.00
C1138  C     0.02726   0.49949   0.66394   0.00000  Uiso   1.00
C1139  C     0.29123   0.49980   0.88560   0.00000  Uiso   1.00
C1140  C     0.33316   0.57927   0.75007   0.00000  Uiso   1.00
C1141  C     0.04195   0.50097   0.61448   0.00000  Uiso   1.00
C1142  C     0.30476   0.47504   0.95645   0.00000  Uiso   1.00
C1143  C     0.02919   0.52871   0.54478   0.00000  Uiso   1.00
C1144  C     0.32056   0.48017   0.90921   0.00000  Uiso   1.00
C1145  C     0.01299   0.52199   0.59149   0.00000  Uiso   1.00
C1146  C     0.24723   0.51728   0.90951   0.00000  Uiso   1.00
C1147  C     0.08644   0.48435   0.59003   0.00000  Uiso   1.00
C1148  C     0.22624   0.50394   0.95485   0.00000  Uiso   1.00
C1149  C     0.10764   0.49968   0.54545   0.00000  Uiso   1.00
C1150  C     0.25727   0.48682   0.97922   0.00000  Uiso   1.00
C1151  C     0.19218   0.48964   0.54821   0.00000  Uiso   1.00
C1152  C     0.07669   0.51752   0.52151   0.00000  Uiso   1.00
C1153  C     0.17562   0.50649   0.97663   0.00000  Uiso   1.00
C1154  C     0.15825   0.49773   0.52374   0.00000  Uiso   1.00
C1155  C     0.10426   0.44499   0.60603   0.00000  Uiso   1.00
C1156  C     0.23077   0.55560   0.89040   0.00000  Uiso   1.00
C1157  C     0.02474   0.42343   0.96348   0.00000  Uiso   1.00
C1158  C     0.33193   0.58921   0.52684   0.00000  Uiso   1.00
C1159  C     0.24461   0.38744   0.70252   0.00000  Uiso   1.00
C1160  C     0.10107   0.62603   0.77925   0.00000  Uiso   1.00
C1161  C     0.22817   0.62335   0.72791   0.00000  Uiso   1.00
C1162  C     0.14154   0.51521   0.95238   0.00000  Uiso   1.00
C1163  C     0.01477   0.37927   0.84668   0.00000  Uiso   1.00
C1164  C     0.19008   0.45674   0.82214   0.00000  Uiso   1.00
C1165  C     0.14102   0.54730   0.68107   0.00000  Uiso   1.00
C1166  C     0.24029   0.48205   0.52616   0.00000  Uiso   1.00
C1167  C     0.09356   0.52316   0.97469   0.00000  Uiso   1.00
C1168  C     0.30712   0.35585   0.72409   0.00000  Uiso   1.00
C1169  C     0.02607   0.64488   0.77494   0.00000  Uiso   1.00
C1170  C     0.30378   0.64613   0.72719   0.00000  Uiso   1.00
Cu1171 Cu    0.04689   0.50001   0.75000   0.00000  Uiso   1.00
Cu1172 Cu    0.28645   0.49999   0.75000   0.00000  Uiso   1.00
H1173  H     0.26413   0.47247   0.54622   0.00000  Uiso   1.00
H1174  H     0.24099   0.56232   0.85439   0.00000  Uiso   1.00
H1175  H     0.05759   0.43067   0.93532   0.00000  Uiso   1.00
H1176  H     0.33318   0.40218   0.95268   0.00000  Uiso   1.00
H1177  H     0.03699   0.40696   0.99027   0.00000  Uiso   1.00
H1178  H     0.03578   0.60255   0.51372   0.00000  Uiso   1.00
H1179  H     0.31593   0.59756   0.56260   0.00000  Uiso   1.00
H1180  H     0.30920   0.60325   0.50670   0.00000  Uiso   1.00
H1181  H     0.24079   0.41893   0.68907   0.00000  Uiso   1.00
H1182  H     0.22788   0.38761   0.73971   0.00000  Uiso   1.00
H1183  H     0.22411   0.36625   0.68681   0.00000  Uiso   1.00
H1184  H     0.06955   0.53322   0.95499   0.00000  Uiso   1.00
H1185  H     0.11004   0.61953   0.74260   0.00000  Uiso   1.00
H1186  H     0.11988   0.60272   0.79509   0.00000  Uiso   1.00
H1187  H     0.11555   0.65680   0.78404   0.00000  Uiso   1.00
H1188  H     0.22079   0.59535   0.75007   0.00000  Uiso   1.00
H1189  H     0.20563   0.62131   0.70409   0.00000  Uiso   1.00
H1190  H     0.21537   0.65008   0.74967   0.00000  Uiso   1.00
H1191  H     0.31676   0.39879   0.84512   0.00000  Uiso   1.00
H1192  H     0.00193   0.34879   0.86312   0.00000  Uiso   1.00
H1193  H     0.03417   0.39490   0.86811   0.00000  Uiso   1.00
H1194  H     0.16880   0.46348   0.85610   0.00000  Uiso   1.00
H1195  H     0.31096   0.53311   0.60971   0.00000  Uiso   1.00
H1196  H     0.10611   0.56130   0.68599   0.00000  Uiso   1.00
H1197  H     0.02277   0.46979   0.89079   0.00000  Uiso   1.00
H1198  H     0.18176   0.48808   0.58469   0.00000  Uiso   1.00
H1199  H     0.15160   0.51701   0.91596   0.00000  Uiso   1.00
H1200  H     0.10407   0.46329   0.80945   0.00000  Uiso   1.00
H1201  H     0.22949   0.53642   0.69057   0.00000  Uiso   1.00
H1202  H     0.13425   0.42883   0.58406   0.00000  Uiso   1.00
N1203  N     0.11736   0.50001   0.74999   0.00000  Uiso   1.00
N1204  N     0.21597   0.49999   0.75001   0.00000  Uiso   1.00
O1205  O     0.03958   0.43989   0.75000   0.00000  Uiso   1.00
O1206  O     0.20794   0.58168   0.91520   0.00000  Uiso   1.00
O1207  O     0.00163   0.45997   0.98142   0.00000  Uiso   1.00
O1208  O     0.33189   0.54616   0.52197   0.00000  Uiso   1.00
O1209  O     0.29421   0.37712   0.68953   0.00000  Uiso   1.00
O1210  O     0.05084   0.62294   0.80055   0.00000  Uiso   1.00
O1211  O     0.27758   0.62577   0.70264   0.00000  Uiso   1.00
O1212  O     0.04726   0.37491   0.80352   0.00000  Uiso   1.00
O1213  O     0.21851   0.42832   0.81680   0.00000  Uiso   1.00
O1214  O     0.17146   0.55454   0.64520   0.00000  Uiso   1.00
O1215  O     0.29375   0.56011   0.75000   0.00000  Uiso   1.00
O1216  O     0.29372   0.43988   0.75001   0.00000  Uiso   1.00
O1217  O     0.03961   0.56012   0.75000   0.00000  Uiso   1.00
O1218  O     0.01852   0.50001   0.81492   0.00000  Uiso   1.00
O1219  O     0.31481   0.49999   0.68509   0.00000  Uiso   1.00
O1220  O     0.27267   0.50000   0.81492   0.00000  Uiso   1.00
O1221  O     0.06067   0.50000   0.68508   0.00000  Uiso   1.00
O1222  O     0.08395   0.42846   0.64241   0.00000  Uiso   1.00
C1223  C     0.33340   0.42090   0.74947   0.00000  Uiso   1.00
C1224  C     0.35690   0.35441   0.77699   0.00000  Uiso   1.00
C1225  C     0.66536   0.62405   0.75080   0.00000  Uiso   1.00
C1226  C     0.66612   0.37636   0.74993   0.00000  Uiso   1.00
C1227  C     0.51372   0.47936   0.78352   0.00000  Uiso   1.00
C1228  C     0.48603   0.52116   0.71672   0.00000  Uiso   1.00
C1229  C     0.46460   0.47966   0.78315   0.00000  Uiso   1.00
C1230  C     0.53547   0.52000   0.71661   0.00000  Uiso   1.00
C1231  C     0.63938   0.50073   0.83608   0.00000  Uiso   1.00
C1232  C     0.36059   0.49949   0.66394   0.00000  Uiso   1.00
C1233  C     0.62456   0.49980   0.88560   0.00000  Uiso   1.00
C1234  C     0.66649   0.57927   0.75007   0.00000  Uiso   1.00
C1235  C     0.37528   0.50097   0.61448   0.00000  Uiso   1.00
C1236  C     0.63809   0.47504   0.95645   0.00000  Uiso   1.00
C1237  C     0.36252   0.52871   0.54478   0.00000  Uiso   1.00
C1238  C     0.65389   0.48017   0.90921   0.00000  Uiso   1.00
C1239  C     0.34632   0.52199   0.59149   0.00000  Uiso   1.00
C1240  C     0.58056   0.51728   0.90951   0.00000  Uiso   1.00
C1241  C     0.41977   0.48435   0.59003   0.00000  Uiso   1.00
C1242  C     0.55957   0.50394   0.95485   0.00000  Uiso   1.00
C1243  C     0.44097   0.49968   0.54545   0.00000  Uiso   1.00
C1244  C     0.59060   0.48682   0.97922   0.00000  Uiso   1.00
C1245  C     0.52552   0.48964   0.54821   0.00000  Uiso   1.00
C1246  C     0.41002   0.51752   0.52151   0.00000  Uiso   1.00
C1247  C     0.50895   0.50649   0.97663   0.00000  Uiso   1.00
C1248  C     0.49158   0.49773   0.52374   0.00000  Uiso   1.00
C1249  C     0.43759   0.44499   0.60603   0.00000  Uiso   1.00
C1250  C     0.56411   0.55560   0.89040   0.00000  Uiso   1.00
C1251  C     0.35808   0.42343   0.96348   0.00000  Uiso   1.00
C1252  C     0.66527   0.58921   0.52684   0.00000  Uiso   1.00
C1253  C     0.57794   0.38744   0.70252   0.00000  Uiso   1.00
C1254  C     0.43441   0.62603   0.77925   0.00000  Uiso   1.00
C1255  C     0.56151   0.62335   0.72791   0.00000  Uiso   1.00
C1256  C     0.47487   0.51521   0.95238   0.00000  Uiso   1.00
C1257  C     0.34810   0.37927   0.84668   0.00000  Uiso   1.00
C1258  C     0.52341   0.45674   0.82214   0.00000  Uiso   1.00
C1259  C     0.47435   0.54730   0.68107   0.00000  Uiso   1.00
C1260  C     0.57362   0.48205   0.52616   0.00000  Uiso   1.00
C1261  C     0.42690   0.52316   0.97469   0.00000  Uiso   1.00
C1262  C     0.64045   0.35585   0.72409   0.00000  Uiso   1.00
C1263  C     0.35940   0.64488   0.77494   0.00000  Uiso   1.00
C1264  C     0.63711   0.64613   0.72719   0.00000  Uiso   1.00
Cu1265 Cu    0.38022   0.50001   0.75000   0.00000  Uiso   1.00
Cu1266 Cu    0.61978   0.49999   0.75000   0.00000  Uiso   1.00
H1267  H     0.59747   0.47247   0.54622   0.00000  Uiso   1.00
H1268  H     0.57433   0.56232   0.85439   0.00000  Uiso   1.00
H1269  H     0.39092   0.43067   0.93532   0.00000  Uiso   1.00
H1270  H     0.66651   0.40218   0.95268   0.00000  Uiso   1.00
H1271  H     0.37033   0.40696   0.99027   0.00000  Uiso   1.00
H1272  H     0.36911   0.60255   0.51372   0.00000  Uiso   1.00
H1273  H     0.64926   0.59756   0.56260   0.00000  Uiso   1.00
H1274  H     0.64253   0.60325   0.50670   0.00000  Uiso   1.00
H1275  H     0.57412   0.41893   0.68907   0.00000  Uiso   1.00
H1276  H     0.56121   0.38761   0.73971   0.00000  Uiso   1.00
H1277  H     0.55745   0.36625   0.68681   0.00000  Uiso   1.00
H1278  H     0.40288   0.53322   0.95499   0.00000  Uiso   1.00
H1279  H     0.44337   0.61953   0.74260   0.00000  Uiso   1.00
H1280  H     0.45321   0.60272   0.79509   0.00000  Uiso   1.00
H1281  H     0.44889   0.65680   0.78404   0.00000  Uiso   1.00
H1282  H     0.55413   0.59535   0.75007   0.00000  Uiso   1.00
H1283  H     0.53896   0.62131   0.70409   0.00000  Uiso   1.00
H1284  H     0.54871   0.65008   0.74967   0.00000  Uiso   1.00
H1285  H     0.65009   0.39879   0.84512   0.00000  Uiso   1.00
H1286  H     0.33526   0.34879   0.86312   0.00000  Uiso   1.00
H1287  H     0.36751   0.39490   0.86811   0.00000  Uiso   1.00
H1288  H     0.50213   0.46348   0.85610   0.00000  Uiso   1.00
H1289  H     0.64429   0.53311   0.60971   0.00000  Uiso   1.00
H1290  H     0.43944   0.56130   0.68599   0.00000  Uiso   1.00
H1291  H     0.35611   0.46979   0.89079   0.00000  Uiso   1.00
H1292  H     0.51510   0.48808   0.58469   0.00000  Uiso   1.00
H1293  H     0.48493   0.51701   0.91596   0.00000  Uiso   1.00
H1294  H     0.43741   0.46329   0.80945   0.00000  Uiso   1.00
H1295  H     0.56282   0.53642   0.69057   0.00000  Uiso   1.00
H1296  H     0.46759   0.42883   0.58406   0.00000  Uiso   1.00
N1297  N     0.45069   0.50001   0.74999   0.00000  Uiso   1.00
N1298  N     0.54931   0.49999   0.75001   0.00000  Uiso   1.00
O1299  O     0.37291   0.43989   0.75000   0.00000  Uiso   1.00
O1300  O     0.54127   0.58168   0.91520   0.00000  Uiso   1.00
O1301  O     0.33497   0.45997   0.98142   0.00000  Uiso   1.00
O1302  O     0.66522   0.54616   0.52197   0.00000  Uiso   1.00
O1303  O     0.62754   0.37712   0.68953   0.00000  Uiso   1.00
O1304  O     0.38417   0.62294   0.80055   0.00000  Uiso   1.00
O1305  O     0.61091   0.62577   0.70264   0.00000  Uiso   1.00
O1306  O     0.38059   0.37491   0.80352   0.00000  Uiso   1.00
O1307  O     0.55185   0.42832   0.81680   0.00000  Uiso   1.00
O1308  O     0.50480   0.55454   0.64520   0.00000  Uiso   1.00
O1309  O     0.62709   0.56011   0.75000   0.00000  Uiso   1.00
O1310  O     0.62706   0.43988   0.75001   0.00000  Uiso   1.00
O1311  O     0.37294   0.56012   0.75000   0.00000  Uiso   1.00
O1312  O     0.35186   0.50001   0.81492   0.00000  Uiso   1.00
O1313  O     0.64814   0.49999   0.68509   0.00000  Uiso   1.00
O1314  O     0.60600   0.50000   0.81492   0.00000  Uiso   1.00
O1315  O     0.39400   0.50000   0.68508   0.00000  Uiso   1.00
O1316  O     0.41729   0.42846   0.64241   0.00000  Uiso   1.00
C1317  C     0.66674   0.42090   0.74947   0.00000  Uiso   1.00
C1318  C     0.69024   0.35441   0.77699   0.00000  Uiso   1.00
C1319  C     0.99869   0.62405   0.75080   0.00000  Uiso   1.00
C1320  C     0.99945   0.37636   0.74993   0.00000  Uiso   1.00
C1321  C     0.84705   0.47936   0.78352   0.00000  Uiso   1.00
C1322  C     0.81937   0.52116   0.71672   0.00000  Uiso   1.00
C1323  C     0.79793   0.47966   0.78315   0.00000  Uiso   1.00
C1324  C     0.86880   0.52000   0.71661   0.00000  Uiso   1.00
C1325  C     0.97272   0.50073   0.83608   0.00000  Uiso   1.00
C1326  C     0.69393   0.49949   0.66394   0.00000  Uiso   1.00
C1327  C     0.95790   0.49980   0.88560   0.00000  Uiso   1.00
C1328  C     0.99982   0.57927   0.75007   0.00000  Uiso   1.00
C1329  C     0.70861   0.50097   0.61448   0.00000  Uiso   1.00
C1330  C     0.97143   0.47504   0.95645   0.00000  Uiso   1.00
C1331  C     0.69585   0.52871   0.54478   0.00000  Uiso   1.00
C1332  C     0.98722   0.48017   0.90921   0.00000  Uiso   1.00
C1333  C     0.67965   0.52199   0.59149   0.00000  Uiso   1.00
C1334  C     0.91389   0.51728   0.90951   0.00000  Uiso   1.00
C1335  C     0.75310   0.48435   0.59003   0.00000  Uiso   1.00
C1336  C     0.89290   0.50394   0.95485   0.00000  Uiso   1.00
C1337  C     0.77431   0.49968   0.54545   0.00000  Uiso   1.00
C1338  C     0.92393   0.48682   0.97922   0.00000  Uiso   1.00
C1339  C     0.85885   0.48964   0.54821   0.00000  Uiso   1.00
C1340  C     0.74335   0.51752   0.52151   0.00000  Uiso   1.00
C1341  C     0.84228   0.50649   0.97663   0.00000  Uiso   1.00
C1342  C     0.82491   0.49773   0.52374   0.00000  Uiso   1.00
C1343  C     0.77092   0.44499   0.60603   0.00000  Uiso   1.00
C1344  C     0.89744   0.55560   0.89040   0.00000  Uiso   1.00
C1345  C     0.69141   0.42343   0.96348   0.00000  Uiso   1.00
C1346  C     0.99860   0.58921   0.52684   0.00000  Uiso   1.00
C1347  C     0.91127   0.38744   0.70252   0.00000  Uiso   1.00
C1348  C     0.76774   0.62603   0.77925   0.00000  Uiso   1.00
C1349  C     0.89484   0.62335   0.72791   0.00000  Uiso   1.00
C1350  C     0.80821   0.51521   0.95238   0.00000  Uiso   1.00
C1351  C     0.68144   0.37927   0.84668   0.00000  Uiso   1.00
C1352  C     0.85674   0.45674   0.82214   0.00000  Uiso   1.00
C1353  C     0.80768   0.54730   0.68107   0.00000  Uiso   1.00
C1354  C     0.90695   0.48205   0.52616   0.00000  Uiso   1.00
C1355  C     0.76023   0.52316   0.97469   0.00000  Uiso   1.00
C1356  C     0.97378   0.35585   0.72409   0.00000  Uiso   1.00
C1357  C     0.69273   0.64488   0.77494   0.00000  Uiso   1.00
C1358  C     0.97044   0.64613   0.72719   0.00000  Uiso   1.00
Cu1359 Cu    0.71355   0.50001   0.75000   0.00000  Uiso   1.00
Cu1360 Cu    0.95311   0.49999   0.75000   0.00000  Uiso   1.00
H1361  H     0.93080   0.47247   0.54622   0.00000  Uiso   1.00
H1362  H     0.90766   0.56232   0.85439   0.00000  Uiso   1.00
H1363  H     0.72425   0.43067   0.93532   0.00000  Uiso   1.00
H1364  H     0.99984   0.40218   0.95268   0.00000  Uiso   1.00
H1365  H     0.70366   0.40696   0.99027   0.00000  Uiso   1.00
H1366  H     0.70245   0.60255   0.51372   0.00000  Uiso   1.00
H1367  H     0.98259   0.59756   0.56260   0.00000  Uiso   1.00
H1368  H     0.97587   0.60325   0.50670   0.00000  Uiso   1.00
H1369  H     0.90745   0.41893   0.68907   0.00000  Uiso   1.00
H1370  H     0.89455   0.38761   0.73971   0.00000  Uiso   1.00
H1371  H     0.89078   0.36625   0.68681   0.00000  Uiso   1.00
H1372  H     0.73622   0.53322   0.95499   0.00000  Uiso   1.00
H1373  H     0.77670   0.61953   0.74260   0.00000  Uiso   1.00
H1374  H     0.78655   0.60272   0.79509   0.00000  Uiso   1.00
H1375  H     0.78222   0.65680   0.78404   0.00000  Uiso   1.00
H1376  H     0.88746   0.59535   0.75007   0.00000  Uiso   1.00
H1377  H     0.87230   0.62131   0.70409   0.00000  Uiso   1.00
H1378  H     0.88204   0.65008   0.74967   0.00000  Uiso   1.00
H1379  H     0.98343   0.39879   0.84512   0.00000  Uiso   1.00
H1380  H     0.66859   0.34879   0.86312   0.00000  Uiso   1.00
H1381  H     0.70084   0.39490   0.86811   0.00000  Uiso   1.00
H1382  H     0.83547   0.46348   0.85610   0.00000  Uiso   1.00
H1383  H     0.97762   0.53311   0.60971   0.00000  Uiso   1.00
H1384  H     0.77278   0.56130   0.68599   0.00000  Uiso   1.00
H1385  H     0.68944   0.46979   0.89079   0.00000  Uiso   1.00
H1386  H     0.84843   0.48808   0.58469   0.00000  Uiso   1.00
H1387  H     0.81827   0.51701   0.91596   0.00000  Uiso   1.00
H1388  H     0.77074   0.46329   0.80945   0.00000  Uiso   1.00
H1389  H     0.89616   0.53642   0.69057   0.00000  Uiso   1.00
H1390  H     0.80092   0.42883   0.58406   0.00000  Uiso   1.00
N1391  N     0.78403   0.50001   0.74999   0.00000  Uiso   1.00
N1392  N     0.88264   0.49999   0.75001   0.00000  Uiso   1.00
O1393  O     0.70625   0.43989   0.75000   0.00000  Uiso   1.00
O1394  O     0.87461   0.58168   0.91520   0.00000  Uiso   1.00
O1395  O     0.66830   0.45997   0.98142   0.00000  Uiso   1.00
O1396  O     0.99855   0.54616   0.52197   0.00000  Uiso   1.00
O1397  O     0.96088   0.37712   0.68953   0.00000  Uiso   1.00
O1398  O     0.71751   0.62294   0.80055   0.00000  Uiso   1.00
O1399  O     0.94425   0.62577   0.70264   0.00000  Uiso   1.00
O1400  O     0.71393   0.37491   0.80352   0.00000  Uiso   1.00
O1401  O     0.88518   0.42832   0.81680   0.00000  Uiso   1.00
O1402  O     0.83813   0.55454   0.64520   0.00000  Uiso   1.00
O1403  O     0.96042   0.56011   0.75000   0.00000  Uiso   1.00
O1404  O     0.96039   0.43988   0.75001   0.00000  Uiso   1.00
O1405  O     0.70628   0.56012   0.75000   0.00000  Uiso   1.00
O1406  O     0.68519   0.50001   0.81492   0.00000  Uiso   1.00
O1407  O     0.98148   0.49999   0.68509   0.00000  Uiso   1.00
O1408  O     0.93933   0.50000   0.81492   0.00000  Uiso   1.00
O1409  O     0.72733   0.50000   0.68508   0.00000  Uiso   1.00
O1410  O     0.75062   0.42846   0.64241   0.00000  Uiso   1.00
C1411  C     0.00007   0.75423   0.74947   0.00000  Uiso   1.00
C1412  C     0.02357   0.68774   0.77699   0.00000  Uiso   1.00
C1413  C     0.33203   0.95738   0.75080   0.00000  Uiso   1.00
C1414  C     0.33278   0.70970   0.74993   0.00000  Uiso   1.00
C1415  C     0.18038   0.81270   0.78352   0.00000  Uiso   1.00
C1416  C     0.15270   0.85449   0.71672   0.00000  Uiso   1.00
C1417  C     0.13127   0.81300   0.78315   0.00000  Uiso   1.00
C1418  C     0.20213   0.85333   0.71661   0.00000  Uiso   1.00
C1419  C     0.30605   0.83406   0.83608   0.00000  Uiso   1.00
C1420  C     0.02726   0.83283   0.66394   0.00000  Uiso   1.00
C1421  C     0.29123   0.83313   0.88560   0.00000  Uiso   1.00
C1422  C     0.33316   0.91260   0.75007   0.00000  Uiso   1.00
C1423  C     0.04195   0.83430   0.61448   0.00000  Uiso   1.00
C1424  C     0.30476   0.80838   0.95645   0.00000  Uiso   1.00
C1425  C     0.02919   0.86204   0.54478   0.00000  Uiso   1.00
C1426  C     0.32056   0.81350   0.90921   0.00000  Uiso   1.00
C1427  C     0.01299   0.85532   0.59149   0.00000  Uiso   1.00
C1428  C     0.24723   0.85061   0.90951   0.00000  Uiso   1.00
C1429  C     0.08644   0.81768   0.59003   0.00000  Uiso   1.00
C1430  C     0.22624   0.83727   0.95485   0.00000  Uiso   1.00
C1431  C     0.10764   0.83301   0.54545   0.00000  Uiso   1.00
C1432  C     0.25727   0.82016   0.97922   0.00000  Uiso   1.00
C1433  C     0.19218   0.82297   0.54821   0.00000  Uiso   1.00
C1434  C     0.07669   0.85085   0.52151   0.00000  Uiso   1.00
C1435  C     0.17562   0.83982   0.97663   0.00000  Uiso   1.00
C1436  C     0.15825   0.83106   0.52374   0.00000  Uiso   1.00
C1437  C     0.10426   0.77833   0.60603   0.00000  Uiso   1.00
C1438  C     0.23077   0.88894   0.89040   0.00000  Uiso   1.00
C1439  C     0.02474   0.75677   0.96348   0.00000  Uiso   1.00
C1440  C     0.33193   0.92254   0.52684   0.00000  Uiso   1.00
C1441  C     0.24461   0.72077   0.70252   0.00000  Uiso   1.00
C1442  C     0.10107   0.95936   0.77925   0.00000  Uiso   1.00
C1443  C     0.22817   0.95669   0.72791   0.00000  Uiso   1.00
C1444  C     0.14154   0.84854   0.95238   0.00000  Uiso   1.00
C1445  C     0.01477   0.71260   0.84668   0.00000  Uiso   1.00
C1446  C     0.19008   0.79007   0.82214   0.00000  Uiso   1.00
C1447  C     0.14102   0.88064   0.68107   0.00000  Uiso   1.00
C1448  C     0.24029   0.81539   0.52616   0.00000  Uiso   1.00
C1449  C     0.09356   0.85649   0.97469   0.00000  Uiso   1.00
C1450  C     0.30712   0.68919   0.72409   0.00000  Uiso   1.00
C1451  C     0.02607   0.97821   0.77494   0.00000  Uiso   1.00
C1452  C     0.30378   0.97947   0.72719   0.00000  Uiso   1.00
Cu1453 Cu    0.04689   0.83334   0.75000   0.00000  Uiso   1.00
Cu1454 Cu    0.28645   0.83333   0.75000   0.00000  Uiso   1.00
H1455  H     0.26413   0.80581   0.54622   0.00000  Uiso   1.00
H1456  H     0.24099   0.89565   0.85439   0.00000  Uiso   1.00
H1457  H     0.05759   0.76401   0.93532   0.00000  Uiso   1.00
H1458  H     0.33318   0.73551   0.95268   0.00000  Uiso   1.00
H1459  H     0.03699   0.74029   0.99027   0.00000  Uiso   1.00
H1460  H     0.03578   0.93588   0.51372   0.00000  Uiso   1.00
H1461  H     0.31593   0.93089   0.56260   0.00000  Uiso   1.00
H1462  H     0.30920   0.93659   0.50670   0.00000  Uiso   1.00
H1463  H     0.24079   0.75226   0.68907   0.00000  Uiso   1.00
H1464  H     0.22788   0.72095   0.73971   0.00000  Uiso   1.00
H1465  H     0.22411   0.69959   0.68681   0.00000  Uiso   1.00
H1466  H     0.06955   0.86655   0.95499   0.00000  Uiso   1.00
H1467  H     0.11004   0.95287   0.74260   0.00000  Uiso   1.00
H1468  H     0.11988   0.93605   0.79509   0.00000  Uiso   1.00
H1469  H     0.11555   0.99013   0.78404   0.00000  Uiso   1.00
H1470  H     0.22079   0.92869   0.75007   0.00000  Uiso   1.00
H1471  H     0.20563   0.95464   0.70409   0.00000  Uiso   1.00
H1472  H     0.21537   0.98341   0.74967   0.00000  Uiso   1.00
H1473  H     0.31676   0.73212   0.84512   0.00000  Uiso   1.00
H1474  H     0.00193   0.68212   0.86312   0.00000  Uiso   1.00
H1475  H     0.03417   0.72824   0.86811   0.00000  Uiso   1.00
H1476  H     0.16880   0.79681   0.85610   0.00000  Uiso   1.00
H1477  H     0.31096   0.86644   0.60971   0.00000  Uiso   1.00
H1478  H     0.10611   0.89463   0.68599   0.00000  Uiso   1.00
H1479  H     0.02277   0.80312   0.89079   0.00000  Uiso   1.00
H1480  H     0.18176   0.82142   0.58469   0.00000  Uiso   1.00
H1481  H     0.15160   0.85034   0.91596   0.00000  Uiso   1.00
H1482  H     0.10407   0.79663   0.80945   0.00000  Uiso   1.00
H1483  H     0.22949   0.86976   0.69057   0.00000  Uiso   1.00
H1484  H     0.13425   0.76216   0.58406   0.00000  Uiso   1.00
N1485  N     0.11736   0.83334   0.74999   0.00000  Uiso   1.00
N1486  N     0.21597   0.83332   0.75001   0.00000  Uiso   1.00
O1487  O     0.03958   0.77322   0.75000   0.00000  Uiso   1.00
O1488  O     0.20794   0.91501   0.91520   0.00000  Uiso   1.00
O1489  O     0.00163   0.79331   0.98142   0.00000  Uiso   1.00
O1490  O     0.33189   0.87950   0.52197   0.00000  Uiso   1.00
O1491  O     0.29421   0.71045   0.68953   0.00000  Uiso   1.00
O1492  O     0.05084   0.95627   0.80055   0.00000  Uiso   1.00
O1493  O     0.27758   0.95911   0.70264   0.00000  Uiso   1.00
O1494  O     0.04726   0.70825   0.80352   0.00000  Uiso   1.00
O1495  O     0.21851   0.76165   0.81680   0.00000  Uiso   1.00
O1496  O     0.17146   0.88787   0.64520   0.00000  Uiso   1.00
O1497  O     0.29375   0.89345   0.75000   0.00000  Uiso   1.00
O1498  O     0.29372   0.77321   0.75001   0.00000  Uiso   1.00
O1499  O     0.03961   0.89346   0.75000   0.00000  Uiso   1.00
O1500  O     0.01852   0.83334   0.81492   0.00000  Uiso   1.00
O1501  O     0.31481   0.83332   0.68509   0.00000  Uiso   1.00
O1502  O     0.27267   0.83333   0.81492   0.00000  Uiso   1.00
O1503  O     0.06067   0.83333   0.68508   0.00000  Uiso   1.00
O1504  O     0.08395   0.76179   0.64241   0.00000  Uiso   1.00
C1505  C     0.33340   0.75423   0.74947   0.00000  Uiso   1.00
C1506  C     0.35690   0.68774   0.77699   0.00000  Uiso   1.00
C1507  C     0.66536   0.95738   0.75080   0.00000  Uiso   1.00
C1508  C     0.66612   0.70970   0.74993   0.00000  Uiso   1.00
C1509  C     0.51372   0.81270   0.78352   0.00000  Uiso   1.00
C1510  C     0.48603   0.85449   0.71672   0.00000  Uiso   1.00
C1511  C     0.46460   0.81300   0.78315   0.00000  Uiso   1.00
C1512  C     0.53547   0.85333   0.71661   0.00000  Uiso   1.00
C1513  C     0.63938   0.83406   0.83608   0.00000  Uiso   1.00
C1514  C     0.36059   0.83283   0.66394   0.00000  Uiso   1.00
C1515  C     0.62456   0.83313   0.88560   0.00000  Uiso   1.00
C1516  C     0.66649   0.91260   0.75007   0.00000  Uiso   1.00
C1517  C     0.37528   0.83430   0.61448   0.00000  Uiso   1.00
C1518  C     0.63809   0.80838   0.95645   0.00000  Uiso   1.00
C1519  C     0.36252   0.86204   0.54478   0.00000  Uiso   1.00
C1520  C     0.65389   0.81350   0.90921   0.00000  Uiso   1.00
C1521  C     0.34632   0.85532   0.59149   0.00000  Uiso   1.00
C1522  C     0.58056   0.85061   0.90951   0.00000  Uiso   1.00
C1523  C     0.41977   0.81768   0.59003   0.00000  Uiso   1.00
C1524  C     0.55957   0.83727   0.95485   0.00000  Uiso   1.00
C1525  C     0.44097   0.83301   0.54545   0.00000  Uiso   1.00
C1526  C     0.59060   0.82016   0.97922   0.00000  Uiso   1.00
C1527  C     0.52552   0.82297   0.54821   0.00000  Uiso   1.00
C1528  C     0.41002   0.85085   0.52151   0.00000  Uiso   1.00
C1529  C     0.50895   0.83982   0.97663   0.00000  Uiso   1.00
C1530  C     0.49158   0.83106   0.52374   0.00000  Uiso   1.00
C1531  C     0.43759   0.77833   0.60603   0.00000  Uiso   1.00
C1532  C     0.56411   0.88894   0.89040   0.00000  Uiso   1.00
C1533  C     0.35808   0.75677   0.96348   0.00000  Uiso   1.00
C1534  C     0.66527   0.92254   0.52684   0.00000  Uiso   1.00
C1535  C     0.57794   0.72077   0.70252   0.00000  Uiso   1.00
C1536  C     0.43441   0.95936   0.77925   0.00000  Uiso   1.00
C1537  C     0.56151   0.95669   0.72791   0.00000  Uiso   1.00
C1538  C     0.47487   0.84854   0.95238   0.00000  Uiso   1.00
C1539  C     0.34810   0.71260   0.84668   0.00000  Uiso   1.00
C1540  C     0.52341   0.79007   0.82214   0.00000  Uiso   1.00
C1541  C     0.47435   0.88064   0.68107   0.00000  Uiso   1.00
C1542  C     0.57362   0.81539   0.52616   0.00000  Uiso   1.00
C1543  C     0.42690   0.85649   0.97469   0.00000  Uiso   1.00
C1544  C     0.64045   0.68919   0.72409   0.00000  Uiso   1.00
C1545  C     0.35940   0.97821   0.77494   0.00000  Uiso   1.00
C1546  C     0.63711   0.97947   0.72719   0.00000  Uiso   1.00
Cu1547 Cu    0.38022   0.83334   0.75000   0.00000  Uiso   1.00
Cu1548 Cu    0.61978   0.83333   0.75000   0.00000  Uiso   1.00
H1549  H     0.59747   0.80581   0.54622   0.00000  Uiso   1.00
H1550  H     0.57433   0.89565   0.85439   0.00000  Uiso   1.00
H1551  H     0.39092   0.76401   0.93532   0.00000  Uiso   1.00
H1552  H     0.66651   0.73551   0.95268   0.00000  Uiso   1.00
H1553  H     0.37033   0.74029   0.99027   0.00000  Uiso   1.00
H1554  H     0.36911   0.93588   0.51372   0.00000  Uiso   1.00
H1555  H     0.64926   0.93089   0.56260   0.00000  Uiso   1.00
H1556  H     0.64253   0.93659   0.50670   0.00000  Uiso   1.00
H1557  H     0.57412   0.75226   0.68907   0.00000  Uiso   1.00
H1558  H     0.56121   0.72095   0.73971   0.00000  Uiso   1.00
H1559  H     0.55745   0.69959   0.68681   0.00000  Uiso   1.00
H1560  H     0.40288   0.86655   0.95499   0.00000  Uiso   1.00
H1561  H     0.44337   0.95287   0.74260   0.00000  Uiso   1.00
H1562  H     0.45321   0.93605   0.79509   0.00000  Uiso   1.00
H1563  H     0.44889   0.99013   0.78404   0.00000  Uiso   1.00
H1564  H     0.55413   0.92869   0.75007   0.00000  Uiso   1.00
H1565  H     0.53896   0.95464   0.70409   0.00000  Uiso   1.00
H1566  H     0.54871   0.98341   0.74967   0.00000  Uiso   1.00
H1567  H     0.65009   0.73212   0.84512   0.00000  Uiso   1.00
H1568  H     0.33526   0.68212   0.86312   0.00000  Uiso   1.00
H1569  H     0.36751   0.72824   0.86811   0.00000  Uiso   1.00
H1570  H     0.50213   0.79681   0.85610   0.00000  Uiso   1.00
H1571  H     0.64429   0.86644   0.60971   0.00000  Uiso   1.00
H1572  H     0.43944   0.89463   0.68599   0.00000  Uiso   1.00
H1573  H     0.35611   0.80312   0.89079   0.00000  Uiso   1.00
H1574  H     0.51510   0.82142   0.58469   0.00000  Uiso   1.00
H1575  H     0.48493   0.85034   0.91596   0.00000  Uiso   1.00
H1576  H     0.43741   0.79663   0.80945   0.00000  Uiso   1.00
H1577  H     0.56282   0.86976   0.69057   0.00000  Uiso   1.00
H1578  H     0.46759   0.76216   0.58406   0.00000  Uiso   1.00
N1579  N     0.45069   0.83334   0.74999   0.00000  Uiso   1.00
N1580  N     0.54931   0.83332   0.75001   0.00000  Uiso   1.00
O1581  O     0.37291   0.77322   0.75000   0.00000  Uiso   1.00
O1582  O     0.54127   0.91501   0.91520   0.00000  Uiso   1.00
O1583  O     0.33497   0.79331   0.98142   0.00000  Uiso   1.00
O1584  O     0.66522   0.87950   0.52197   0.00000  Uiso   1.00
O1585  O     0.62754   0.71045   0.68953   0.00000  Uiso   1.00
O1586  O     0.38417   0.95627   0.80055   0.00000  Uiso   1.00
O1587  O     0.61091   0.95911   0.70264   0.00000  Uiso   1.00
O1588  O     0.38059   0.70825   0.80352   0.00000  Uiso   1.00
O1589  O     0.55185   0.76165   0.81680   0.00000  Uiso   1.00
O1590  O     0.50480   0.88787   0.64520   0.00000  Uiso   1.00
O1591  O     0.62709   0.89345   0.75000   0.00000  Uiso   1.00
O1592  O     0.62706   0.77321   0.75001   0.00000  Uiso   1.00
O1593  O     0.37294   0.89346   0.75000   0.00000  Uiso   1.00
O1594  O     0.35186   0.83334   0.81492   0.00000  Uiso   1.00
O1595  O     0.64814   0.83332   0.68509   0.00000  Uiso   1.00
O1596  O     0.60600   0.83333   0.81492   0.00000  Uiso   1.00
O1597  O     0.39400   0.83333   0.68508   0.00000  Uiso   1.00
O1598  O     0.41729   0.76179   0.64241   0.00000  Uiso   1.00
C1599  C     0.66674   0.75423   0.74947   0.00000  Uiso   1.00
C1600  C     0.69024   0.68774   0.77699   0.00000  Uiso   1.00
C1601  C     0.99869   0.95738   0.75080   0.00000  Uiso   1.00
C1602  C     0.99945   0.70970   0.74993   0.00000  Uiso   1.00
C1603  C     0.84705   0.81270   0.78352   0.00000  Uiso   1.00
C1604  C     0.81937   0.85449   0.71672   0.00000  Uiso   1.00
C1605  C     0.79793   0.81300   0.78315   0.00000  Uiso   1.00
C1606  C     0.86880   0.85333   0.71661   0.00000  Uiso   1.00
C1607  C     0.97272   0.83406   0.83608   0.00000  Uiso   1.00
C1608  C     0.69393   0.83283   0.66394   0.00000  Uiso   1.00
C1609  C     0.95790   0.83313   0.88560   0.00000  Uiso   1.00
C1610  C     0.99982   0.91260   0.75007   0.00000  Uiso   1.00
C1611  C     0.70861   0.83430   0.61448   0.00000  Uiso   1.00
C1612  C     0.97143   0.80838   0.95645   0.00000  Uiso   1.00
C1613  C     0.69585   0.86204   0.54478   0.00000  Uiso   1.00
C1614  C     0.98722   0.81350   0.90921   0.00000  Uiso   1.00
C1615  C     0.67965   0.85532   0.59149   0.00000  Uiso   1.00
C1616  C     0.91389   0.85061   0.90951   0.00000  Uiso   1.00
C1617  C     0.75310   0.81768   0.59003   0.00000  Uiso   1.00
C1618  C     0.89290   0.83727   0.95485   0.00000  Uiso   1.00
C1619  C     0.77431   0.83301   0.54545   0.00000  Uiso   1.00
C1620  C     0.92393   0.82016   0.97922   0.00000  Uiso   1.00
C1621  C     0.85885   0.82297   0.54821   0.00000  Uiso   1.00
C1622  C     0.74335   0.85085   0.52151   0.00000  Uiso   1.00
C1623  C     0.84228   0.83982   0.97663   0.00000  Uiso   1.00
C1624  C     0.82491   0.83106   0.52374   0.00000  Uiso   1.00
C1625  C     0.77092   0.77833   0.60603   0.00000  Uiso   1.00
C1626  C     0.89744   0.88894   0.89040   0.00000  Uiso   1.00
C1627  C     0.69141   0.75677   0.96348   0.00000  Uiso   1.00
C1628  C     0.99860   0.92254   0.52684   0.00000  Uiso   1.00
C1629  C     0.91127   0.72077   0.70252   0.00000  Uiso   1.00
C1630  C     0.76774   0.95936   0.77925   0.00000  Uiso   1.00
C1631  C     0.89484   0.95669   0.72791   0.00000  Uiso   1.00
C1632  C     0.80821   0.84854   0.95238   0.00000  Uiso   1.00
C1633  C     0.68144   0.71260   0.84668   0.00000  Uiso   1.00
C1634  C     0.85674   0.79007   0.82214   0.00000  Uiso   1.00
C1635  C     0.80768   0.88064   0.68107   0.00000  Uiso   1.00
C1636  C     0.90695   0.81539   0.52616   0.00000  Uiso   1.00
C1637  C     0.76023   0.85649   0.97469   0.00000  Uiso   1.00
C1638  C     0.97378   0.68919   0.72409   0.00000  Uiso   1.00
C1639  C     0.69273   0.97821   0.77494   0.00000  Uiso   1.00
C1640  C     0.97044   0.97947   0.72719   0.00000  Uiso   1.00
Cu1641 Cu    0.71355   0.83334   0.75000   0.00000  Uiso   1.00
Cu1642 Cu    0.95311   0.83333   0.75000   0.00000  Uiso   1.00
H1643  H     0.93080   0.80581   0.54622   0.00000  Uiso   1.00
H1644  H     0.90766   0.89565   0.85439   0.00000  Uiso   1.00
H1645  H     0.72425   0.76401   0.93532   0.00000  Uiso   1.00
H1646  H     0.99984   0.73551   0.95268   0.00000  Uiso   1.00
H1647  H     0.70366   0.74029   0.99027   0.00000  Uiso   1.00
H1648  H     0.70245   0.93588   0.51372   0.00000  Uiso   1.00
H1649  H     0.98259   0.93089   0.56260   0.00000  Uiso   1.00
H1650  H     0.97587   0.93659   0.50670   0.00000  Uiso   1.00
H1651  H     0.90745   0.75226   0.68907   0.00000  Uiso   1.00
H1652  H     0.89455   0.72095   0.73971   0.00000  Uiso   1.00
H1653  H     0.89078   0.69959   0.68681   0.00000  Uiso   1.00
H1654  H     0.73622   0.86655   0.95499   0.00000  Uiso   1.00
H1655  H     0.77670   0.95287   0.74260   0.00000  Uiso   1.00
H1656  H     0.78655   0.93605   0.79509   0.00000  Uiso   1.00
H1657  H     0.78222   0.99013   0.78404   0.00000  Uiso   1.00
H1658  H     0.88746   0.92869   0.75007   0.00000  Uiso   1.00
H1659  H     0.87230   0.95464   0.70409   0.00000  Uiso   1.00
H1660  H     0.88204   0.98341   0.74967   0.00000  Uiso   1.00
H1661  H     0.98343   0.73212   0.84512   0.00000  Uiso   1.00
H1662  H     0.66859   0.68212   0.86312   0.00000  Uiso   1.00
H1663  H     0.70084   0.72824   0.86811   0.00000  Uiso   1.00
H1664  H     0.83547   0.79681   0.85610   0.00000  Uiso   1.00
H1665  H     0.97762   0.86644   0.60971   0.00000  Uiso   1.00
H1666  H     0.77278   0.89463   0.68599   0.00000  Uiso   1.00
H1667  H     0.68944   0.80312   0.89079   0.00000  Uiso   1.00
H1668  H     0.84843   0.82142   0.58469   0.00000  Uiso   1.00
H1669  H     0.81827   0.85034   0.91596   0.00000  Uiso   1.00
H1670  H     0.77074   0.79663   0.80945   0.00000  Uiso   1.00
H1671  H     0.89616   0.86976   0.69057   0.00000  Uiso   1.00
H1672  H     0.80092   0.76216   0.58406   0.00000  Uiso   1.00
N1673  N     0.78403   0.83334   0.74999   0.00000  Uiso   1.00
N1674  N     0.88264   0.83332   0.75001   0.00000  Uiso   1.00
O1675  O     0.70625   0.77322   0.75000   0.00000  Uiso   1.00
O1676  O     0.87461   0.91501   0.91520   0.00000  Uiso   1.00
O1677  O     0.66830   0.79331   0.98142   0.00000  Uiso   1.00
O1678  O     0.99855   0.87950   0.52197   0.00000  Uiso   1.00
O1679  O     0.96088   0.71045   0.68953   0.00000  Uiso   1.00
O1680  O     0.71751   0.95627   0.80055   0.00000  Uiso   1.00
O1681  O     0.94425   0.95911   0.70264   0.00000  Uiso   1.00
O1682  O     0.71393   0.70825   0.80352   0.00000  Uiso   1.00
O1683  O     0.88518   0.76165   0.81680   0.00000  Uiso   1.00
O1684  O     0.83813   0.88787   0.64520   0.00000  Uiso   1.00
O1685  O     0.96042   0.89345   0.75000   0.00000  Uiso   1.00
O1686  O     0.96039   0.77321   0.75001   0.00000  Uiso   1.00
O1687  O     0.70628   0.89346   0.75000   0.00000  Uiso   1.00
O1688  O     0.68519   0.83334   0.81492   0.00000  Uiso   1.00
O1689  O     0.98148   0.83332   0.68509   0.00000  Uiso   1.00
O1690  O     0.93933   0.83333   0.81492   0.00000  Uiso   1.00
O1691  O     0.72733   0.83333   0.68508   0.00000  Uiso   1.00
O1692  O     0.75062   0.76179   0.64241   0.00000  Uiso   1.00
loop_
_geom_bond_atom_site_label_1
_geom_bond_atom_site_label_2
_geom_bond_distance
_geom_bond_site_symmetry_2
_ccdc_geom_bond_type
C1     O77     1.295   .     A
C1     C192    1.446   1_455 S
C1     O276    1.293   1_455 S
C2     O84     1.383   .     S
C2     C192    1.405   1_455 S
C2     C605    1.396   1_545 S
C3     C42     1.416   .     A
C3     C12     1.455   .     S
C3     C135    1.407   .     S
C4     C40     1.405   .     A
C4     C95     1.446   .     S
C4     C96     1.405   .     S
C5     C36     1.474   .     S
C5     C7      1.414   .     A
C5     N76     1.391   .     A
C6     N75     1.391   .     A
C6     C37     1.482   .     S
C6     C8      1.420   .     A
C7     H72     1.083   .     S
C7     N75     1.353   .     A
C8     N76     1.354   .     A
C8     H73     1.082   .     S
C9     O92     1.301   .     A
C9     C11     1.467   .     S
C9     O184    1.297   .     S
C10    O93     1.302   .     A
C10    C13     1.465   .     S
C10    O279    1.296   1_455 S
C11    C18     1.405   .     A
C11    C16     1.401   .     A
C12    O87     1.291   .     A
C12    O183    1.302   .     S
C13    C19     1.409   .     A
C13    C17     1.401   .     A
C14    C16     1.406   .     A
C14    C22     1.409   .     A
C14    O173    1.392   .     S
C15    C24     1.408   .     A
C15    C17     1.397   .     A
C15    O268    1.383   1_455 S
C16    H163    1.081   .     S
C17    H255    1.084   1_455 S
C18    C28     1.495   .     S
C18    C20     1.416   .     A
C19    C21     1.416   .     A
C19    C27     1.499   .     S
C20    C25     1.426   .     A
C20    C22     1.421   .     A
C21    C26     1.424   .     A
C21    C24     1.419   .     A
C22    C884    1.398   .     S
C23    C26     1.410   .     A
C23    H70     1.081   .     S
C23    C38     1.386   .     A
C24    C885    1.397   1_554 S
C25    C34     1.412   .     A
C25    C872    1.420   .     S
C26    C871    1.420   1_554 S
C27    H74     1.084   .     S
C27    O94     1.221   .     D
C28    H46     1.083   .     S
C28    O78     1.221   .     D
C29    H49     1.109   .     S
C29    H47     1.111   .     S
C29    O79     1.411   .     S
C29    H236    1.114   1_455 S
C30    H51     1.113   .     S
C30    O80     1.410   .     S
C30    H52     1.109   .     S
C30    H144    1.114   .     S
C31    H53     1.110   .     S
C31    O81     1.413   .     S
C31    H54     1.114   .     S
C31    H55     1.109   .     S
C32    H58     1.110   .     S
C32    H57     1.114   .     S
C32    O82     1.412   .     S
C32    H59     1.110   .     S
C33    H62     1.112   .     S
C33    O83     1.418   .     S
C33    H60     1.106   .     S
C33    H61     1.109   .     S
C34    C39     1.388   .     A
C34    H71     1.079   .     S
C35    H65     1.108   .     S
C35    H64     1.113   .     S
C35    O84     1.409   .     S
C35    H251    1.113   1_455 S
C36    H66     1.085   .     S
C36    O85     1.218   .     D
C37    H68     1.075   .     S
C37    O86     1.222   .     D
C38    H45     1.083   .     S
C38    C868    1.398   1_554 S
C39    H56     1.084   .     S
C39    C870    1.397   .     S
C40    O81     1.389   .     S
C40    C606    1.400   1_545 S
C41    O82     1.386   .     S
C41    C284    1.396   .     S
C41    C191    1.407   1_455 S
C42    O83     1.385   .     S
C42    C322    1.400   .     S
Cu43   O89     1.963   .     S
Cu43   N75     2.024   .     S
Cu43   O90     1.941   .     S
Cu43   O77     1.963   .     S
Cu43   O93     1.931   .     S
Cu43   Cu232   2.694   1_455 S
Cu44   N76     2.024   .     S
Cu44   O87     1.963   .     S
Cu44   O92     1.931   .     S
Cu44   O91     1.941   .     S
Cu44   O88     1.963   .     S
Cu44   Cu137   2.694   .     S
H48    C123    1.114   .     S
H50    C218    1.114   1_455 S
H63    C129    1.113   .     S
H67    C111    1.084   .     S
H69    C204    1.081   1_455 S
O79    C202    1.392   1_455 S
O80    C109    1.383   .     S
O88    C95     1.293   .     S
O89    C200    1.302   1_455 S
O90    C197    1.297   1_455 S
O91    C104    1.296   .     S
C95    O171    1.295   .     A
C96    O178    1.383   .     S
C96    C699    1.396   1_545 S
C97    C136    1.416   .     A
C97    C106    1.455   .     S
C97    C229    1.407   .     S
C98    C134    1.405   .     A
C98    C189    1.446   .     S
C98    C190    1.405   .     S
C99    C130    1.474   .     S
C99    C101    1.414   .     A
C99    N170    1.391   .     A
C100   N169    1.391   .     A
C100   C131    1.482   .     S
C100   C102    1.420   .     A
C101   H166    1.083   .     S
C101   N169    1.353   .     A
C102   N170    1.354   .     A
C102   H167    1.082   .     S
C103   O186    1.301   .     A
C103   C105    1.467   .     S
C103   O278    1.297   .     S
C104   O187    1.302   .     A
C104   C107    1.465   .     S
C105   C112    1.405   .     A
C105   C110    1.401   .     A
C106   O181    1.291   .     A
C106   O277    1.302   .     S
C107   C113    1.409   .     A
C107   C111    1.401   .     A
C108   C110    1.406   .     A
C108   C116    1.409   .     A
C108   O267    1.392   .     S
C109   C118    1.408   .     A
C109   C111    1.397   .     A
C110   H257    1.081   .     S
C112   C122    1.495   .     S
C112   C114    1.416   .     A
C113   C115    1.416   .     A
C113   C121    1.499   .     S
C114   C119    1.426   .     A
C114   C116    1.421   .     A
C115   C120    1.424   .     A
C115   C118    1.419   .     A
C116   C978    1.398   .     S
C117   C120    1.410   .     A
C117   H164    1.081   .     S
C117   C132    1.386   .     A
C118   C979    1.397   1_554 S
C119   C128    1.412   .     A
C119   C966    1.420   .     S
C120   C965    1.420   1_554 S
C121   H168    1.084   .     S
C121   O188    1.221   .     D
C122   H140    1.083   .     S
C122   O172    1.221   .     D
C123   H143    1.109   .     S
C123   H141    1.111   .     S
C123   O173    1.411   .     S
C124   H145    1.113   .     S
C124   O174    1.410   .     S
C124   H146    1.109   .     S
C124   H238    1.114   .     S
C125   H147    1.110   .     S
C125   O175    1.413   .     S
C125   H148    1.114   .     S
C125   H149    1.109   .     S
C126   H152    1.110   .     S
C126   H151    1.114   .     S
C126   O176    1.412   .     S
C126   H153    1.110   .     S
C127   H156    1.112   .     S
C127   O177    1.418   .     S
C127   H154    1.106   .     S
C127   H155    1.109   .     S
C128   C133    1.388   .     A
C128   H165    1.079   .     S
C129   H159    1.108   .     S
C129   H158    1.113   .     S
C129   O178    1.409   .     S
C130   H160    1.085   .     S
C130   O179    1.218   .     D
C131   H162    1.075   .     S
C131   O180    1.222   .     D
C132   H139    1.083   .     S
C132   C962    1.398   1_554 S
C133   H150    1.084   .     S
C133   C964    1.397   .     S
C134   O175    1.389   .     S
C134   C700    1.400   1_545 S
C135   O176    1.386   .     S
C135   C378    1.396   .     S
C136   O177    1.385   .     S
C136   C416    1.400   .     S
Cu137  O183    1.963   .     S
Cu137  N169    2.024   .     S
Cu137  O184    1.941   .     S
Cu137  O171    1.963   .     S
Cu137  O187    1.931   .     S
Cu138  N170    2.024   .     S
Cu138  O181    1.963   .     S
Cu138  O186    1.931   .     S
Cu138  O185    1.941   .     S
Cu138  O182    1.963   .     S
Cu138  Cu231   2.694   .     S
H142   C217    1.114   .     S
H157   C223    1.113   .     S
H161   C205    1.084   .     S
O174   C203    1.383   .     S
O182   C189    1.293   .     S
O185   C198    1.296   .     S
C189   O265    1.295   .     A
C190   O272    1.383   .     S
C190   C793    1.396   1_545 S
C191   C230    1.416   .     A
C191   C200    1.455   .     S
C191   C41     1.407   1_655 S
C192   C228    1.405   .     A
C192   C1      1.446   1_655 S
C192   C2      1.405   1_655 S
C193   C224    1.474   .     S
C193   C195    1.414   .     A
C193   N264    1.391   .     A
C194   N263    1.391   .     A
C194   C225    1.482   .     S
C194   C196    1.420   .     A
C195   H260    1.083   .     S
C195   N263    1.353   .     A
C196   N264    1.354   .     A
C196   H261    1.082   .     S
C197   O280    1.301   .     A
C197   C199    1.467   .     S
C197   O90     1.297   1_655 S
C198   O281    1.302   .     A
C198   C201    1.465   .     S
C199   C206    1.405   .     A
C199   C204    1.401   .     A
C200   O275    1.291   .     A
C200   O89     1.302   1_655 S
C201   C207    1.409   .     A
C201   C205    1.401   .     A
C202   C204    1.406   .     A
C202   C210    1.409   .     A
C202   O79     1.392   1_655 S
C203   C212    1.408   .     A
C203   C205    1.397   .     A
C204   H69     1.081   1_655 S
C206   C216    1.495   .     S
C206   C208    1.416   .     A
C207   C209    1.416   .     A
C207   C215    1.499   .     S
C208   C213    1.426   .     A
C208   C210    1.421   .     A
C209   C214    1.424   .     A
C209   C212    1.419   .     A
C210   C1072   1.398   .     S
C211   C214    1.410   .     A
C211   H258    1.081   .     S
C211   C226    1.386   .     A
C212   C1073   1.397   1_554 S
C213   C222    1.412   .     A
C213   C1060   1.420   .     S
C214   C1059   1.420   1_554 S
C215   H262    1.084   .     S
C215   O282    1.221   .     D
C216   H234    1.083   .     S
C216   O266    1.221   .     D
C217   H237    1.109   .     S
C217   H235    1.111   .     S
C217   O267    1.411   .     S
C218   H239    1.113   .     S
C218   O268    1.410   .     S
C218   H240    1.109   .     S
C218   H50     1.114   1_655 S
C219   H241    1.110   .     S
C219   O269    1.413   .     S
C219   H242    1.114   .     S
C219   H243    1.109   .     S
C220   H246    1.110   .     S
C220   H245    1.114   .     S
C220   O270    1.412   .     S
C220   H247    1.110   .     S
C221   H250    1.112   .     S
C221   O271    1.418   .     S
C221   H248    1.106   .     S
C221   H249    1.109   .     S
C222   C227    1.388   .     A
C222   H259    1.079   .     S
C223   H253    1.108   .     S
C223   H252    1.113   .     S
C223   O272    1.409   .     S
C224   H254    1.085   .     S
C224   O273    1.218   .     D
C225   H256    1.075   .     S
C225   O274    1.222   .     D
C226   H233    1.083   .     S
C226   C1056   1.398   1_554 S
C227   H244    1.084   .     S
C227   C1058   1.397   .     S
C228   O269    1.389   .     S
C228   C794    1.400   1_545 S
C229   O270    1.386   .     S
C229   C472    1.396   .     S
C230   O271    1.385   .     S
C230   C510    1.400   .     S
Cu231  O277    1.963   .     S
Cu231  N263    2.024   .     S
Cu231  O278    1.941   .     S
Cu231  O265    1.963   .     S
Cu231  O281    1.931   .     S
Cu232  N264    2.024   .     S
Cu232  O275    1.963   .     S
Cu232  O280    1.931   .     S
Cu232  O279    1.941   .     S
Cu232  O276    1.963   .     S
Cu232  Cu43    2.694   1_655 S
H236   C29     1.114   1_655 S
H251   C35     1.113   1_655 S
H255   C17     1.084   1_655 S
O268   C15     1.383   1_655 S
O276   C1      1.293   1_655 S
O279   C10     1.296   1_655 S
C283   O359    1.295   .     A
C283   C474    1.446   1_455 S
C283   O558    1.293   1_455 S
C284   O366    1.383   .     S
C284   C474    1.405   1_455 S
C285   C324    1.416   .     A
C285   C294    1.455   .     S
C285   C417    1.407   .     S
C286   C322    1.405   .     A
C286   C377    1.446   .     S
C286   C378    1.405   .     S
C287   C318    1.474   .     S
C287   C289    1.414   .     A
C287   N358    1.391   .     A
C288   N357    1.391   .     A
C288   C319    1.482   .     S
C288   C290    1.420   .     A
C289   H354    1.083   .     S
C289   N357    1.353   .     A
C290   N358    1.354   .     A
C290   H355    1.082   .     S
C291   O374    1.301   .     A
C291   C293    1.467   .     S
C291   O466    1.297   .     S
C292   O375    1.302   .     A
C292   C295    1.465   .     S
C292   O561    1.296   1_455 S
C293   C300    1.405   .     A
C293   C298    1.401   .     A
C294   O369    1.291   .     A
C294   O465    1.302   .     S
C295   C301    1.409   .     A
C295   C299    1.401   .     A
C296   C298    1.406   .     A
C296   C304    1.409   .     A
C296   O455    1.392   .     S
C297   C306    1.408   .     A
C297   C299    1.397   .     A
C297   O550    1.383   1_455 S
C298   H445    1.081   .     S
C299   H537    1.084   1_455 S
C300   C310    1.495   .     S
C300   C302    1.416   .     A
C301   C303    1.416   .     A
C301   C309    1.499   .     S
C302   C307    1.426   .     A
C302   C304    1.421   .     A
C303   C308    1.424   .     A
C303   C306    1.419   .     A
C304   C1166   1.398   .     S
C305   C308    1.410   .     A
C305   H352    1.081   .     S
C305   C320    1.386   .     A
C306   C1167   1.397   1_554 S
C307   C316    1.412   .     A
C307   C1154   1.420   .     S
C308   C1153   1.420   1_554 S
C309   H356    1.084   .     S
C309   O376    1.221   .     D
C310   H328    1.083   .     S
C310   O360    1.221   .     D
C311   H331    1.109   .     S
C311   H329    1.111   .     S
C311   O361    1.411   .     S
C311   H518    1.114   1_455 S
C312   H333    1.113   .     S
C312   O362    1.410   .     S
C312   H334    1.109   .     S
C312   H426    1.114   .     S
C313   H335    1.110   .     S
C313   O363    1.413   .     S
C313   H336    1.114   .     S
C313   H337    1.109   .     S
C314   H340    1.110   .     S
C314   H339    1.114   .     S
C314   O364    1.412   .     S
C314   H341    1.110   .     S
C315   H344    1.112   .     S
C315   O365    1.418   .     S
C315   H342    1.106   .     S
C315   H343    1.109   .     S
C316   C321    1.388   .     A
C316   H353    1.079   .     S
C317   H347    1.108   .     S
C317   H346    1.113   .     S
C317   O366    1.409   .     S
C317   H533    1.113   1_455 S
C318   H348    1.085   .     S
C318   O367    1.218   .     D
C319   H350    1.075   .     S
C319   O368    1.222   .     D
C320   H327    1.083   .     S
C320   C1150   1.398   1_554 S
C321   H338    1.084   .     S
C321   C1152   1.397   .     S
C322   O363    1.389   .     S
C323   O364    1.386   .     S
C323   C566    1.396   .     S
C323   C473    1.407   1_455 S
C324   O365    1.385   .     S
C324   C604    1.400   .     S
Cu325  O371    1.963   .     S
Cu325  N357    2.024   .     S
Cu325  O372    1.941   .     S
Cu325  O359    1.963   .     S
Cu325  O375    1.931   .     S
Cu325  Cu514   2.694   1_455 S
Cu326  N358    2.024   .     S
Cu326  O369    1.963   .     S
Cu326  O374    1.931   .     S
Cu326  O373    1.941   .     S
Cu326  O370    1.963   .     S
Cu326  Cu419   2.694   .     S
H330   C405    1.114   .     S
H332   C500    1.114   1_455 S
H345   C411    1.113   .     S
H349   C393    1.084   .     S
H351   C486    1.081   1_455 S
O361   C484    1.392   1_455 S
O362   C391    1.383   .     S
O370   C377    1.293   .     S
O371   C482    1.302   1_455 S
O372   C479    1.297   1_455 S
O373   C386    1.296   .     S
C377   O453    1.295   .     A
C378   O460    1.383   .     S
C379   C418    1.416   .     A
C379   C388    1.455   .     S
C379   C511    1.407   .     S
C380   C416    1.405   .     A
C380   C471    1.446   .     S
C380   C472    1.405   .     S
C381   C412    1.474   .     S
C381   C383    1.414   .     A
C381   N452    1.391   .     A
C382   N451    1.391   .     A
C382   C413    1.482   .     S
C382   C384    1.420   .     A
C383   H448    1.083   .     S
C383   N451    1.353   .     A
C384   N452    1.354   .     A
C384   H449    1.082   .     S
C385   O468    1.301   .     A
C385   C387    1.467   .     S
C385   O560    1.297   .     S
C386   O469    1.302   .     A
C386   C389    1.465   .     S
C387   C394    1.405   .     A
C387   C392    1.401   .     A
C388   O463    1.291   .     A
C388   O559    1.302   .     S
C389   C395    1.409   .     A
C389   C393    1.401   .     A
C390   C392    1.406   .     A
C390   C398    1.409   .     A
C390   O549    1.392   .     S
C391   C400    1.408   .     A
C391   C393    1.397   .     A
C392   H539    1.081   .     S
C394   C404    1.495   .     S
C394   C396    1.416   .     A
C395   C397    1.416   .     A
C395   C403    1.499   .     S
C396   C401    1.426   .     A
C396   C398    1.421   .     A
C397   C402    1.424   .     A
C397   C400    1.419   .     A
C398   C1260   1.398   .     S
C399   C402    1.410   .     A
C399   H446    1.081   .     S
C399   C414    1.386   .     A
C400   C1261   1.397   1_554 S
C401   C410    1.412   .     A
C401   C1248   1.420   .     S
C402   C1247   1.420   1_554 S
C403   H450    1.084   .     S
C403   O470    1.221   .     D
C404   H422    1.083   .     S
C404   O454    1.221   .     D
C405   H425    1.109   .     S
C405   H423    1.111   .     S
C405   O455    1.411   .     S
C406   H427    1.113   .     S
C406   O456    1.410   .     S
C406   H428    1.109   .     S
C406   H520    1.114   .     S
C407   H429    1.110   .     S
C407   O457    1.413   .     S
C407   H430    1.114   .     S
C407   H431    1.109   .     S
C408   H434    1.110   .     S
C408   H433    1.114   .     S
C408   O458    1.412   .     S
C408   H435    1.110   .     S
C409   H438    1.112   .     S
C409   O459    1.418   .     S
C409   H436    1.106   .     S
C409   H437    1.109   .     S
C410   C415    1.388   .     A
C410   H447    1.079   .     S
C411   H441    1.108   .     S
C411   H440    1.113   .     S
C411   O460    1.409   .     S
C412   H442    1.085   .     S
C412   O461    1.218   .     D
C413   H444    1.075   .     S
C413   O462    1.222   .     D
C414   H421    1.083   .     S
C414   C1244   1.398   1_554 S
C415   H432    1.084   .     S
C415   C1246   1.397   .     S
C416   O457    1.389   .     S
C417   O458    1.386   .     S
C417   C660    1.396   .     S
C418   O459    1.385   .     S
C418   C698    1.400   .     S
Cu419  O465    1.963   .     S
Cu419  N451    2.024   .     S
Cu419  O466    1.941   .     S
Cu419  O453    1.963   .     S
Cu419  O469    1.931   .     S
Cu420  N452    2.024   .     S
Cu420  O463    1.963   .     S
Cu420  O468    1.931   .     S
Cu420  O467    1.941   .     S
Cu420  O464    1.963   .     S
Cu420  Cu513   2.694   .     S
H424   C499    1.114   .     S
H439   C505    1.113   .     S
H443   C487    1.084   .     S
O456   C485    1.383   .     S
O464   C471    1.293   .     S
O467   C480    1.296   .     S
C471   O547    1.295   .     A
C472   O554    1.383   .     S
C473   C512    1.416   .     A
C473   C482    1.455   .     S
C473   C323    1.407   1_655 S
C474   C510    1.405   .     A
C474   C283    1.446   1_655 S
C474   C284    1.405   1_655 S
C475   C506    1.474   .     S
C475   C477    1.414   .     A
C475   N546    1.391   .     A
C476   N545    1.391   .     A
C476   C507    1.482   .     S
C476   C478    1.420   .     A
C477   H542    1.083   .     S
C477   N545    1.353   .     A
C478   N546    1.354   .     A
C478   H543    1.082   .     S
C479   O562    1.301   .     A
C479   C481    1.467   .     S
C479   O372    1.297   1_655 S
C480   O563    1.302   .     A
C480   C483    1.465   .     S
C481   C488    1.405   .     A
C481   C486    1.401   .     A
C482   O557    1.291   .     A
C482   O371    1.302   1_655 S
C483   C489    1.409   .     A
C483   C487    1.401   .     A
C484   C486    1.406   .     A
C484   C492    1.409   .     A
C484   O361    1.392   1_655 S
C485   C494    1.408   .     A
C485   C487    1.397   .     A
C486   H351    1.081   1_655 S
C488   C498    1.495   .     S
C488   C490    1.416   .     A
C489   C491    1.416   .     A
C489   C497    1.499   .     S
C490   C495    1.426   .     A
C490   C492    1.421   .     A
C491   C496    1.424   .     A
C491   C494    1.419   .     A
C492   C1354   1.398   .     S
C493   C496    1.410   .     A
C493   H540    1.081   .     S
C493   C508    1.386   .     A
C494   C1355   1.397   1_554 S
C495   C504    1.412   .     A
C495   C1342   1.420   .     S
C496   C1341   1.420   1_554 S
C497   H544    1.084   .     S
C497   O564    1.221   .     D
C498   H516    1.083   .     S
C498   O548    1.221   .     D
C499   H519    1.109   .     S
C499   H517    1.111   .     S
C499   O549    1.411   .     S
C500   H521    1.113   .     S
C500   O550    1.410   .     S
C500   H522    1.109   .     S
C500   H332    1.114   1_655 S
C501   H523    1.110   .     S
C501   O551    1.413   .     S
C501   H524    1.114   .     S
C501   H525    1.109   .     S
C502   H528    1.110   .     S
C502   H527    1.114   .     S
C502   O552    1.412   .     S
C502   H529    1.110   .     S
C503   H532    1.112   .     S
C503   O553    1.418   .     S
C503   H530    1.106   .     S
C503   H531    1.109   .     S
C504   C509    1.388   .     A
C504   H541    1.079   .     S
C505   H535    1.108   .     S
C505   H534    1.113   .     S
C505   O554    1.409   .     S
C506   H536    1.085   .     S
C506   O555    1.218   .     D
C507   H538    1.075   .     S
C507   O556    1.222   .     D
C508   H515    1.083   .     S
C508   C1338   1.398   1_554 S
C509   H526    1.084   .     S
C509   C1340   1.397   .     S
C510   O551    1.389   .     S
C511   O552    1.386   .     S
C511   C754    1.396   .     S
C512   O553    1.385   .     S
C512   C792    1.400   .     S
Cu513  O559    1.963   .     S
Cu513  N545    2.024   .     S
Cu513  O560    1.941   .     S
Cu513  O547    1.963   .     S
Cu513  O563    1.931   .     S
Cu514  N546    2.024   .     S
Cu514  O557    1.963   .     S
Cu514  O562    1.931   .     S
Cu514  O561    1.941   .     S
Cu514  O558    1.963   .     S
Cu514  Cu325   2.694   1_655 S
H518   C311    1.114   1_655 S
H533   C317    1.113   1_655 S
H537   C299    1.084   1_655 S
O550   C297    1.383   1_655 S
O558   C283    1.293   1_655 S
O561   C292    1.296   1_655 S
C565   O641    1.295   .     A
C565   C756    1.446   1_455 S
C565   O840    1.293   1_455 S
C566   O648    1.383   .     S
C566   C756    1.405   1_455 S
C567   C606    1.416   .     A
C567   C576    1.455   .     S
C567   C699    1.407   .     S
C568   C604    1.405   .     A
C568   C659    1.446   .     S
C568   C660    1.405   .     S
C569   C600    1.474   .     S
C569   C571    1.414   .     A
C569   N640    1.391   .     A
C570   N639    1.391   .     A
C570   C601    1.482   .     S
C570   C572    1.420   .     A
C571   H636    1.083   .     S
C571   N639    1.353   .     A
C572   N640    1.354   .     A
C572   H637    1.082   .     S
C573   O656    1.301   .     A
C573   C575    1.467   .     S
C573   O748    1.297   .     S
C574   O657    1.302   .     A
C574   C577    1.465   .     S
C574   O843    1.296   1_455 S
C575   C582    1.405   .     A
C575   C580    1.401   .     A
C576   O651    1.291   .     A
C576   O747    1.302   .     S
C577   C583    1.409   .     A
C577   C581    1.401   .     A
C578   C580    1.406   .     A
C578   C586    1.409   .     A
C578   O737    1.392   .     S
C579   C588    1.408   .     A
C579   C581    1.397   .     A
C579   O832    1.383   1_455 S
C580   H727    1.081   .     S
C581   H819    1.084   1_455 S
C582   C592    1.495   .     S
C582   C584    1.416   .     A
C583   C585    1.416   .     A
C583   C591    1.499   .     S
C584   C589    1.426   .     A
C584   C586    1.421   .     A
C585   C590    1.424   .     A
C585   C588    1.419   .     A
C586   C1448   1.398   .     S
C587   C590    1.410   .     A
C587   H634    1.081   .     S
C587   C602    1.386   .     A
C588   C1449   1.397   1_554 S
C589   C598    1.412   .     A
C589   C1436   1.420   .     S
C590   C1435   1.420   1_554 S
C591   H638    1.084   .     S
C591   O658    1.221   .     D
C592   H610    1.083   .     S
C592   O642    1.221   .     D
C593   H613    1.109   .     S
C593   H611    1.111   .     S
C593   O643    1.411   .     S
C593   H800    1.114   1_455 S
C594   H615    1.113   .     S
C594   O644    1.410   .     S
C594   H616    1.109   .     S
C594   H708    1.114   .     S
C595   H617    1.110   .     S
C595   O645    1.413   .     S
C595   H618    1.114   .     S
C595   H619    1.109   .     S
C596   H622    1.110   .     S
C596   H621    1.114   .     S
C596   O646    1.412   .     S
C596   H623    1.110   .     S
C597   H626    1.112   .     S
C597   O647    1.418   .     S
C597   H624    1.106   .     S
C597   H625    1.109   .     S
C598   C603    1.388   .     A
C598   H635    1.079   .     S
C599   H629    1.108   .     S
C599   H628    1.113   .     S
C599   O648    1.409   .     S
C599   H815    1.113   1_455 S
C600   H630    1.085   .     S
C600   O649    1.218   .     D
C601   H632    1.075   .     S
C601   O650    1.222   .     D
C602   H609    1.083   .     S
C602   C1432   1.398   1_554 S
C603   H620    1.084   .     S
C603   C1434   1.397   .     S
C604   O645    1.389   .     S
C605   O646    1.386   .     S
C605   C2      1.396   1_565 S
C605   C755    1.407   1_455 S
C606   O647    1.385   .     S
C606   C40     1.400   1_565 S
Cu607  O653    1.963   .     S
Cu607  N639    2.024   .     S
Cu607  O654    1.941   .     S
Cu607  O641    1.963   .     S
Cu607  O657    1.931   .     S
Cu607  Cu796   2.694   1_455 S
Cu608  N640    2.024   .     S
Cu608  O651    1.963   .     S
Cu608  O656    1.931   .     S
Cu608  O655    1.941   .     S
Cu608  O652    1.963   .     S
Cu608  Cu701   2.694   .     S
H612   C687    1.114   .     S
H614   C782    1.114   1_455 S
H627   C693    1.113   .     S
H631   C675    1.084   .     S
H633   C768    1.081   1_455 S
O643   C766    1.392   1_455 S
O644   C673    1.383   .     S
O652   C659    1.293   .     S
O653   C764    1.302   1_455 S
O654   C761    1.297   1_455 S
O655   C668    1.296   .     S
C659   O735    1.295   .     A
C660   O742    1.383   .     S
C661   C700    1.416   .     A
C661   C670    1.455   .     S
C661   C793    1.407   .     S
C662   C698    1.405   .     A
C662   C753    1.446   .     S
C662   C754    1.405   .     S
C663   C694    1.474   .     S
C663   C665    1.414   .     A
C663   N734    1.391   .     A
C664   N733    1.391   .     A
C664   C695    1.482   .     S
C664   C666    1.420   .     A
C665   H730    1.083   .     S
C665   N733    1.353   .     A
C666   N734    1.354   .     A
C666   H731    1.082   .     S
C667   O750    1.301   .     A
C667   C669    1.467   .     S
C667   O842    1.297   .     S
C668   O751    1.302   .     A
C668   C671    1.465   .     S
C669   C676    1.405   .     A
C669   C674    1.401   .     A
C670   O745    1.291   .     A
C670   O841    1.302   .     S
C671   C677    1.409   .     A
C671   C675    1.401   .     A
C672   C674    1.406   .     A
C672   C680    1.409   .     A
C672   O831    1.392   .     S
C673   C682    1.408   .     A
C673   C675    1.397   .     A
C674   H821    1.081   .     S
C676   C686    1.495   .     S
C676   C678    1.416   .     A
C677   C679    1.416   .     A
C677   C685    1.499   .     S
C678   C683    1.426   .     A
C678   C680    1.421   .     A
C679   C684    1.424   .     A
C679   C682    1.419   .     A
C680   C1542   1.398   .     S
C681   C684    1.410   .     A
C681   H728    1.081   .     S
C681   C696    1.386   .     A
C682   C1543   1.397   1_554 S
C683   C692    1.412   .     A
C683   C1530   1.420   .     S
C684   C1529   1.420   1_554 S
C685   H732    1.084   .     S
C685   O752    1.221   .     D
C686   H704    1.083   .     S
C686   O736    1.221   .     D
C687   H707    1.109   .     S
C687   H705    1.111   .     S
C687   O737    1.411   .     S
C688   H709    1.113   .     S
C688   O738    1.410   .     S
C688   H710    1.109   .     S
C688   H802    1.114   .     S
C689   H711    1.110   .     S
C689   O739    1.413   .     S
C689   H712    1.114   .     S
C689   H713    1.109   .     S
C690   H716    1.110   .     S
C690   H715    1.114   .     S
C690   O740    1.412   .     S
C690   H717    1.110   .     S
C691   H720    1.112   .     S
C691   O741    1.418   .     S
C691   H718    1.106   .     S
C691   H719    1.109   .     S
C692   C697    1.388   .     A
C692   H729    1.079   .     S
C693   H723    1.108   .     S
C693   H722    1.113   .     S
C693   O742    1.409   .     S
C694   H724    1.085   .     S
C694   O743    1.218   .     D
C695   H726    1.075   .     S
C695   O744    1.222   .     D
C696   H703    1.083   .     S
C696   C1526   1.398   1_554 S
C697   H714    1.084   .     S
C697   C1528   1.397   .     S
C698   O739    1.389   .     S
C699   O740    1.386   .     S
C699   C96     1.396   1_565 S
C700   O741    1.385   .     S
C700   C134    1.400   1_565 S
Cu701  O747    1.963   .     S
Cu701  N733    2.024   .     S
Cu701  O748    1.941   .     S
Cu701  O735    1.963   .     S
Cu701  O751    1.931   .     S
Cu702  N734    2.024   .     S
Cu702  O745    1.963   .     S
Cu702  O750    1.931   .     S
Cu702  O749    1.941   .     S
Cu702  O746    1.963   .     S
Cu702  Cu795   2.694   .     S
H706   C781    1.114   .     S
H721   C787    1.113   .     S
H725   C769    1.084   .     S
O738   C767    1.383   .     S
O746   C753    1.293   .     S
O749   C762    1.296   .     S
C753   O829    1.295   .     A
C754   O836    1.383   .     S
C755   C794    1.416   .     A
C755   C764    1.455   .     S
C755   C605    1.407   1_655 S
C756   C792    1.405   .     A
C756   C565    1.446   1_655 S
C756   C566    1.405   1_655 S
C757   C788    1.474   .     S
C757   C759    1.414   .     A
C757   N828    1.391   .     A
C758   N827    1.391   .     A
C758   C789    1.482   .     S
C758   C760    1.420   .     A
C759   H824    1.083   .     S
C759   N827    1.353   .     A
C760   N828    1.354   .     A
C760   H825    1.082   .     S
C761   O844    1.301   .     A
C761   C763    1.467   .     S
C761   O654    1.297   1_655 S
C762   O845    1.302   .     A
C762   C765    1.465   .     S
C763   C770    1.405   .     A
C763   C768    1.401   .     A
C764   O839    1.291   .     A
C764   O653    1.302   1_655 S
C765   C771    1.409   .     A
C765   C769    1.401   .     A
C766   C768    1.406   .     A
C766   C774    1.409   .     A
C766   O643    1.392   1_655 S
C767   C776    1.408   .     A
C767   C769    1.397   .     A
C768   H633    1.081   1_655 S
C770   C780    1.495   .     S
C770   C772    1.416   .     A
C771   C773    1.416   .     A
C771   C779    1.499   .     S
C772   C777    1.426   .     A
C772   C774    1.421   .     A
C773   C778    1.424   .     A
C773   C776    1.419   .     A
C774   C1636   1.398   .     S
C775   C778    1.410   .     A
C775   H822    1.081   .     S
C775   C790    1.386   .     A
C776   C1637   1.397   1_554 S
C777   C786    1.412   .     A
C777   C1624   1.420   .     S
C778   C1623   1.420   1_554 S
C779   H826    1.084   .     S
C779   O846    1.221   .     D
C780   H798    1.083   .     S
C780   O830    1.221   .     D
C781   H801    1.109   .     S
C781   H799    1.111   .     S
C781   O831    1.411   .     S
C782   H803    1.113   .     S
C782   O832    1.410   .     S
C782   H804    1.109   .     S
C782   H614    1.114   1_655 S
C783   H805    1.110   .     S
C783   O833    1.413   .     S
C783   H806    1.114   .     S
C783   H807    1.109   .     S
C784   H810    1.110   .     S
C784   H809    1.114   .     S
C784   O834    1.412   .     S
C784   H811    1.110   .     S
C785   H814    1.112   .     S
C785   O835    1.418   .     S
C785   H812    1.106   .     S
C785   H813    1.109   .     S
C786   C791    1.388   .     A
C786   H823    1.079   .     S
C787   H817    1.108   .     S
C787   H816    1.113   .     S
C787   O836    1.409   .     S
C788   H818    1.085   .     S
C788   O837    1.218   .     D
C789   H820    1.075   .     S
C789   O838    1.222   .     D
C790   H797    1.083   .     S
C790   C1620   1.398   1_554 S
C791   H808    1.084   .     S
C791   C1622   1.397   .     S
C792   O833    1.389   .     S
C793   O834    1.386   .     S
C793   C190    1.396   1_565 S
C794   O835    1.385   .     S
C794   C228    1.400   1_565 S
Cu795  O841    1.963   .     S
Cu795  N827    2.024   .     S
Cu795  O842    1.941   .     S
Cu795  O829    1.963   .     S
Cu795  O845    1.931   .     S
Cu796  N828    2.024   .     S
Cu796  O839    1.963   .     S
Cu796  O844    1.931   .     S
Cu796  O843    1.941   .     S
Cu796  O840    1.963   .     S
Cu796  Cu607   2.694   1_655 S
H800   C593    1.114   1_655 S
H815   C599    1.113   1_655 S
H819   C581    1.084   1_655 S
O832   C579    1.383   1_655 S
O840   C565    1.293   1_655 S
O843   C574    1.296   1_655 S
C847   O923    1.295   .     A
C847   C1038   1.446   1_455 S
C847   O1122   1.293   1_455 S
C848   O930    1.383   .     S
C848   C1038   1.405   1_455 S
C848   C1451   1.396   1_545 S
C849   C888    1.416   .     A
C849   C858    1.455   .     S
C849   C981    1.407   .     S
C850   C886    1.405   .     A
C850   C941    1.446   .     S
C850   C942    1.405   .     S
C851   C882    1.474   .     S
C851   C853    1.414   .     A
C851   N922    1.391   .     A
C852   N921    1.391   .     A
C852   C883    1.482   .     S
C852   C854    1.420   .     A
C853   H918    1.083   .     S
C853   N921    1.353   .     A
C854   N922    1.354   .     A
C854   H919    1.082   .     S
C855   O938    1.301   .     A
C855   C857    1.467   .     S
C855   O1030   1.297   .     S
C856   O939    1.302   .     A
C856   C859    1.465   .     S
C856   O1125   1.296   1_455 S
C857   C864    1.405   .     A
C857   C862    1.401   .     A
C858   O933    1.291   .     A
C858   O1029   1.302   .     S
C859   C865    1.409   .     A
C859   C863    1.401   .     A
C860   C862    1.406   .     A
C860   C868    1.409   .     A
C860   O1019   1.392   .     S
C861   C870    1.408   .     A
C861   C863    1.397   .     A
C861   O1114   1.383   1_455 S
C862   H1009   1.081   .     S
C863   H1101   1.084   1_455 S
C864   C874    1.495   .     S
C864   C866    1.416   .     A
C865   C867    1.416   .     A
C865   C873    1.499   .     S
C866   C871    1.426   .     A
C866   C868    1.421   .     A
C867   C872    1.424   .     A
C867   C870    1.419   .     A
C868   C38     1.398   1_556 S
C869   C872    1.410   .     A
C869   H916    1.081   .     S
C869   C884    1.386   .     A
C871   C880    1.412   .     A
C871   C26     1.420   1_556 S
C873   H920    1.084   .     S
C873   O940    1.221   .     D
C874   H892    1.083   .     S
C874   O924    1.221   .     D
C875   H895    1.109   .     S
C875   H893    1.111   .     S
C875   O925    1.411   .     S
C875   H1082   1.114   1_455 S
C876   H897    1.113   .     S
C876   O926    1.410   .     S
C876   H898    1.109   .     S
C876   H990    1.114   .     S
C877   H899    1.110   .     S
C877   O927    1.413   .     S
C877   H900    1.114   .     S
C877   H901    1.109   .     S
C878   H904    1.110   .     S
C878   H903    1.114   .     S
C878   O928    1.412   .     S
C878   H905    1.110   .     S
C879   H908    1.112   .     S
C879   O929    1.418   .     S
C879   H906    1.106   .     S
C879   H907    1.109   .     S
C880   C885    1.388   .     A
C880   H917    1.079   .     S
C881   H911    1.108   .     S
C881   H910    1.113   .     S
C881   O930    1.409   .     S
C881   H1097   1.113   1_455 S
C882   H912    1.085   .     S
C882   O931    1.218   .     D
C883   H914    1.075   .     S
C883   O932    1.222   .     D
C884   H891    1.083   .     S
C885   H902    1.084   .     S
C885   C24     1.397   1_556 S
C886   O927    1.389   .     S
C886   C1452   1.400   1_545 S
C887   O928    1.386   .     S
C887   C1130   1.396   .     S
C887   C1037   1.407   1_455 S
C888   O929    1.385   .     S
C888   C1168   1.400   .     S
Cu889  O935    1.963   .     S
Cu889  N921    2.024   .     S
Cu889  O936    1.941   .     S
Cu889  O923    1.963   .     S
Cu889  O939    1.931   .     S
Cu889  Cu1078  2.694   1_455 S
Cu890  N922    2.024   .     S
Cu890  O933    1.963   .     S
Cu890  O938    1.931   .     S
Cu890  O937    1.941   .     S
Cu890  O934    1.963   .     S
Cu890  Cu983   2.694   .     S
H894   C969    1.114   .     S
H896   C1064   1.114   1_455 S
H909   C975    1.113   .     S
H913   C957    1.084   .     S
H915   C1050   1.081   1_455 S
O925   C1048   1.392   1_455 S
O926   C955    1.383   .     S
O934   C941    1.293   .     S
O935   C1046   1.302   1_455 S
O936   C1043   1.297   1_455 S
O937   C950    1.296   .     S
C941   O1017   1.295   .     A
C942   O1024   1.383   .     S
C942   C1545   1.396   1_545 S
C943   C982    1.416   .     A
C943   C952    1.455   .     S
C943   C1075   1.407   .     S
C944   C980    1.405   .     A
C944   C1035   1.446   .     S
C944   C1036   1.405   .     S
C945   C976    1.474   .     S
C945   C947    1.414   .     A
C945   N1016   1.391   .     A
C946   N1015   1.391   .     A
C946   C977    1.482   .     S
C946   C948    1.420   .     A
C947   H1012   1.083   .     S
C947   N1015   1.353   .     A
C948   N1016   1.354   .     A
C948   H1013   1.082   .     S
C949   O1032   1.301   .     A
C949   C951    1.467   .     S
C949   O1124   1.297   .     S
C950   O1033   1.302   .     A
C950   C953    1.465   .     S
C951   C958    1.405   .     A
C951   C956    1.401   .     A
C952   O1027   1.291   .     A
C952   O1123   1.302   .     S
C953   C959    1.409   .     A
C953   C957    1.401   .     A
C954   C956    1.406   .     A
C954   C962    1.409   .     A
C954   O1113   1.392   .     S
C955   C964    1.408   .     A
C955   C957    1.397   .     A
C956   H1103   1.081   .     S
C958   C968    1.495   .     S
C958   C960    1.416   .     A
C959   C961    1.416   .     A
C959   C967    1.499   .     S
C960   C965    1.426   .     A
C960   C962    1.421   .     A
C961   C966    1.424   .     A
C961   C964    1.419   .     A
C962   C132    1.398   1_556 S
C963   C966    1.410   .     A
C963   H1010   1.081   .     S
C963   C978    1.386   .     A
C965   C974    1.412   .     A
C965   C120    1.420   1_556 S
C967   H1014   1.084   .     S
C967   O1034   1.221   .     D
C968   H986    1.083   .     S
C968   O1018   1.221   .     D
C969   H989    1.109   .     S
C969   H987    1.111   .     S
C969   O1019   1.411   .     S
C970   H991    1.113   .     S
C970   O1020   1.410   .     S
C970   H992    1.109   .     S
C970   H1084   1.114   .     S
C971   H993    1.110   .     S
C971   O1021   1.413   .     S
C971   H994    1.114   .     S
C971   H995    1.109   .     S
C972   H998    1.110   .     S
C972   H997    1.114   .     S
C972   O1022   1.412   .     S
C972   H999    1.110   .     S
C973   H1002   1.112   .     S
C973   O1023   1.418   .     S
C973   H1000   1.106   .     S
C973   H1001   1.109   .     S
C974   C979    1.388   .     A
C974   H1011   1.079   .     S
C975   H1005   1.108   .     S
C975   H1004   1.113   .     S
C975   O1024   1.409   .     S
C976   H1006   1.085   .     S
C976   O1025   1.218   .     D
C977   H1008   1.075   .     S
C977   O1026   1.222   .     D
C978   H985    1.083   .     S
C979   H996    1.084   .     S
C979   C118    1.397   1_556 S
C980   O1021   1.389   .     S
C980   C1546   1.400   1_545 S
C981   O1022   1.386   .     S
C981   C1224   1.396   .     S
C982   O1023   1.385   .     S
C982   C1262   1.400   .     S
Cu983  O1029   1.963   .     S
Cu983  N1015   2.024   .     S
Cu983  O1030   1.941   .     S
Cu983  O1017   1.963   .     S
Cu983  O1033   1.931   .     S
Cu984  N1016   2.024   .     S
Cu984  O1027   1.963   .     S
Cu984  O1032   1.931   .     S
Cu984  O1031   1.941   .     S
Cu984  O1028   1.963   .     S
Cu984  Cu1077  2.694   .     S
H988   C1063   1.114   .     S
H1003  C1069   1.113   .     S
H1007  C1051   1.084   .     S
O1020  C1049   1.383   .     S
O1028  C1035   1.293   .     S
O1031  C1044   1.296   .     S
C1035  O1111   1.295   .     A
C1036  O1118   1.383   .     S
C1036  C1639   1.396   1_545 S
C1037  C1076   1.416   .     A
C1037  C1046   1.455   .     S
C1037  C887    1.407   1_655 S
C1038  C1074   1.405   .     A
C1038  C847    1.446   1_655 S
C1038  C848    1.405   1_655 S
C1039  C1070   1.474   .     S
C1039  C1041   1.414   .     A
C1039  N1110   1.391   .     A
C1040  N1109   1.391   .     A
C1040  C1071   1.482   .     S
C1040  C1042   1.420   .     A
C1041  H1106   1.083   .     S
C1041  N1109   1.353   .     A
C1042  N1110   1.354   .     A
C1042  H1107   1.082   .     S
C1043  O1126   1.301   .     A
C1043  C1045   1.467   .     S
C1043  O936    1.297   1_655 S
C1044  O1127   1.302   .     A
C1044  C1047   1.465   .     S
C1045  C1052   1.405   .     A
C1045  C1050   1.401   .     A
C1046  O1121   1.291   .     A
C1046  O935    1.302   1_655 S
C1047  C1053   1.409   .     A
C1047  C1051   1.401   .     A
C1048  C1050   1.406   .     A
C1048  C1056   1.409   .     A
C1048  O925    1.392   1_655 S
C1049  C1058   1.408   .     A
C1049  C1051   1.397   .     A
C1050  H915    1.081   1_655 S
C1052  C1062   1.495   .     S
C1052  C1054   1.416   .     A
C1053  C1055   1.416   .     A
C1053  C1061   1.499   .     S
C1054  C1059   1.426   .     A
C1054  C1056   1.421   .     A
C1055  C1060   1.424   .     A
C1055  C1058   1.419   .     A
C1056  C226    1.398   1_556 S
C1057  C1060   1.410   .     A
C1057  H1104   1.081   .     S
C1057  C1072   1.386   .     A
C1059  C1068   1.412   .     A
C1059  C214    1.420   1_556 S
C1061  H1108   1.084   .     S
C1061  O1128   1.221   .     D
C1062  H1080   1.083   .     S
C1062  O1112   1.221   .     D
C1063  H1083   1.109   .     S
C1063  H1081   1.111   .     S
C1063  O1113   1.411   .     S
C1064  H1085   1.113   .     S
C1064  O1114   1.410   .     S
C1064  H1086   1.109   .     S
C1064  H896    1.114   1_655 S
C1065  H1087   1.110   .     S
C1065  O1115   1.413   .     S
C1065  H1088   1.114   .     S
C1065  H1089   1.109   .     S
C1066  H1092   1.110   .     S
C1066  H1091   1.114   .     S
C1066  O1116   1.412   .     S
C1066  H1093   1.110   .     S
C1067  H1096   1.112   .     S
C1067  O1117   1.418   .     S
C1067  H1094   1.106   .     S
C1067  H1095   1.109   .     S
C1068  C1073   1.388   .     A
C1068  H1105   1.079   .     S
C1069  H1099   1.108   .     S
C1069  H1098   1.113   .     S
C1069  O1118   1.409   .     S
C1070  H1100   1.085   .     S
C1070  O1119   1.218   .     D
C1071  H1102   1.075   .     S
C1071  O1120   1.222   .     D
C1072  H1079   1.083   .     S
C1073  H1090   1.084   .     S
C1073  C212    1.397   1_556 S
C1074  O1115   1.389   .     S
C1074  C1640   1.400   1_545 S
C1075  O1116   1.386   .     S
C1075  C1318   1.396   .     S
C1076  O1117   1.385   .     S
C1076  C1356   1.400   .     S
Cu1077 O1123   1.963   .     S
Cu1077 N1109   2.024   .     S
Cu1077 O1124   1.941   .     S
Cu1077 O1111   1.963   .     S
Cu1077 O1127   1.931   .     S
Cu1078 N1110   2.024   .     S
Cu1078 O1121   1.963   .     S
Cu1078 O1126   1.931   .     S
Cu1078 O1125   1.941   .     S
Cu1078 O1122   1.963   .     S
Cu1078 Cu889   2.694   1_655 S
H1082  C875    1.114   1_655 S
H1097  C881    1.113   1_655 S
H1101  C863    1.084   1_655 S
O1114  C861    1.383   1_655 S
O1122  C847    1.293   1_655 S
O1125  C856    1.296   1_655 S
C1129  O1205   1.295   .     A
C1129  C1320   1.446   1_455 S
C1129  O1404   1.293   1_455 S
C1130  O1212   1.383   .     S
C1130  C1320   1.405   1_455 S
C1131  C1170   1.416   .     A
C1131  C1140   1.455   .     S
C1131  C1263   1.407   .     S
C1132  C1168   1.405   .     A
C1132  C1223   1.446   .     S
C1132  C1224   1.405   .     S
C1133  C1164   1.474   .     S
C1133  C1135   1.414   .     A
C1133  N1204   1.391   .     A
C1134  N1203   1.391   .     A
C1134  C1165   1.482   .     S
C1134  C1136   1.420   .     A
C1135  H1200   1.083   .     S
C1135  N1203   1.353   .     A
C1136  N1204   1.354   .     A
C1136  H1201   1.082   .     S
C1137  O1220   1.301   .     A
C1137  C1139   1.467   .     S
C1137  O1312   1.297   .     S
C1138  O1221   1.302   .     A
C1138  C1141   1.465   .     S
C1138  O1407   1.296   1_455 S
C1139  C1146   1.405   .     A
C1139  C1144   1.401   .     A
C1140  O1215   1.291   .     A
C1140  O1311   1.302   .     S
C1141  C1147   1.409   .     A
C1141  C1145   1.401   .     A
C1142  C1144   1.406   .     A
C1142  C1150   1.409   .     A
C1142  O1301   1.392   .     S
C1143  C1152   1.408   .     A
C1143  C1145   1.397   .     A
C1143  O1396   1.383   1_455 S
C1144  H1291   1.081   .     S
C1145  H1383   1.084   1_455 S
C1146  C1156   1.495   .     S
C1146  C1148   1.416   .     A
C1147  C1149   1.416   .     A
C1147  C1155   1.499   .     S
C1148  C1153   1.426   .     A
C1148  C1150   1.421   .     A
C1149  C1154   1.424   .     A
C1149  C1152   1.419   .     A
C1150  C320    1.398   1_556 S
C1151  C1154   1.410   .     A
C1151  H1198   1.081   .     S
C1151  C1166   1.386   .     A
C1153  C1162   1.412   .     A
C1153  C308    1.420   1_556 S
C1155  H1202   1.084   .     S
C1155  O1222   1.221   .     D
C1156  H1174   1.083   .     S
C1156  O1206   1.221   .     D
C1157  H1177   1.109   .     S
C1157  H1175   1.111   .     S
C1157  O1207   1.411   .     S
C1157  H1364   1.114   1_455 S
C1158  H1179   1.113   .     S
C1158  O1208   1.410   .     S
C1158  H1180   1.109   .     S
C1158  H1272   1.114   .     S
C1159  H1181   1.110   .     S
C1159  O1209   1.413   .     S
C1159  H1182   1.114   .     S
C1159  H1183   1.109   .     S
C1160  H1186   1.110   .     S
C1160  H1185   1.114   .     S
C1160  O1210   1.412   .     S
C1160  H1187   1.110   .     S
C1161  H1190   1.112   .     S
C1161  O1211   1.418   .     S
C1161  H1188   1.106   .     S
C1161  H1189   1.109   .     S
C1162  C1167   1.388   .     A
C1162  H1199   1.079   .     S
C1163  H1193   1.108   .     S
C1163  H1192   1.113   .     S
C1163  O1212   1.409   .     S
C1163  H1379   1.113   1_455 S
C1164  H1194   1.085   .     S
C1164  O1213   1.218   .     D
C1165  H1196   1.075   .     S
C1165  O1214   1.222   .     D
C1166  H1173   1.083   .     S
C1167  H1184   1.084   .     S
C1167  C306    1.397   1_556 S
C1168  O1209   1.389   .     S
C1169  O1210   1.386   .     S
C1169  C1412   1.396   .     S
C1169  C1319   1.407   1_455 S
C1170  O1211   1.385   .     S
C1170  C1450   1.400   .     S
Cu1171 O1217   1.963   .     S
Cu1171 N1203   2.024   .     S
Cu1171 O1218   1.941   .     S
Cu1171 O1205   1.963   .     S
Cu1171 O1221   1.931   .     S
Cu1171 Cu1360  2.694   1_455 S
Cu1172 N1204   2.024   .     S
Cu1172 O1215   1.963   .     S
Cu1172 O1220   1.931   .     S
Cu1172 O1219   1.941   .     S
Cu1172 O1216   1.963   .     S
Cu1172 Cu1265  2.694   .     S
H1176  C1251   1.114   .     S
H1178  C1346   1.114   1_455 S
H1191  C1257   1.113   .     S
H1195  C1239   1.084   .     S
H1197  C1332   1.081   1_455 S
O1207  C1330   1.392   1_455 S
O1208  C1237   1.383   .     S
O1216  C1223   1.293   .     S
O1217  C1328   1.302   1_455 S
O1218  C1325   1.297   1_455 S
O1219  C1232   1.296   .     S
C1223  O1299   1.295   .     A
C1224  O1306   1.383   .     S
C1225  C1264   1.416   .     A
C1225  C1234   1.455   .     S
C1225  C1357   1.407   .     S
C1226  C1262   1.405   .     A
C1226  C1317   1.446   .     S
C1226  C1318   1.405   .     S
C1227  C1258   1.474   .     S
C1227  C1229   1.414   .     A
C1227  N1298   1.391   .     A
C1228  N1297   1.391   .     A
C1228  C1259   1.482   .     S
C1228  C1230   1.420   .     A
C1229  H1294   1.083   .     S
C1229  N1297   1.353   .     A
C1230  N1298   1.354   .     A
C1230  H1295   1.082   .     S
C1231  O1314   1.301   .     A
C1231  C1233   1.467   .     S
C1231  O1406   1.297   .     S
C1232  O1315   1.302   .     A
C1232  C1235   1.465   .     S
C1233  C1240   1.405   .     A
C1233  C1238   1.401   .     A
C1234  O1309   1.291   .     A
C1234  O1405   1.302   .     S
C1235  C1241   1.409   .     A
C1235  C1239   1.401   .     A
C1236  C1238   1.406   .     A
C1236  C1244   1.409   .     A
C1236  O1395   1.392   .     S
C1237  C1246   1.408   .     A
C1237  C1239   1.397   .     A
C1238  H1385   1.081   .     S
C1240  C1250   1.495   .     S
C1240  C1242   1.416   .     A
C1241  C1243   1.416   .     A
C1241  C1249   1.499   .     S
C1242  C1247   1.426   .     A
C1242  C1244   1.421   .     A
C1243  C1248   1.424   .     A
C1243  C1246   1.419   .     A
C1244  C414    1.398   1_556 S
C1245  C1248   1.410   .     A
C1245  H1292   1.081   .     S
C1245  C1260   1.386   .     A
C1247  C1256   1.412   .     A
C1247  C402    1.420   1_556 S
C1249  H1296   1.084   .     S
C1249  O1316   1.221   .     D
C1250  H1268   1.083   .     S
C1250  O1300   1.221   .     D
C1251  H1271   1.109   .     S
C1251  H1269   1.111   .     S
C1251  O1301   1.411   .     S
C1252  H1273   1.113   .     S
C1252  O1302   1.410   .     S
C1252  H1274   1.109   .     S
C1252  H1366   1.114   .     S
C1253  H1275   1.110   .     S
C1253  O1303   1.413   .     S
C1253  H1276   1.114   .     S
C1253  H1277   1.109   .     S
C1254  H1280   1.110   .     S
C1254  H1279   1.114   .     S
C1254  O1304   1.412   .     S
C1254  H1281   1.110   .     S
C1255  H1284   1.112   .     S
C1255  O1305   1.418   .     S
C1255  H1282   1.106   .     S
C1255  H1283   1.109   .     S
C1256  C1261   1.388   .     A
C1256  H1293   1.079   .     S
C1257  H1287   1.108   .     S
C1257  H1286   1.113   .     S
C1257  O1306   1.409   .     S
C1258  H1288   1.085   .     S
C1258  O1307   1.218   .     D
C1259  H1290   1.075   .     S
C1259  O1308   1.222   .     D
C1260  H1267   1.083   .     S
C1261  H1278   1.084   .     S
C1261  C400    1.397   1_556 S
C1262  O1303   1.389   .     S
C1263  O1304   1.386   .     S
C1263  C1506   1.396   .     S
C1264  O1305   1.385   .     S
C1264  C1544   1.400   .     S
Cu1265 O1311   1.963   .     S
Cu1265 N1297   2.024   .     S
Cu1265 O1312   1.941   .     S
Cu1265 O1299   1.963   .     S
Cu1265 O1315   1.931   .     S
Cu1266 N1298   2.024   .     S
Cu1266 O1309   1.963   .     S
Cu1266 O1314   1.931   .     S
Cu1266 O1313   1.941   .     S
Cu1266 O1310   1.963   .     S
Cu1266 Cu1359  2.694   .     S
H1270  C1345   1.114   .     S
H1285  C1351   1.113   .     S
H1289  C1333   1.084   .     S
O1302  C1331   1.383   .     S
O1310  C1317   1.293   .     S
O1313  C1326   1.296   .     S
C1317  O1393   1.295   .     A
C1318  O1400   1.383   .     S
C1319  C1358   1.416   .     A
C1319  C1328   1.455   .     S
C1319  C1169   1.407   1_655 S
C1320  C1356   1.405   .     A
C1320  C1129   1.446   1_655 S
C1320  C1130   1.405   1_655 S
C1321  C1352   1.474   .     S
C1321  C1323   1.414   .     A
C1321  N1392   1.391   .     A
C1322  N1391   1.391   .     A
C1322  C1353   1.482   .     S
C1322  C1324   1.420   .     A
C1323  H1388   1.083   .     S
C1323  N1391   1.353   .     A
C1324  N1392   1.354   .     A
C1324  H1389   1.082   .     S
C1325  O1408   1.301   .     A
C1325  C1327   1.467   .     S
C1325  O1218   1.297   1_655 S
C1326  O1409   1.302   .     A
C1326  C1329   1.465   .     S
C1327  C1334   1.405   .     A
C1327  C1332   1.401   .     A
C1328  O1403   1.291   .     A
C1328  O1217   1.302   1_655 S
C1329  C1335   1.409   .     A
C1329  C1333   1.401   .     A
C1330  C1332   1.406   .     A
C1330  C1338   1.409   .     A
C1330  O1207   1.392   1_655 S
C1331  C1340   1.408   .     A
C1331  C1333   1.397   .     A
C1332  H1197   1.081   1_655 S
C1334  C1344   1.495   .     S
C1334  C1336   1.416   .     A
C1335  C1337   1.416   .     A
C1335  C1343   1.499   .     S
C1336  C1341   1.426   .     A
C1336  C1338   1.421   .     A
C1337  C1342   1.424   .     A
C1337  C1340   1.419   .     A
C1338  C508    1.398   1_556 S
C1339  C1342   1.410   .     A
C1339  H1386   1.081   .     S
C1339  C1354   1.386   .     A
C1341  C1350   1.412   .     A
C1341  C496    1.420   1_556 S
C1343  H1390   1.084   .     S
C1343  O1410   1.221   .     D
C1344  H1362   1.083   .     S
C1344  O1394   1.221   .     D
C1345  H1365   1.109   .     S
C1345  H1363   1.111   .     S
C1345  O1395   1.411   .     S
C1346  H1367   1.113   .     S
C1346  O1396   1.410   .     S
C1346  H1368   1.109   .     S
C1346  H1178   1.114   1_655 S
C1347  H1369   1.110   .     S
C1347  O1397   1.413   .     S
C1347  H1370   1.114   .     S
C1347  H1371   1.109   .     S
C1348  H1374   1.110   .     S
C1348  H1373   1.114   .     S
C1348  O1398   1.412   .     S
C1348  H1375   1.110   .     S
C1349  H1378   1.112   .     S
C1349  O1399   1.418   .     S
C1349  H1376   1.106   .     S
C1349  H1377   1.109   .     S
C1350  C1355   1.388   .     A
C1350  H1387   1.079   .     S
C1351  H1381   1.108   .     S
C1351  H1380   1.113   .     S
C1351  O1400   1.409   .     S
C1352  H1382   1.085   .     S
C1352  O1401   1.218   .     D
C1353  H1384   1.075   .     S
C1353  O1402   1.222   .     D
C1354  H1361   1.083   .     S
C1355  H1372   1.084   .     S
C1355  C494    1.397   1_556 S
C1356  O1397   1.389   .     S
C1357  O1398   1.386   .     S
C1357  C1600   1.396   .     S
C1358  O1399   1.385   .     S
C1358  C1638   1.400   .     S
Cu1359 O1405   1.963   .     S
Cu1359 N1391   2.024   .     S
Cu1359 O1406   1.941   .     S
Cu1359 O1393   1.963   .     S
Cu1359 O1409   1.931   .     S
Cu1360 N1392   2.024   .     S
Cu1360 O1403   1.963   .     S
Cu1360 O1408   1.931   .     S
Cu1360 O1407   1.941   .     S
Cu1360 O1404   1.963   .     S
Cu1360 Cu1171  2.694   1_655 S
H1364  C1157   1.114   1_655 S
H1379  C1163   1.113   1_655 S
H1383  C1145   1.084   1_655 S
O1396  C1143   1.383   1_655 S
O1404  C1129   1.293   1_655 S
O1407  C1138   1.296   1_655 S
C1411  O1487   1.295   .     A
C1411  C1602   1.446   1_455 S
C1411  O1686   1.293   1_455 S
C1412  O1494   1.383   .     S
C1412  C1602   1.405   1_455 S
C1413  C1452   1.416   .     A
C1413  C1422   1.455   .     S
C1413  C1545   1.407   .     S
C1414  C1450   1.405   .     A
C1414  C1505   1.446   .     S
C1414  C1506   1.405   .     S
C1415  C1446   1.474   .     S
C1415  C1417   1.414   .     A
C1415  N1486   1.391   .     A
C1416  N1485   1.391   .     A
C1416  C1447   1.482   .     S
C1416  C1418   1.420   .     A
C1417  H1482   1.083   .     S
C1417  N1485   1.353   .     A
C1418  N1486   1.354   .     A
C1418  H1483   1.082   .     S
C1419  O1502   1.301   .     A
C1419  C1421   1.467   .     S
C1419  O1594   1.297   .     S
C1420  O1503   1.302   .     A
C1420  C1423   1.465   .     S
C1420  O1689   1.296   1_455 S
C1421  C1428   1.405   .     A
C1421  C1426   1.401   .     A
C1422  O1497   1.291   .     A
C1422  O1593   1.302   .     S
C1423  C1429   1.409   .     A
C1423  C1427   1.401   .     A
C1424  C1426   1.406   .     A
C1424  C1432   1.409   .     A
C1424  O1583   1.392   .     S
C1425  C1434   1.408   .     A
C1425  C1427   1.397   .     A
C1425  O1678   1.383   1_455 S
C1426  H1573   1.081   .     S
C1427  H1665   1.084   1_455 S
C1428  C1438   1.495   .     S
C1428  C1430   1.416   .     A
C1429  C1431   1.416   .     A
C1429  C1437   1.499   .     S
C1430  C1435   1.426   .     A
C1430  C1432   1.421   .     A
C1431  C1436   1.424   .     A
C1431  C1434   1.419   .     A
C1432  C602    1.398   1_556 S
C1433  C1436   1.410   .     A
C1433  H1480   1.081   .     S
C1433  C1448   1.386   .     A
C1435  C1444   1.412   .     A
C1435  C590    1.420   1_556 S
C1437  H1484   1.084   .     S
C1437  O1504   1.221   .     D
C1438  H1456   1.083   .     S
C1438  O1488   1.221   .     D
C1439  H1459   1.109   .     S
C1439  H1457   1.111   .     S
C1439  O1489   1.411   .     S
C1439  H1646   1.114   1_455 S
C1440  H1461   1.113   .     S
C1440  O1490   1.410   .     S
C1440  H1462   1.109   .     S
C1440  H1554   1.114   .     S
C1441  H1463   1.110   .     S
C1441  O1491   1.413   .     S
C1441  H1464   1.114   .     S
C1441  H1465   1.109   .     S
C1442  H1468   1.110   .     S
C1442  H1467   1.114   .     S
C1442  O1492   1.412   .     S
C1442  H1469   1.110   .     S
C1443  H1472   1.112   .     S
C1443  O1493   1.418   .     S
C1443  H1470   1.106   .     S
C1443  H1471   1.109   .     S
C1444  C1449   1.388   .     A
C1444  H1481   1.079   .     S
C1445  H1475   1.108   .     S
C1445  H1474   1.113   .     S
C1445  O1494   1.409   .     S
C1445  H1661   1.113   1_455 S
C1446  H1476   1.085   .     S
C1446  O1495   1.218   .     D
C1447  H1478   1.075   .     S
C1447  O1496   1.222   .     D
C1448  H1455   1.083   .     S
C1449  H1466   1.084   .     S
C1449  C588    1.397   1_556 S
C1450  O1491   1.389   .     S
C1451  O1492   1.386   .     S
C1451  C848    1.396   1_565 S
C1451  C1601   1.407   1_455 S
C1452  O1493   1.385   .     S
C1452  C886    1.400   1_565 S
Cu1453 O1499   1.963   .     S
Cu1453 N1485   2.024   .     S
Cu1453 O1500   1.941   .     S
Cu1453 O1487   1.963   .     S
Cu1453 O1503   1.931   .     S
Cu1453 Cu1642  2.694   1_455 S
Cu1454 N1486   2.024   .     S
Cu1454 O1497   1.963   .     S
Cu1454 O1502   1.931   .     S
Cu1454 O1501   1.941   .     S
Cu1454 O1498   1.963   .     S
Cu1454 Cu1547  2.694   .     S
H1458  C1533   1.114   .     S
H1460  C1628   1.114   1_455 S
H1473  C1539   1.113   .     S
H1477  C1521   1.084   .     S
H1479  C1614   1.081   1_455 S
O1489  C1612   1.392   1_455 S
O1490  C1519   1.383   .     S
O1498  C1505   1.293   .     S
O1499  C1610   1.302   1_455 S
O1500  C1607   1.297   1_455 S
O1501  C1514   1.296   .     S
C1505  O1581   1.295   .     A
C1506  O1588   1.383   .     S
C1507  C1546   1.416   .     A
C1507  C1516   1.455   .     S
C1507  C1639   1.407   .     S
C1508  C1544   1.405   .     A
C1508  C1599   1.446   .     S
C1508  C1600   1.405   .     S
C1509  C1540   1.474   .     S
C1509  C1511   1.414   .     A
C1509  N1580   1.391   .     A
C1510  N1579   1.391   .     A
C1510  C1541   1.482   .     S
C1510  C1512   1.420   .     A
C1511  H1576   1.083   .     S
C1511  N1579   1.353   .     A
C1512  N1580   1.354   .     A
C1512  H1577   1.082   .     S
C1513  O1596   1.301   .     A
C1513  C1515   1.467   .     S
C1513  O1688   1.297   .     S
C1514  O1597   1.302   .     A
C1514  C1517   1.465   .     S
C1515  C1522   1.405   .     A
C1515  C1520   1.401   .     A
C1516  O1591   1.291   .     A
C1516  O1687   1.302   .     S
C1517  C1523   1.409   .     A
C1517  C1521   1.401   .     A
C1518  C1520   1.406   .     A
C1518  C1526   1.409   .     A
C1518  O1677   1.392   .     S
C1519  C1528   1.408   .     A
C1519  C1521   1.397   .     A
C1520  H1667   1.081   .     S
C1522  C1532   1.495   .     S
C1522  C1524   1.416   .     A
C1523  C1525   1.416   .     A
C1523  C1531   1.499   .     S
C1524  C1529   1.426   .     A
C1524  C1526   1.421   .     A
C1525  C1530   1.424   .     A
C1525  C1528   1.419   .     A
C1526  C696    1.398   1_556 S
C1527  C1530   1.410   .     A
C1527  H1574   1.081   .     S
C1527  C1542   1.386   .     A
C1529  C1538   1.412   .     A
C1529  C684    1.420   1_556 S
C1531  H1578   1.084   .     S
C1531  O1598   1.221   .     D
C1532  H1550   1.083   .     S
C1532  O1582   1.221   .     D
C1533  H1553   1.109   .     S
C1533  H1551   1.111   .     S
C1533  O1583   1.411   .     S
C1534  H1555   1.113   .     S
C1534  O1584   1.410   .     S
C1534  H1556   1.109   .     S
C1534  H1648   1.114   .     S
C1535  H1557   1.110   .     S
C1535  O1585   1.413   .     S
C1535  H1558   1.114   .     S
C1535  H1559   1.109   .     S
C1536  H1562   1.110   .     S
C1536  H1561   1.114   .     S
C1536  O1586   1.412   .     S
C1536  H1563   1.110   .     S
C1537  H1566   1.112   .     S
C1537  O1587   1.418   .     S
C1537  H1564   1.106   .     S
C1537  H1565   1.109   .     S
C1538  C1543   1.388   .     A
C1538  H1575   1.079   .     S
C1539  H1569   1.108   .     S
C1539  H1568   1.113   .     S
C1539  O1588   1.409   .     S
C1540  H1570   1.085   .     S
C1540  O1589   1.218   .     D
C1541  H1572   1.075   .     S
C1541  O1590   1.222   .     D
C1542  H1549   1.083   .     S
C1543  H1560   1.084   .     S
C1543  C682    1.397   1_556 S
C1544  O1585   1.389   .     S
C1545  O1586   1.386   .     S
C1545  C942    1.396   1_565 S
C1546  O1587   1.385   .     S
C1546  C980    1.400   1_565 S
Cu1547 O1593   1.963   .     S
Cu1547 N1579   2.024   .     S
Cu1547 O1594   1.941   .     S
Cu1547 O1581   1.963   .     S
Cu1547 O1597   1.931   .     S
Cu1548 N1580   2.024   .     S
Cu1548 O1591   1.963   .     S
Cu1548 O1596   1.931   .     S
Cu1548 O1595   1.941   .     S
Cu1548 O1592   1.963   .     S
Cu1548 Cu1641  2.694   .     S
H1552  C1627   1.114   .     S
H1567  C1633   1.113   .     S
H1571  C1615   1.084   .     S
O1584  C1613   1.383   .     S
O1592  C1599   1.293   .     S
O1595  C1608   1.296   .     S
C1599  O1675   1.295   .     A
C1600  O1682   1.383   .     S
C1601  C1640   1.416   .     A
C1601  C1610   1.455   .     S
C1601  C1451   1.407   1_655 S
C1602  C1638   1.405   .     A
C1602  C1411   1.446   1_655 S
C1602  C1412   1.405   1_655 S
C1603  C1634   1.474   .     S
C1603  C1605   1.414   .     A
C1603  N1674   1.391   .     A
C1604  N1673   1.391   .     A
C1604  C1635   1.482   .     S
C1604  C1606   1.420   .     A
C1605  H1670   1.083   .     S
C1605  N1673   1.353   .     A
C1606  N1674   1.354   .     A
C1606  H1671   1.082   .     S
C1607  O1690   1.301   .     A
C1607  C1609   1.467   .     S
C1607  O1500   1.297   1_655 S
C1608  O1691   1.302   .     A
C1608  C1611   1.465   .     S
C1609  C1616   1.405   .     A
C1609  C1614   1.401   .     A
C1610  O1685   1.291   .     A
C1610  O1499   1.302   1_655 S
C1611  C1617   1.409   .     A
C1611  C1615   1.401   .     A
C1612  C1614   1.406   .     A
C1612  C1620   1.409   .     A
C1612  O1489   1.392   1_655 S
C1613  C1622   1.408   .     A
C1613  C1615   1.397   .     A
C1614  H1479   1.081   1_655 S
C1616  C1626   1.495   .     S
C1616  C1618   1.416   .     A
C1617  C1619   1.416   .     A
C1617  C1625   1.499   .     S
C1618  C1623   1.426   .     A
C1618  C1620   1.421   .     A
C1619  C1624   1.424   .     A
C1619  C1622   1.419   .     A
C1620  C790    1.398   1_556 S
C1621  C1624   1.410   .     A
C1621  H1668   1.081   .     S
C1621  C1636   1.386   .     A
C1623  C1632   1.412   .     A
C1623  C778    1.420   1_556 S
C1625  H1672   1.084   .     S
C1625  O1692   1.221   .     D
C1626  H1644   1.083   .     S
C1626  O1676   1.221   .     D
C1627  H1647   1.109   .     S
C1627  H1645   1.111   .     S
C1627  O1677   1.411   .     S
C1628  H1649   1.113   .     S
C1628  O1678   1.410   .     S
C1628  H1650   1.109   .     S
C1628  H1460   1.114   1_655 S
C1629  H1651   1.110   .     S
C1629  O1679   1.413   .     S
C1629  H1652   1.114   .     S
C1629  H1653   1.109   .     S
C1630  H1656   1.110   .     S
C1630  H1655   1.114   .     S
C1630  O1680   1.412   .     S
C1630  H1657   1.110   .     S
C1631  H1660   1.112   .     S
C1631  O1681   1.418   .     S
C1631  H1658   1.106   .     S
C1631  H1659   1.109   .     S
C1632  C1637   1.388   .     A
C1632  H1669   1.079   .     S
C1633  H1663   1.108   .     S
C1633  H1662   1.113   .     S
C1633  O1682   1.409   .     S
C1634  H1664   1.085   .     S
C1634  O1683   1.218   .     D
C1635  H1666   1.075   .     S
C1635  O1684   1.222   .     D
C1636  H1643   1.083   .     S
C1637  H1654   1.084   .     S
C1637  C776    1.397   1_556 S
C1638  O1679   1.389   .     S
C1639  O1680   1.386   .     S
C1639  C1036   1.396   1_565 S
C1640  O1681   1.385   .     S
C1640  C1074   1.400   1_565 S
Cu1641 O1687   1.963   .     S
Cu1641 N1673   2.024   .     S
Cu1641 O1688   1.941   .     S
Cu1641 O1675   1.963   .     S
Cu1641 O1691   1.931   .     S
Cu1642 N1674   2.024   .     S
Cu1642 O1685   1.963   .     S
Cu1642 O1690   1.931   .     S
Cu1642 O1689   1.941   .     S
Cu1642 O1686   1.963   .     S
Cu1642 Cu1453  2.694   1_655 S
H1646  C1439   1.114   1_655 S
H1661  C1445   1.113   1_655 S
H1665  C1427   1.084   1_655 S
O1678  C1425   1.383   1_655 S
O1686  C1411   1.293   1_655 S
O1689  C1420   1.296   1_655 S
