data_str_m2_o1_o10_pcu_sym.50
_audit_creation_date              2020-01-03
_audit_creation_method            'Materials Studio'
_symmetry_space_group_name_H-M    'P1'
_symmetry_Int_Tables_number       1
_symmetry_cell_setting            triclinic
loop_
_symmetry_equiv_pos_as_xyz
  x,y,z
_cell_length_a                    26.5485
_cell_length_b                    32.2569
_cell_length_c                    28.7843
_cell_angle_alpha                 89.8363
_cell_angle_beta                  97.8448
_cell_angle_gamma                 91.9235
loop_
_atom_site_label
_atom_site_type_symbol
_atom_site_fract_x
_atom_site_fract_y
_atom_site_fract_z
_atom_site_U_iso_or_equiv
_atom_site_adp_type
_atom_site_occupancy
C1     C     0.16575   0.08758   0.16662   0.00000  Uiso   1.00
C2     C     0.21273   0.02358   0.17457   0.00000  Uiso   1.00
C3     C     0.16757   0.29042   0.16641   0.00000  Uiso   1.00
C4     C     0.16577   0.04292   0.16693   0.00000  Uiso   1.00
C5     C     0.13507   0.13998   0.02086   0.00000  Uiso   1.00
C6     C     0.19826   0.19335   0.31248   0.00000  Uiso   1.00
C7     C     0.13513   0.13997   0.30465   0.00000  Uiso   1.00
C8     C     0.19820   0.19336   0.02869   0.00000  Uiso   1.00
C9     C     0.32346   0.14597   0.10351   0.00000  Uiso   1.00
C10    C     0.00987   0.18737   0.22983   0.00000  Uiso   1.00
C11    C     0.07122   0.03969   0.15457   0.00000  Uiso   1.00
C12    C     0.16759   0.24575   0.16671   0.00000  Uiso   1.00
C13    C     0.26212   0.29364   0.17876   0.00000  Uiso   1.00
C14    C     0.05931   0.28042   0.10488   0.00000  Uiso   1.00
C15    C     0.27404   0.05293   0.22842   0.00000  Uiso   1.00
C16    C     0.10151   0.11119   0.04114   0.00000  Uiso   1.00
C17    C     0.23183   0.22214   0.29219   0.00000  Uiso   1.00
C18    C     0.10165   0.11123   0.27597   0.00000  Uiso   1.00
C19    C     0.23168   0.22211   0.05737   0.00000  Uiso   1.00
C20    C     0.06823   0.16630   0.15480   0.00000  Uiso   1.00
C21    C     0.26511   0.16703   0.17854   0.00000  Uiso   1.00
C22    C     0.01339   0.16244   0.14871   0.00000  Uiso   1.00
C23    C     0.31995   0.17089   0.18462   0.00000  Uiso   1.00
C24    C     0.11961   0.01966   0.15998   0.00000  Uiso   1.00
C25    C     0.21372   0.31367   0.17335   0.00000  Uiso   1.00
C26    C     0.12060   0.30975   0.15876   0.00000  Uiso   1.00
Cu27   Cu    0.16667   0.16667   0.21355   0.00000  Uiso   1.00
Cu28   Cu    0.16667   0.16666   0.11978   0.00000  Uiso   1.00
H29    H     0.04410   0.30956   0.08871   0.00000  Uiso   1.00
H30    H     0.08994   0.26920   0.08572   0.00000  Uiso   1.00
H31    H     0.02814   0.25645   0.10061   0.00000  Uiso   1.00
H32    H     0.24340   0.06405   0.24763   0.00000  Uiso   1.00
H33    H     0.28939   0.02382   0.24455   0.00000  Uiso   1.00
H34    H     0.30513   0.07698   0.23268   0.00000  Uiso   1.00
N35    N     0.16668   0.16668   0.28403   0.00000  Uiso   1.00
N36    N     0.25869   0.24539   0.07989   0.00000  Uiso   1.00
N37    N     0.16665   0.16666   0.04931   0.00000  Uiso   1.00
N38    N     0.30510   0.13285   0.06752   0.00000  Uiso   1.00
N39    N     0.02824   0.20048   0.26581   0.00000  Uiso   1.00
N40    N     0.03243   0.05558   0.15019   0.00000  Uiso   1.00
N41    N     0.30091   0.27776   0.18315   0.00000  Uiso   1.00
N42    N     0.07444   0.08778   0.05676   0.00000  Uiso   1.00
N43    N     0.25889   0.24555   0.27657   0.00000  Uiso   1.00
N44    N     0.07463   0.08796   0.25345   0.00000  Uiso   1.00
O45    O     0.16666   0.10655   0.20625   0.00000  Uiso   1.00
O46    O     0.25756   0.04737   0.18006   0.00000  Uiso   1.00
O47    O     0.16667   0.22678   0.12709   0.00000  Uiso   1.00
O48    O     0.16666   0.10654   0.12706   0.00000  Uiso   1.00
O49    O     0.16667   0.22679   0.20628   0.00000  Uiso   1.00
O50    O     0.09161   0.16667   0.19712   0.00000  Uiso   1.00
O51    O     0.24172   0.16666   0.13621   0.00000  Uiso   1.00
O52    O     0.09161   0.16666   0.11793   0.00000  Uiso   1.00
O53    O     0.24172   0.16667   0.21540   0.00000  Uiso   1.00
O54    O     0.07577   0.28597   0.15324   0.00000  Uiso   1.00
C55    C     0.49908   0.08758   0.16662   0.00000  Uiso   1.00
C56    C     0.54606   0.02358   0.17457   0.00000  Uiso   1.00
C57    C     0.50090   0.29042   0.16641   0.00000  Uiso   1.00
C58    C     0.49910   0.04292   0.16693   0.00000  Uiso   1.00
C59    C     0.46840   0.13998   0.02086   0.00000  Uiso   1.00
C60    C     0.53160   0.19335   0.31248   0.00000  Uiso   1.00
C61    C     0.46846   0.13997   0.30465   0.00000  Uiso   1.00
C62    C     0.53154   0.19336   0.02869   0.00000  Uiso   1.00
C63    C     0.65680   0.14597   0.10351   0.00000  Uiso   1.00
C64    C     0.34320   0.18737   0.22983   0.00000  Uiso   1.00
C65    C     0.40455   0.03969   0.15457   0.00000  Uiso   1.00
C66    C     0.50092   0.24575   0.16671   0.00000  Uiso   1.00
C67    C     0.59545   0.29364   0.17876   0.00000  Uiso   1.00
C68    C     0.39264   0.28042   0.10488   0.00000  Uiso   1.00
C69    C     0.60738   0.05293   0.22842   0.00000  Uiso   1.00
C70    C     0.43484   0.11119   0.04114   0.00000  Uiso   1.00
C71    C     0.56516   0.22214   0.29219   0.00000  Uiso   1.00
C72    C     0.43498   0.11123   0.27597   0.00000  Uiso   1.00
C73    C     0.56501   0.22211   0.05737   0.00000  Uiso   1.00
C74    C     0.40156   0.16630   0.15480   0.00000  Uiso   1.00
C75    C     0.59844   0.16703   0.17854   0.00000  Uiso   1.00
C76    C     0.34672   0.16244   0.14871   0.00000  Uiso   1.00
C77    C     0.65328   0.17089   0.18462   0.00000  Uiso   1.00
C78    C     0.45295   0.01966   0.15998   0.00000  Uiso   1.00
C79    C     0.54705   0.31367   0.17335   0.00000  Uiso   1.00
C80    C     0.45394   0.30975   0.15876   0.00000  Uiso   1.00
Cu81   Cu    0.50000   0.16667   0.21355   0.00000  Uiso   1.00
Cu82   Cu    0.50000   0.16666   0.11978   0.00000  Uiso   1.00
H83    H     0.37743   0.30956   0.08871   0.00000  Uiso   1.00
H84    H     0.42327   0.26920   0.08572   0.00000  Uiso   1.00
H85    H     0.36147   0.25645   0.10061   0.00000  Uiso   1.00
H86    H     0.57673   0.06405   0.24763   0.00000  Uiso   1.00
H87    H     0.62272   0.02382   0.24455   0.00000  Uiso   1.00
H88    H     0.63846   0.07698   0.23268   0.00000  Uiso   1.00
N89    N     0.50001   0.16668   0.28403   0.00000  Uiso   1.00
N90    N     0.59202   0.24539   0.07989   0.00000  Uiso   1.00
N91    N     0.49999   0.16666   0.04931   0.00000  Uiso   1.00
N92    N     0.63843   0.13285   0.06752   0.00000  Uiso   1.00
N93    N     0.36157   0.20048   0.26581   0.00000  Uiso   1.00
N94    N     0.36576   0.05558   0.15019   0.00000  Uiso   1.00
N95    N     0.63424   0.27776   0.18315   0.00000  Uiso   1.00
N96    N     0.40778   0.08778   0.05676   0.00000  Uiso   1.00
N97    N     0.59223   0.24555   0.27657   0.00000  Uiso   1.00
N98    N     0.40797   0.08796   0.25345   0.00000  Uiso   1.00
O99    O     0.50000   0.10655   0.20625   0.00000  Uiso   1.00
O100   O     0.59090   0.04737   0.18006   0.00000  Uiso   1.00
O101   O     0.50000   0.22678   0.12709   0.00000  Uiso   1.00
O102   O     0.50000   0.10654   0.12706   0.00000  Uiso   1.00
O103   O     0.50000   0.22679   0.20628   0.00000  Uiso   1.00
O104   O     0.42495   0.16667   0.19712   0.00000  Uiso   1.00
O105   O     0.57505   0.16666   0.13621   0.00000  Uiso   1.00
O106   O     0.42494   0.16666   0.11793   0.00000  Uiso   1.00
O107   O     0.57506   0.16667   0.21540   0.00000  Uiso   1.00
O108   O     0.40910   0.28597   0.15324   0.00000  Uiso   1.00
C109   C     0.83241   0.08758   0.16662   0.00000  Uiso   1.00
C110   C     0.87940   0.02358   0.17457   0.00000  Uiso   1.00
C111   C     0.83423   0.29042   0.16641   0.00000  Uiso   1.00
C112   C     0.83243   0.04292   0.16693   0.00000  Uiso   1.00
C113   C     0.80174   0.13998   0.02086   0.00000  Uiso   1.00
C114   C     0.86493   0.19335   0.31248   0.00000  Uiso   1.00
C115   C     0.80180   0.13997   0.30465   0.00000  Uiso   1.00
C116   C     0.86487   0.19336   0.02869   0.00000  Uiso   1.00
C117   C     0.99013   0.14597   0.10351   0.00000  Uiso   1.00
C118   C     0.67654   0.18737   0.22983   0.00000  Uiso   1.00
C119   C     0.73788   0.03969   0.15457   0.00000  Uiso   1.00
C120   C     0.83425   0.24575   0.16671   0.00000  Uiso   1.00
C121   C     0.92878   0.29364   0.17876   0.00000  Uiso   1.00
C122   C     0.72598   0.28042   0.10488   0.00000  Uiso   1.00
C123   C     0.94071   0.05293   0.22842   0.00000  Uiso   1.00
C124   C     0.76817   0.11119   0.04114   0.00000  Uiso   1.00
C125   C     0.89850   0.22214   0.29219   0.00000  Uiso   1.00
C126   C     0.76831   0.11123   0.27597   0.00000  Uiso   1.00
C127   C     0.89835   0.22211   0.05737   0.00000  Uiso   1.00
C128   C     0.73489   0.16630   0.15480   0.00000  Uiso   1.00
C129   C     0.93177   0.16703   0.17854   0.00000  Uiso   1.00
C130   C     0.68005   0.16244   0.14871   0.00000  Uiso   1.00
C131   C     0.98661   0.17089   0.18462   0.00000  Uiso   1.00
C132   C     0.78628   0.01966   0.15998   0.00000  Uiso   1.00
C133   C     0.88039   0.31367   0.17335   0.00000  Uiso   1.00
C134   C     0.78727   0.30975   0.15876   0.00000  Uiso   1.00
Cu135  Cu    0.83333   0.16667   0.21355   0.00000  Uiso   1.00
Cu136  Cu    0.83333   0.16666   0.11978   0.00000  Uiso   1.00
H137   H     0.71076   0.30956   0.08871   0.00000  Uiso   1.00
H138   H     0.75660   0.26920   0.08572   0.00000  Uiso   1.00
H139   H     0.69480   0.25645   0.10061   0.00000  Uiso   1.00
H140   H     0.91007   0.06405   0.24763   0.00000  Uiso   1.00
H141   H     0.95605   0.02382   0.24455   0.00000  Uiso   1.00
H142   H     0.97179   0.07698   0.23268   0.00000  Uiso   1.00
N143   N     0.83335   0.16668   0.28403   0.00000  Uiso   1.00
N144   N     0.92535   0.24539   0.07989   0.00000  Uiso   1.00
N145   N     0.83332   0.16666   0.04931   0.00000  Uiso   1.00
N146   N     0.97176   0.13285   0.06752   0.00000  Uiso   1.00
N147   N     0.69490   0.20048   0.26581   0.00000  Uiso   1.00
N148   N     0.69909   0.05558   0.15019   0.00000  Uiso   1.00
N149   N     0.96757   0.27776   0.18315   0.00000  Uiso   1.00
N150   N     0.74111   0.08778   0.05676   0.00000  Uiso   1.00
N151   N     0.92556   0.24555   0.27657   0.00000  Uiso   1.00
N152   N     0.74130   0.08796   0.25345   0.00000  Uiso   1.00
O153   O     0.83333   0.10655   0.20625   0.00000  Uiso   1.00
O154   O     0.92423   0.04737   0.18006   0.00000  Uiso   1.00
O155   O     0.83334   0.22678   0.12709   0.00000  Uiso   1.00
O156   O     0.83333   0.10654   0.12706   0.00000  Uiso   1.00
O157   O     0.83334   0.22679   0.20628   0.00000  Uiso   1.00
O158   O     0.75828   0.16667   0.19712   0.00000  Uiso   1.00
O159   O     0.90839   0.16666   0.13621   0.00000  Uiso   1.00
O160   O     0.75828   0.16666   0.11793   0.00000  Uiso   1.00
O161   O     0.90839   0.16667   0.21540   0.00000  Uiso   1.00
O162   O     0.74243   0.28597   0.15324   0.00000  Uiso   1.00
C163   C     0.16575   0.42091   0.16662   0.00000  Uiso   1.00
C164   C     0.21273   0.35691   0.17457   0.00000  Uiso   1.00
C165   C     0.16757   0.62375   0.16641   0.00000  Uiso   1.00
C166   C     0.16577   0.37625   0.16693   0.00000  Uiso   1.00
C167   C     0.13507   0.47332   0.02086   0.00000  Uiso   1.00
C168   C     0.19826   0.52668   0.31248   0.00000  Uiso   1.00
C169   C     0.13513   0.47330   0.30465   0.00000  Uiso   1.00
C170   C     0.19820   0.52670   0.02869   0.00000  Uiso   1.00
C171   C     0.32346   0.47930   0.10351   0.00000  Uiso   1.00
C172   C     0.00987   0.52070   0.22983   0.00000  Uiso   1.00
C173   C     0.07122   0.37303   0.15457   0.00000  Uiso   1.00
C174   C     0.16759   0.57909   0.16671   0.00000  Uiso   1.00
C175   C     0.26212   0.62697   0.17876   0.00000  Uiso   1.00
C176   C     0.05931   0.61375   0.10488   0.00000  Uiso   1.00
C177   C     0.27404   0.38626   0.22842   0.00000  Uiso   1.00
C178   C     0.10151   0.44452   0.04114   0.00000  Uiso   1.00
C179   C     0.23183   0.55547   0.29219   0.00000  Uiso   1.00
C180   C     0.10165   0.44456   0.27597   0.00000  Uiso   1.00
C181   C     0.23168   0.55544   0.05737   0.00000  Uiso   1.00
C182   C     0.06823   0.49963   0.15480   0.00000  Uiso   1.00
C183   C     0.26511   0.50037   0.17854   0.00000  Uiso   1.00
C184   C     0.01339   0.49578   0.14871   0.00000  Uiso   1.00
C185   C     0.31995   0.50422   0.18462   0.00000  Uiso   1.00
C186   C     0.11961   0.35300   0.15998   0.00000  Uiso   1.00
C187   C     0.21372   0.64700   0.17335   0.00000  Uiso   1.00
C188   C     0.12060   0.64309   0.15876   0.00000  Uiso   1.00
Cu189  Cu    0.16667   0.50001   0.21355   0.00000  Uiso   1.00
Cu190  Cu    0.16667   0.49999   0.11978   0.00000  Uiso   1.00
H191   H     0.04410   0.64290   0.08871   0.00000  Uiso   1.00
H192   H     0.08994   0.60253   0.08572   0.00000  Uiso   1.00
H193   H     0.02814   0.58978   0.10061   0.00000  Uiso   1.00
H194   H     0.24340   0.39738   0.24763   0.00000  Uiso   1.00
H195   H     0.28939   0.35715   0.24455   0.00000  Uiso   1.00
H196   H     0.30513   0.41031   0.23268   0.00000  Uiso   1.00
N197   N     0.16668   0.50001   0.28403   0.00000  Uiso   1.00
N198   N     0.25869   0.57872   0.07989   0.00000  Uiso   1.00
N199   N     0.16665   0.49999   0.04931   0.00000  Uiso   1.00
N200   N     0.30510   0.46618   0.06752   0.00000  Uiso   1.00
N201   N     0.02824   0.53382   0.26581   0.00000  Uiso   1.00
N202   N     0.03243   0.38891   0.15019   0.00000  Uiso   1.00
N203   N     0.30091   0.61109   0.18315   0.00000  Uiso   1.00
N204   N     0.07444   0.42112   0.05676   0.00000  Uiso   1.00
N205   N     0.25889   0.57888   0.27657   0.00000  Uiso   1.00
N206   N     0.07463   0.42129   0.25345   0.00000  Uiso   1.00
O207   O     0.16666   0.43989   0.20625   0.00000  Uiso   1.00
O208   O     0.25756   0.38070   0.18006   0.00000  Uiso   1.00
O209   O     0.16667   0.56011   0.12709   0.00000  Uiso   1.00
O210   O     0.16666   0.43988   0.12706   0.00000  Uiso   1.00
O211   O     0.16667   0.56012   0.20628   0.00000  Uiso   1.00
O212   O     0.09161   0.50000   0.19712   0.00000  Uiso   1.00
O213   O     0.24172   0.50000   0.13621   0.00000  Uiso   1.00
O214   O     0.09161   0.49999   0.11793   0.00000  Uiso   1.00
O215   O     0.24172   0.50001   0.21540   0.00000  Uiso   1.00
O216   O     0.07577   0.61930   0.15324   0.00000  Uiso   1.00
C217   C     0.49908   0.42091   0.16662   0.00000  Uiso   1.00
C218   C     0.54606   0.35691   0.17457   0.00000  Uiso   1.00
C219   C     0.50090   0.62375   0.16641   0.00000  Uiso   1.00
C220   C     0.49910   0.37625   0.16693   0.00000  Uiso   1.00
C221   C     0.46840   0.47332   0.02086   0.00000  Uiso   1.00
C222   C     0.53160   0.52668   0.31248   0.00000  Uiso   1.00
C223   C     0.46846   0.47330   0.30465   0.00000  Uiso   1.00
C224   C     0.53154   0.52670   0.02869   0.00000  Uiso   1.00
C225   C     0.65680   0.47930   0.10351   0.00000  Uiso   1.00
C226   C     0.34320   0.52070   0.22983   0.00000  Uiso   1.00
C227   C     0.40455   0.37303   0.15457   0.00000  Uiso   1.00
C228   C     0.50092   0.57909   0.16671   0.00000  Uiso   1.00
C229   C     0.59545   0.62697   0.17876   0.00000  Uiso   1.00
C230   C     0.39264   0.61375   0.10488   0.00000  Uiso   1.00
C231   C     0.60738   0.38626   0.22842   0.00000  Uiso   1.00
C232   C     0.43484   0.44452   0.04114   0.00000  Uiso   1.00
C233   C     0.56516   0.55547   0.29219   0.00000  Uiso   1.00
C234   C     0.43498   0.44456   0.27597   0.00000  Uiso   1.00
C235   C     0.56501   0.55544   0.05737   0.00000  Uiso   1.00
C236   C     0.40156   0.49963   0.15480   0.00000  Uiso   1.00
C237   C     0.59844   0.50037   0.17854   0.00000  Uiso   1.00
C238   C     0.34672   0.49578   0.14871   0.00000  Uiso   1.00
C239   C     0.65328   0.50422   0.18462   0.00000  Uiso   1.00
C240   C     0.45295   0.35300   0.15998   0.00000  Uiso   1.00
C241   C     0.54705   0.64700   0.17335   0.00000  Uiso   1.00
C242   C     0.45394   0.64309   0.15876   0.00000  Uiso   1.00
Cu243  Cu    0.50000   0.50001   0.21355   0.00000  Uiso   1.00
Cu244  Cu    0.50000   0.49999   0.11978   0.00000  Uiso   1.00
H245   H     0.37743   0.64290   0.08871   0.00000  Uiso   1.00
H246   H     0.42327   0.60253   0.08572   0.00000  Uiso   1.00
H247   H     0.36147   0.58978   0.10061   0.00000  Uiso   1.00
H248   H     0.57673   0.39738   0.24763   0.00000  Uiso   1.00
H249   H     0.62272   0.35715   0.24455   0.00000  Uiso   1.00
H250   H     0.63846   0.41031   0.23268   0.00000  Uiso   1.00
N251   N     0.50001   0.50001   0.28403   0.00000  Uiso   1.00
N252   N     0.59202   0.57872   0.07989   0.00000  Uiso   1.00
N253   N     0.49999   0.49999   0.04931   0.00000  Uiso   1.00
N254   N     0.63843   0.46618   0.06752   0.00000  Uiso   1.00
N255   N     0.36157   0.53382   0.26581   0.00000  Uiso   1.00
N256   N     0.36576   0.38891   0.15019   0.00000  Uiso   1.00
N257   N     0.63424   0.61109   0.18315   0.00000  Uiso   1.00
N258   N     0.40778   0.42112   0.05676   0.00000  Uiso   1.00
N259   N     0.59223   0.57888   0.27657   0.00000  Uiso   1.00
N260   N     0.40797   0.42129   0.25345   0.00000  Uiso   1.00
O261   O     0.50000   0.43989   0.20625   0.00000  Uiso   1.00
O262   O     0.59090   0.38070   0.18006   0.00000  Uiso   1.00
O263   O     0.50000   0.56011   0.12709   0.00000  Uiso   1.00
O264   O     0.50000   0.43988   0.12706   0.00000  Uiso   1.00
O265   O     0.50000   0.56012   0.20628   0.00000  Uiso   1.00
O266   O     0.42495   0.50000   0.19712   0.00000  Uiso   1.00
O267   O     0.57505   0.50000   0.13621   0.00000  Uiso   1.00
O268   O     0.42494   0.49999   0.11793   0.00000  Uiso   1.00
O269   O     0.57506   0.50001   0.21540   0.00000  Uiso   1.00
O270   O     0.40910   0.61930   0.15324   0.00000  Uiso   1.00
C271   C     0.83241   0.42091   0.16662   0.00000  Uiso   1.00
C272   C     0.87940   0.35691   0.17457   0.00000  Uiso   1.00
C273   C     0.83423   0.62375   0.16641   0.00000  Uiso   1.00
C274   C     0.83243   0.37625   0.16693   0.00000  Uiso   1.00
C275   C     0.80174   0.47332   0.02086   0.00000  Uiso   1.00
C276   C     0.86493   0.52668   0.31248   0.00000  Uiso   1.00
C277   C     0.80180   0.47330   0.30465   0.00000  Uiso   1.00
C278   C     0.86487   0.52670   0.02869   0.00000  Uiso   1.00
C279   C     0.99013   0.47930   0.10351   0.00000  Uiso   1.00
C280   C     0.67654   0.52070   0.22983   0.00000  Uiso   1.00
C281   C     0.73788   0.37303   0.15457   0.00000  Uiso   1.00
C282   C     0.83425   0.57909   0.16671   0.00000  Uiso   1.00
C283   C     0.92878   0.62697   0.17876   0.00000  Uiso   1.00
C284   C     0.72598   0.61375   0.10488   0.00000  Uiso   1.00
C285   C     0.94071   0.38626   0.22842   0.00000  Uiso   1.00
C286   C     0.76817   0.44452   0.04114   0.00000  Uiso   1.00
C287   C     0.89850   0.55547   0.29219   0.00000  Uiso   1.00
C288   C     0.76831   0.44456   0.27597   0.00000  Uiso   1.00
C289   C     0.89835   0.55544   0.05737   0.00000  Uiso   1.00
C290   C     0.73489   0.49963   0.15480   0.00000  Uiso   1.00
C291   C     0.93177   0.50037   0.17854   0.00000  Uiso   1.00
C292   C     0.68005   0.49578   0.14871   0.00000  Uiso   1.00
C293   C     0.98661   0.50422   0.18462   0.00000  Uiso   1.00
C294   C     0.78628   0.35300   0.15998   0.00000  Uiso   1.00
C295   C     0.88039   0.64700   0.17335   0.00000  Uiso   1.00
C296   C     0.78727   0.64309   0.15876   0.00000  Uiso   1.00
Cu297  Cu    0.83333   0.50001   0.21355   0.00000  Uiso   1.00
Cu298  Cu    0.83333   0.49999   0.11978   0.00000  Uiso   1.00
H299   H     0.71076   0.64290   0.08871   0.00000  Uiso   1.00
H300   H     0.75660   0.60253   0.08572   0.00000  Uiso   1.00
H301   H     0.69480   0.58978   0.10061   0.00000  Uiso   1.00
H302   H     0.91007   0.39738   0.24763   0.00000  Uiso   1.00
H303   H     0.95605   0.35715   0.24455   0.00000  Uiso   1.00
H304   H     0.97179   0.41031   0.23268   0.00000  Uiso   1.00
N305   N     0.83335   0.50001   0.28403   0.00000  Uiso   1.00
N306   N     0.92535   0.57872   0.07989   0.00000  Uiso   1.00
N307   N     0.83332   0.49999   0.04931   0.00000  Uiso   1.00
N308   N     0.97176   0.46618   0.06752   0.00000  Uiso   1.00
N309   N     0.69490   0.53382   0.26581   0.00000  Uiso   1.00
N310   N     0.69909   0.38891   0.15019   0.00000  Uiso   1.00
N311   N     0.96757   0.61109   0.18315   0.00000  Uiso   1.00
N312   N     0.74111   0.42112   0.05676   0.00000  Uiso   1.00
N313   N     0.92556   0.57888   0.27657   0.00000  Uiso   1.00
N314   N     0.74130   0.42129   0.25345   0.00000  Uiso   1.00
O315   O     0.83333   0.43989   0.20625   0.00000  Uiso   1.00
O316   O     0.92423   0.38070   0.18006   0.00000  Uiso   1.00
O317   O     0.83334   0.56011   0.12709   0.00000  Uiso   1.00
O318   O     0.83333   0.43988   0.12706   0.00000  Uiso   1.00
O319   O     0.83334   0.56012   0.20628   0.00000  Uiso   1.00
O320   O     0.75828   0.50000   0.19712   0.00000  Uiso   1.00
O321   O     0.90839   0.50000   0.13621   0.00000  Uiso   1.00
O322   O     0.75828   0.49999   0.11793   0.00000  Uiso   1.00
O323   O     0.90839   0.50001   0.21540   0.00000  Uiso   1.00
O324   O     0.74243   0.61930   0.15324   0.00000  Uiso   1.00
C325   C     0.16575   0.75425   0.16662   0.00000  Uiso   1.00
C326   C     0.21273   0.69025   0.17457   0.00000  Uiso   1.00
C327   C     0.16757   0.95708   0.16641   0.00000  Uiso   1.00
C328   C     0.16577   0.70958   0.16693   0.00000  Uiso   1.00
C329   C     0.13507   0.80665   0.02086   0.00000  Uiso   1.00
C330   C     0.19826   0.86002   0.31248   0.00000  Uiso   1.00
C331   C     0.13513   0.80664   0.30465   0.00000  Uiso   1.00
C332   C     0.19820   0.86003   0.02869   0.00000  Uiso   1.00
C333   C     0.32346   0.81263   0.10351   0.00000  Uiso   1.00
C334   C     0.00987   0.85404   0.22983   0.00000  Uiso   1.00
C335   C     0.07122   0.70636   0.15457   0.00000  Uiso   1.00
C336   C     0.16759   0.91242   0.16671   0.00000  Uiso   1.00
C337   C     0.26212   0.96031   0.17876   0.00000  Uiso   1.00
C338   C     0.05931   0.94708   0.10488   0.00000  Uiso   1.00
C339   C     0.27404   0.71960   0.22842   0.00000  Uiso   1.00
C340   C     0.10151   0.77786   0.04114   0.00000  Uiso   1.00
C341   C     0.23183   0.88881   0.29219   0.00000  Uiso   1.00
C342   C     0.10165   0.77789   0.27597   0.00000  Uiso   1.00
C343   C     0.23168   0.88878   0.05737   0.00000  Uiso   1.00
C344   C     0.06823   0.83297   0.15480   0.00000  Uiso   1.00
C345   C     0.26511   0.83370   0.17854   0.00000  Uiso   1.00
C346   C     0.01339   0.82911   0.14871   0.00000  Uiso   1.00
C347   C     0.31995   0.83756   0.18462   0.00000  Uiso   1.00
C348   C     0.11961   0.68633   0.15998   0.00000  Uiso   1.00
C349   C     0.21372   0.98034   0.17335   0.00000  Uiso   1.00
C350   C     0.12060   0.97642   0.15876   0.00000  Uiso   1.00
Cu351  Cu    0.16667   0.83334   0.21355   0.00000  Uiso   1.00
Cu352  Cu    0.16667   0.83333   0.11978   0.00000  Uiso   1.00
H353   H     0.04410   0.97623   0.08871   0.00000  Uiso   1.00
H354   H     0.08994   0.93587   0.08572   0.00000  Uiso   1.00
H355   H     0.02814   0.92311   0.10061   0.00000  Uiso   1.00
H356   H     0.24340   0.73072   0.24763   0.00000  Uiso   1.00
H357   H     0.28939   0.69048   0.24455   0.00000  Uiso   1.00
H358   H     0.30513   0.74365   0.23268   0.00000  Uiso   1.00
N359   N     0.16668   0.83334   0.28403   0.00000  Uiso   1.00
N360   N     0.25869   0.91205   0.07989   0.00000  Uiso   1.00
N361   N     0.16665   0.83332   0.04931   0.00000  Uiso   1.00
N362   N     0.30510   0.79952   0.06752   0.00000  Uiso   1.00
N363   N     0.02824   0.86715   0.26581   0.00000  Uiso   1.00
N364   N     0.03243   0.72224   0.15019   0.00000  Uiso   1.00
N365   N     0.30091   0.94442   0.18315   0.00000  Uiso   1.00
N366   N     0.07444   0.75445   0.05676   0.00000  Uiso   1.00
N367   N     0.25889   0.91222   0.27657   0.00000  Uiso   1.00
N368   N     0.07463   0.75462   0.25345   0.00000  Uiso   1.00
O369   O     0.16666   0.77322   0.20625   0.00000  Uiso   1.00
O370   O     0.25756   0.71403   0.18006   0.00000  Uiso   1.00
O371   O     0.16667   0.89345   0.12709   0.00000  Uiso   1.00
O372   O     0.16666   0.77321   0.12706   0.00000  Uiso   1.00
O373   O     0.16667   0.89346   0.20628   0.00000  Uiso   1.00
O374   O     0.09161   0.83334   0.19712   0.00000  Uiso   1.00
O375   O     0.24172   0.83333   0.13621   0.00000  Uiso   1.00
O376   O     0.09161   0.83333   0.11793   0.00000  Uiso   1.00
O377   O     0.24172   0.83334   0.21540   0.00000  Uiso   1.00
O378   O     0.07577   0.95264   0.15324   0.00000  Uiso   1.00
C379   C     0.49908   0.75425   0.16662   0.00000  Uiso   1.00
C380   C     0.54606   0.69025   0.17457   0.00000  Uiso   1.00
C381   C     0.50090   0.95708   0.16641   0.00000  Uiso   1.00
C382   C     0.49910   0.70958   0.16693   0.00000  Uiso   1.00
C383   C     0.46840   0.80665   0.02086   0.00000  Uiso   1.00
C384   C     0.53160   0.86002   0.31248   0.00000  Uiso   1.00
C385   C     0.46846   0.80664   0.30465   0.00000  Uiso   1.00
C386   C     0.53154   0.86003   0.02869   0.00000  Uiso   1.00
C387   C     0.65680   0.81263   0.10351   0.00000  Uiso   1.00
C388   C     0.34320   0.85404   0.22983   0.00000  Uiso   1.00
C389   C     0.40455   0.70636   0.15457   0.00000  Uiso   1.00
C390   C     0.50092   0.91242   0.16671   0.00000  Uiso   1.00
C391   C     0.59545   0.96031   0.17876   0.00000  Uiso   1.00
C392   C     0.39264   0.94708   0.10488   0.00000  Uiso   1.00
C393   C     0.60738   0.71960   0.22842   0.00000  Uiso   1.00
C394   C     0.43484   0.77786   0.04114   0.00000  Uiso   1.00
C395   C     0.56516   0.88881   0.29219   0.00000  Uiso   1.00
C396   C     0.43498   0.77789   0.27597   0.00000  Uiso   1.00
C397   C     0.56501   0.88878   0.05737   0.00000  Uiso   1.00
C398   C     0.40156   0.83297   0.15480   0.00000  Uiso   1.00
C399   C     0.59844   0.83370   0.17854   0.00000  Uiso   1.00
C400   C     0.34672   0.82911   0.14871   0.00000  Uiso   1.00
C401   C     0.65328   0.83756   0.18462   0.00000  Uiso   1.00
C402   C     0.45295   0.68633   0.15998   0.00000  Uiso   1.00
C403   C     0.54705   0.98034   0.17335   0.00000  Uiso   1.00
C404   C     0.45394   0.97642   0.15876   0.00000  Uiso   1.00
Cu405  Cu    0.50000   0.83334   0.21355   0.00000  Uiso   1.00
Cu406  Cu    0.50000   0.83333   0.11978   0.00000  Uiso   1.00
H407   H     0.37743   0.97623   0.08871   0.00000  Uiso   1.00
H408   H     0.42327   0.93587   0.08572   0.00000  Uiso   1.00
H409   H     0.36147   0.92311   0.10061   0.00000  Uiso   1.00
H410   H     0.57673   0.73072   0.24763   0.00000  Uiso   1.00
H411   H     0.62272   0.69048   0.24455   0.00000  Uiso   1.00
H412   H     0.63846   0.74365   0.23268   0.00000  Uiso   1.00
N413   N     0.50001   0.83334   0.28403   0.00000  Uiso   1.00
N414   N     0.59202   0.91205   0.07989   0.00000  Uiso   1.00
N415   N     0.49999   0.83332   0.04931   0.00000  Uiso   1.00
N416   N     0.63843   0.79952   0.06752   0.00000  Uiso   1.00
N417   N     0.36157   0.86715   0.26581   0.00000  Uiso   1.00
N418   N     0.36576   0.72224   0.15019   0.00000  Uiso   1.00
N419   N     0.63424   0.94442   0.18315   0.00000  Uiso   1.00
N420   N     0.40778   0.75445   0.05676   0.00000  Uiso   1.00
N421   N     0.59223   0.91222   0.27657   0.00000  Uiso   1.00
N422   N     0.40797   0.75462   0.25345   0.00000  Uiso   1.00
O423   O     0.50000   0.77322   0.20625   0.00000  Uiso   1.00
O424   O     0.59090   0.71403   0.18006   0.00000  Uiso   1.00
O425   O     0.50000   0.89345   0.12709   0.00000  Uiso   1.00
O426   O     0.50000   0.77321   0.12706   0.00000  Uiso   1.00
O427   O     0.50000   0.89346   0.20628   0.00000  Uiso   1.00
O428   O     0.42495   0.83334   0.19712   0.00000  Uiso   1.00
O429   O     0.57505   0.83333   0.13621   0.00000  Uiso   1.00
O430   O     0.42494   0.83333   0.11793   0.00000  Uiso   1.00
O431   O     0.57506   0.83334   0.21540   0.00000  Uiso   1.00
O432   O     0.40910   0.95264   0.15324   0.00000  Uiso   1.00
C433   C     0.83241   0.75425   0.16662   0.00000  Uiso   1.00
C434   C     0.87940   0.69025   0.17457   0.00000  Uiso   1.00
C435   C     0.83423   0.95708   0.16641   0.00000  Uiso   1.00
C436   C     0.83243   0.70958   0.16693   0.00000  Uiso   1.00
C437   C     0.80174   0.80665   0.02086   0.00000  Uiso   1.00
C438   C     0.86493   0.86002   0.31248   0.00000  Uiso   1.00
C439   C     0.80180   0.80664   0.30465   0.00000  Uiso   1.00
C440   C     0.86487   0.86003   0.02869   0.00000  Uiso   1.00
C441   C     0.99013   0.81263   0.10351   0.00000  Uiso   1.00
C442   C     0.67654   0.85404   0.22983   0.00000  Uiso   1.00
C443   C     0.73788   0.70636   0.15457   0.00000  Uiso   1.00
C444   C     0.83425   0.91242   0.16671   0.00000  Uiso   1.00
C445   C     0.92878   0.96031   0.17876   0.00000  Uiso   1.00
C446   C     0.72598   0.94708   0.10488   0.00000  Uiso   1.00
C447   C     0.94071   0.71960   0.22842   0.00000  Uiso   1.00
C448   C     0.76817   0.77786   0.04114   0.00000  Uiso   1.00
C449   C     0.89850   0.88881   0.29219   0.00000  Uiso   1.00
C450   C     0.76831   0.77789   0.27597   0.00000  Uiso   1.00
C451   C     0.89835   0.88878   0.05737   0.00000  Uiso   1.00
C452   C     0.73489   0.83297   0.15480   0.00000  Uiso   1.00
C453   C     0.93177   0.83370   0.17854   0.00000  Uiso   1.00
C454   C     0.68005   0.82911   0.14871   0.00000  Uiso   1.00
C455   C     0.98661   0.83756   0.18462   0.00000  Uiso   1.00
C456   C     0.78628   0.68633   0.15998   0.00000  Uiso   1.00
C457   C     0.88039   0.98034   0.17335   0.00000  Uiso   1.00
C458   C     0.78727   0.97642   0.15876   0.00000  Uiso   1.00
Cu459  Cu    0.83333   0.83334   0.21355   0.00000  Uiso   1.00
Cu460  Cu    0.83333   0.83333   0.11978   0.00000  Uiso   1.00
H461   H     0.71076   0.97623   0.08871   0.00000  Uiso   1.00
H462   H     0.75660   0.93587   0.08572   0.00000  Uiso   1.00
H463   H     0.69480   0.92311   0.10061   0.00000  Uiso   1.00
H464   H     0.91007   0.73072   0.24763   0.00000  Uiso   1.00
H465   H     0.95605   0.69048   0.24455   0.00000  Uiso   1.00
H466   H     0.97179   0.74365   0.23268   0.00000  Uiso   1.00
N467   N     0.83335   0.83334   0.28403   0.00000  Uiso   1.00
N468   N     0.92535   0.91205   0.07989   0.00000  Uiso   1.00
N469   N     0.83332   0.83332   0.04931   0.00000  Uiso   1.00
N470   N     0.97176   0.79952   0.06752   0.00000  Uiso   1.00
N471   N     0.69490   0.86715   0.26581   0.00000  Uiso   1.00
N472   N     0.69909   0.72224   0.15019   0.00000  Uiso   1.00
N473   N     0.96757   0.94442   0.18315   0.00000  Uiso   1.00
N474   N     0.74111   0.75445   0.05676   0.00000  Uiso   1.00
N475   N     0.92556   0.91222   0.27657   0.00000  Uiso   1.00
N476   N     0.74130   0.75462   0.25345   0.00000  Uiso   1.00
O477   O     0.83333   0.77322   0.20625   0.00000  Uiso   1.00
O478   O     0.92423   0.71403   0.18006   0.00000  Uiso   1.00
O479   O     0.83334   0.89345   0.12709   0.00000  Uiso   1.00
O480   O     0.83333   0.77321   0.12706   0.00000  Uiso   1.00
O481   O     0.83334   0.89346   0.20628   0.00000  Uiso   1.00
O482   O     0.75828   0.83334   0.19712   0.00000  Uiso   1.00
O483   O     0.90839   0.83333   0.13621   0.00000  Uiso   1.00
O484   O     0.75828   0.83333   0.11793   0.00000  Uiso   1.00
O485   O     0.90839   0.83334   0.21540   0.00000  Uiso   1.00
O486   O     0.74243   0.95264   0.15324   0.00000  Uiso   1.00
C487   C     0.16575   0.08758   0.49996   0.00000  Uiso   1.00
C488   C     0.21273   0.02358   0.50790   0.00000  Uiso   1.00
C489   C     0.16757   0.29042   0.49974   0.00000  Uiso   1.00
C490   C     0.16577   0.04292   0.50026   0.00000  Uiso   1.00
C491   C     0.13507   0.13998   0.35419   0.00000  Uiso   1.00
C492   C     0.19826   0.19335   0.64581   0.00000  Uiso   1.00
C493   C     0.13513   0.13997   0.63798   0.00000  Uiso   1.00
C494   C     0.19820   0.19336   0.36202   0.00000  Uiso   1.00
C495   C     0.32346   0.14597   0.43684   0.00000  Uiso   1.00
C496   C     0.00987   0.18737   0.56316   0.00000  Uiso   1.00
C497   C     0.07122   0.03969   0.48791   0.00000  Uiso   1.00
C498   C     0.16759   0.24575   0.50004   0.00000  Uiso   1.00
C499   C     0.26212   0.29364   0.51210   0.00000  Uiso   1.00
C500   C     0.05931   0.28042   0.43821   0.00000  Uiso   1.00
C501   C     0.27404   0.05293   0.56176   0.00000  Uiso   1.00
C502   C     0.10151   0.11119   0.37448   0.00000  Uiso   1.00
C503   C     0.23183   0.22214   0.62552   0.00000  Uiso   1.00
C504   C     0.10165   0.11123   0.60930   0.00000  Uiso   1.00
C505   C     0.23168   0.22211   0.39070   0.00000  Uiso   1.00
C506   C     0.06823   0.16630   0.48813   0.00000  Uiso   1.00
C507   C     0.26511   0.16703   0.51187   0.00000  Uiso   1.00
C508   C     0.01339   0.16244   0.48205   0.00000  Uiso   1.00
C509   C     0.31995   0.17089   0.51795   0.00000  Uiso   1.00
C510   C     0.11961   0.01966   0.49332   0.00000  Uiso   1.00
C511   C     0.21372   0.31367   0.50668   0.00000  Uiso   1.00
C512   C     0.12060   0.30975   0.49209   0.00000  Uiso   1.00
Cu513  Cu    0.16667   0.16667   0.54689   0.00000  Uiso   1.00
Cu514  Cu    0.16667   0.16666   0.45311   0.00000  Uiso   1.00
H515   H     0.04410   0.30956   0.42205   0.00000  Uiso   1.00
H516   H     0.08994   0.26920   0.41905   0.00000  Uiso   1.00
H517   H     0.02814   0.25645   0.43394   0.00000  Uiso   1.00
H518   H     0.24340   0.06405   0.58096   0.00000  Uiso   1.00
H519   H     0.28939   0.02382   0.57789   0.00000  Uiso   1.00
H520   H     0.30513   0.07698   0.56601   0.00000  Uiso   1.00
N521   N     0.16668   0.16668   0.61736   0.00000  Uiso   1.00
N522   N     0.25869   0.24539   0.41322   0.00000  Uiso   1.00
N523   N     0.16665   0.16666   0.38264   0.00000  Uiso   1.00
N524   N     0.30510   0.13285   0.40086   0.00000  Uiso   1.00
N525   N     0.02824   0.20048   0.59914   0.00000  Uiso   1.00
N526   N     0.03243   0.05558   0.48352   0.00000  Uiso   1.00
N527   N     0.30091   0.27776   0.51648   0.00000  Uiso   1.00
N528   N     0.07444   0.08778   0.39010   0.00000  Uiso   1.00
N529   N     0.25889   0.24555   0.60991   0.00000  Uiso   1.00
N530   N     0.07463   0.08796   0.58678   0.00000  Uiso   1.00
O531   O     0.16666   0.10655   0.53958   0.00000  Uiso   1.00
O532   O     0.25756   0.04737   0.51340   0.00000  Uiso   1.00
O533   O     0.16667   0.22678   0.46042   0.00000  Uiso   1.00
O534   O     0.16666   0.10654   0.46039   0.00000  Uiso   1.00
O535   O     0.16667   0.22679   0.53961   0.00000  Uiso   1.00
O536   O     0.09161   0.16667   0.53046   0.00000  Uiso   1.00
O537   O     0.24172   0.16666   0.46954   0.00000  Uiso   1.00
O538   O     0.09161   0.16666   0.45127   0.00000  Uiso   1.00
O539   O     0.24172   0.16667   0.54873   0.00000  Uiso   1.00
O540   O     0.07577   0.28597   0.48658   0.00000  Uiso   1.00
C541   C     0.49908   0.08758   0.49996   0.00000  Uiso   1.00
C542   C     0.54606   0.02358   0.50790   0.00000  Uiso   1.00
C543   C     0.50090   0.29042   0.49974   0.00000  Uiso   1.00
C544   C     0.49910   0.04292   0.50026   0.00000  Uiso   1.00
C545   C     0.46840   0.13998   0.35419   0.00000  Uiso   1.00
C546   C     0.53160   0.19335   0.64581   0.00000  Uiso   1.00
C547   C     0.46846   0.13997   0.63798   0.00000  Uiso   1.00
C548   C     0.53154   0.19336   0.36202   0.00000  Uiso   1.00
C549   C     0.65680   0.14597   0.43684   0.00000  Uiso   1.00
C550   C     0.34320   0.18737   0.56316   0.00000  Uiso   1.00
C551   C     0.40455   0.03969   0.48791   0.00000  Uiso   1.00
C552   C     0.50092   0.24575   0.50004   0.00000  Uiso   1.00
C553   C     0.59545   0.29364   0.51210   0.00000  Uiso   1.00
C554   C     0.39264   0.28042   0.43821   0.00000  Uiso   1.00
C555   C     0.60738   0.05293   0.56176   0.00000  Uiso   1.00
C556   C     0.43484   0.11119   0.37448   0.00000  Uiso   1.00
C557   C     0.56516   0.22214   0.62552   0.00000  Uiso   1.00
C558   C     0.43498   0.11123   0.60930   0.00000  Uiso   1.00
C559   C     0.56501   0.22211   0.39070   0.00000  Uiso   1.00
C560   C     0.40156   0.16630   0.48813   0.00000  Uiso   1.00
C561   C     0.59844   0.16703   0.51187   0.00000  Uiso   1.00
C562   C     0.34672   0.16244   0.48205   0.00000  Uiso   1.00
C563   C     0.65328   0.17089   0.51795   0.00000  Uiso   1.00
C564   C     0.45295   0.01966   0.49332   0.00000  Uiso   1.00
C565   C     0.54705   0.31367   0.50668   0.00000  Uiso   1.00
C566   C     0.45394   0.30975   0.49209   0.00000  Uiso   1.00
Cu567  Cu    0.50000   0.16667   0.54689   0.00000  Uiso   1.00
Cu568  Cu    0.50000   0.16666   0.45311   0.00000  Uiso   1.00
H569   H     0.37743   0.30956   0.42205   0.00000  Uiso   1.00
H570   H     0.42327   0.26920   0.41905   0.00000  Uiso   1.00
H571   H     0.36147   0.25645   0.43394   0.00000  Uiso   1.00
H572   H     0.57673   0.06405   0.58096   0.00000  Uiso   1.00
H573   H     0.62272   0.02382   0.57789   0.00000  Uiso   1.00
H574   H     0.63846   0.07698   0.56601   0.00000  Uiso   1.00
N575   N     0.50001   0.16668   0.61736   0.00000  Uiso   1.00
N576   N     0.59202   0.24539   0.41322   0.00000  Uiso   1.00
N577   N     0.49999   0.16666   0.38264   0.00000  Uiso   1.00
N578   N     0.63843   0.13285   0.40086   0.00000  Uiso   1.00
N579   N     0.36157   0.20048   0.59914   0.00000  Uiso   1.00
N580   N     0.36576   0.05558   0.48352   0.00000  Uiso   1.00
N581   N     0.63424   0.27776   0.51648   0.00000  Uiso   1.00
N582   N     0.40778   0.08778   0.39010   0.00000  Uiso   1.00
N583   N     0.59223   0.24555   0.60991   0.00000  Uiso   1.00
N584   N     0.40797   0.08796   0.58678   0.00000  Uiso   1.00
O585   O     0.50000   0.10655   0.53958   0.00000  Uiso   1.00
O586   O     0.59090   0.04737   0.51340   0.00000  Uiso   1.00
O587   O     0.50000   0.22678   0.46042   0.00000  Uiso   1.00
O588   O     0.50000   0.10654   0.46039   0.00000  Uiso   1.00
O589   O     0.50000   0.22679   0.53961   0.00000  Uiso   1.00
O590   O     0.42495   0.16667   0.53046   0.00000  Uiso   1.00
O591   O     0.57505   0.16666   0.46954   0.00000  Uiso   1.00
O592   O     0.42494   0.16666   0.45127   0.00000  Uiso   1.00
O593   O     0.57506   0.16667   0.54873   0.00000  Uiso   1.00
O594   O     0.40910   0.28597   0.48658   0.00000  Uiso   1.00
C595   C     0.83241   0.08758   0.49996   0.00000  Uiso   1.00
C596   C     0.87940   0.02358   0.50790   0.00000  Uiso   1.00
C597   C     0.83423   0.29042   0.49974   0.00000  Uiso   1.00
C598   C     0.83243   0.04292   0.50026   0.00000  Uiso   1.00
C599   C     0.80174   0.13998   0.35419   0.00000  Uiso   1.00
C600   C     0.86493   0.19335   0.64581   0.00000  Uiso   1.00
C601   C     0.80180   0.13997   0.63798   0.00000  Uiso   1.00
C602   C     0.86487   0.19336   0.36202   0.00000  Uiso   1.00
C603   C     0.99013   0.14597   0.43684   0.00000  Uiso   1.00
C604   C     0.67654   0.18737   0.56316   0.00000  Uiso   1.00
C605   C     0.73788   0.03969   0.48791   0.00000  Uiso   1.00
C606   C     0.83425   0.24575   0.50004   0.00000  Uiso   1.00
C607   C     0.92878   0.29364   0.51210   0.00000  Uiso   1.00
C608   C     0.72598   0.28042   0.43821   0.00000  Uiso   1.00
C609   C     0.94071   0.05293   0.56176   0.00000  Uiso   1.00
C610   C     0.76817   0.11119   0.37448   0.00000  Uiso   1.00
C611   C     0.89850   0.22214   0.62552   0.00000  Uiso   1.00
C612   C     0.76831   0.11123   0.60930   0.00000  Uiso   1.00
C613   C     0.89835   0.22211   0.39070   0.00000  Uiso   1.00
C614   C     0.73489   0.16630   0.48813   0.00000  Uiso   1.00
C615   C     0.93177   0.16703   0.51187   0.00000  Uiso   1.00
C616   C     0.68005   0.16244   0.48205   0.00000  Uiso   1.00
C617   C     0.98661   0.17089   0.51795   0.00000  Uiso   1.00
C618   C     0.78628   0.01966   0.49332   0.00000  Uiso   1.00
C619   C     0.88039   0.31367   0.50668   0.00000  Uiso   1.00
C620   C     0.78727   0.30975   0.49209   0.00000  Uiso   1.00
Cu621  Cu    0.83333   0.16667   0.54689   0.00000  Uiso   1.00
Cu622  Cu    0.83333   0.16666   0.45311   0.00000  Uiso   1.00
H623   H     0.71076   0.30956   0.42205   0.00000  Uiso   1.00
H624   H     0.75660   0.26920   0.41905   0.00000  Uiso   1.00
H625   H     0.69480   0.25645   0.43394   0.00000  Uiso   1.00
H626   H     0.91007   0.06405   0.58096   0.00000  Uiso   1.00
H627   H     0.95605   0.02382   0.57789   0.00000  Uiso   1.00
H628   H     0.97179   0.07698   0.56601   0.00000  Uiso   1.00
N629   N     0.83335   0.16668   0.61736   0.00000  Uiso   1.00
N630   N     0.92535   0.24539   0.41322   0.00000  Uiso   1.00
N631   N     0.83332   0.16666   0.38264   0.00000  Uiso   1.00
N632   N     0.97176   0.13285   0.40086   0.00000  Uiso   1.00
N633   N     0.69490   0.20048   0.59914   0.00000  Uiso   1.00
N634   N     0.69909   0.05558   0.48352   0.00000  Uiso   1.00
N635   N     0.96757   0.27776   0.51648   0.00000  Uiso   1.00
N636   N     0.74111   0.08778   0.39010   0.00000  Uiso   1.00
N637   N     0.92556   0.24555   0.60991   0.00000  Uiso   1.00
N638   N     0.74130   0.08796   0.58678   0.00000  Uiso   1.00
O639   O     0.83333   0.10655   0.53958   0.00000  Uiso   1.00
O640   O     0.92423   0.04737   0.51340   0.00000  Uiso   1.00
O641   O     0.83334   0.22678   0.46042   0.00000  Uiso   1.00
O642   O     0.83333   0.10654   0.46039   0.00000  Uiso   1.00
O643   O     0.83334   0.22679   0.53961   0.00000  Uiso   1.00
O644   O     0.75828   0.16667   0.53046   0.00000  Uiso   1.00
O645   O     0.90839   0.16666   0.46954   0.00000  Uiso   1.00
O646   O     0.75828   0.16666   0.45127   0.00000  Uiso   1.00
O647   O     0.90839   0.16667   0.54873   0.00000  Uiso   1.00
O648   O     0.74243   0.28597   0.48658   0.00000  Uiso   1.00
C649   C     0.16575   0.42091   0.49996   0.00000  Uiso   1.00
C650   C     0.21273   0.35691   0.50790   0.00000  Uiso   1.00
C651   C     0.16757   0.62375   0.49974   0.00000  Uiso   1.00
C652   C     0.16577   0.37625   0.50026   0.00000  Uiso   1.00
C653   C     0.13507   0.47332   0.35419   0.00000  Uiso   1.00
C654   C     0.19826   0.52668   0.64581   0.00000  Uiso   1.00
C655   C     0.13513   0.47330   0.63798   0.00000  Uiso   1.00
C656   C     0.19820   0.52670   0.36202   0.00000  Uiso   1.00
C657   C     0.32346   0.47930   0.43684   0.00000  Uiso   1.00
C658   C     0.00987   0.52070   0.56316   0.00000  Uiso   1.00
C659   C     0.07122   0.37303   0.48791   0.00000  Uiso   1.00
C660   C     0.16759   0.57909   0.50004   0.00000  Uiso   1.00
C661   C     0.26212   0.62697   0.51210   0.00000  Uiso   1.00
C662   C     0.05931   0.61375   0.43821   0.00000  Uiso   1.00
C663   C     0.27404   0.38626   0.56176   0.00000  Uiso   1.00
C664   C     0.10151   0.44452   0.37448   0.00000  Uiso   1.00
C665   C     0.23183   0.55547   0.62552   0.00000  Uiso   1.00
C666   C     0.10165   0.44456   0.60930   0.00000  Uiso   1.00
C667   C     0.23168   0.55544   0.39070   0.00000  Uiso   1.00
C668   C     0.06823   0.49963   0.48813   0.00000  Uiso   1.00
C669   C     0.26511   0.50037   0.51187   0.00000  Uiso   1.00
C670   C     0.01339   0.49578   0.48205   0.00000  Uiso   1.00
C671   C     0.31995   0.50422   0.51795   0.00000  Uiso   1.00
C672   C     0.11961   0.35300   0.49332   0.00000  Uiso   1.00
C673   C     0.21372   0.64700   0.50668   0.00000  Uiso   1.00
C674   C     0.12060   0.64309   0.49209   0.00000  Uiso   1.00
Cu675  Cu    0.16667   0.50001   0.54689   0.00000  Uiso   1.00
Cu676  Cu    0.16667   0.49999   0.45311   0.00000  Uiso   1.00
H677   H     0.04410   0.64290   0.42205   0.00000  Uiso   1.00
H678   H     0.08994   0.60253   0.41905   0.00000  Uiso   1.00
H679   H     0.02814   0.58978   0.43394   0.00000  Uiso   1.00
H680   H     0.24340   0.39738   0.58096   0.00000  Uiso   1.00
H681   H     0.28939   0.35715   0.57789   0.00000  Uiso   1.00
H682   H     0.30513   0.41031   0.56601   0.00000  Uiso   1.00
N683   N     0.16668   0.50001   0.61736   0.00000  Uiso   1.00
N684   N     0.25869   0.57872   0.41322   0.00000  Uiso   1.00
N685   N     0.16665   0.49999   0.38264   0.00000  Uiso   1.00
N686   N     0.30510   0.46618   0.40086   0.00000  Uiso   1.00
N687   N     0.02824   0.53382   0.59914   0.00000  Uiso   1.00
N688   N     0.03243   0.38891   0.48352   0.00000  Uiso   1.00
N689   N     0.30091   0.61109   0.51648   0.00000  Uiso   1.00
N690   N     0.07444   0.42112   0.39010   0.00000  Uiso   1.00
N691   N     0.25889   0.57888   0.60991   0.00000  Uiso   1.00
N692   N     0.07463   0.42129   0.58678   0.00000  Uiso   1.00
O693   O     0.16666   0.43989   0.53958   0.00000  Uiso   1.00
O694   O     0.25756   0.38070   0.51340   0.00000  Uiso   1.00
O695   O     0.16667   0.56011   0.46042   0.00000  Uiso   1.00
O696   O     0.16666   0.43988   0.46039   0.00000  Uiso   1.00
O697   O     0.16667   0.56012   0.53961   0.00000  Uiso   1.00
O698   O     0.09161   0.50000   0.53046   0.00000  Uiso   1.00
O699   O     0.24172   0.50000   0.46954   0.00000  Uiso   1.00
O700   O     0.09161   0.49999   0.45127   0.00000  Uiso   1.00
O701   O     0.24172   0.50001   0.54873   0.00000  Uiso   1.00
O702   O     0.07577   0.61930   0.48658   0.00000  Uiso   1.00
C703   C     0.49908   0.42091   0.49996   0.00000  Uiso   1.00
C704   C     0.54606   0.35691   0.50790   0.00000  Uiso   1.00
C705   C     0.50090   0.62375   0.49974   0.00000  Uiso   1.00
C706   C     0.49910   0.37625   0.50026   0.00000  Uiso   1.00
C707   C     0.46840   0.47332   0.35419   0.00000  Uiso   1.00
C708   C     0.53160   0.52668   0.64581   0.00000  Uiso   1.00
C709   C     0.46846   0.47330   0.63798   0.00000  Uiso   1.00
C710   C     0.53154   0.52670   0.36202   0.00000  Uiso   1.00
C711   C     0.65680   0.47930   0.43684   0.00000  Uiso   1.00
C712   C     0.34320   0.52070   0.56316   0.00000  Uiso   1.00
C713   C     0.40455   0.37303   0.48791   0.00000  Uiso   1.00
C714   C     0.50092   0.57909   0.50004   0.00000  Uiso   1.00
C715   C     0.59545   0.62697   0.51210   0.00000  Uiso   1.00
C716   C     0.39264   0.61375   0.43821   0.00000  Uiso   1.00
C717   C     0.60738   0.38626   0.56176   0.00000  Uiso   1.00
C718   C     0.43484   0.44452   0.37448   0.00000  Uiso   1.00
C719   C     0.56516   0.55547   0.62552   0.00000  Uiso   1.00
C720   C     0.43498   0.44456   0.60930   0.00000  Uiso   1.00
C721   C     0.56501   0.55544   0.39070   0.00000  Uiso   1.00
C722   C     0.40156   0.49963   0.48813   0.00000  Uiso   1.00
C723   C     0.59844   0.50037   0.51187   0.00000  Uiso   1.00
C724   C     0.34672   0.49578   0.48205   0.00000  Uiso   1.00
C725   C     0.65328   0.50422   0.51795   0.00000  Uiso   1.00
C726   C     0.45295   0.35300   0.49332   0.00000  Uiso   1.00
C727   C     0.54705   0.64700   0.50668   0.00000  Uiso   1.00
C728   C     0.45394   0.64309   0.49209   0.00000  Uiso   1.00
Cu729  Cu    0.50000   0.50001   0.54689   0.00000  Uiso   1.00
Cu730  Cu    0.50000   0.49999   0.45311   0.00000  Uiso   1.00
H731   H     0.37743   0.64290   0.42205   0.00000  Uiso   1.00
H732   H     0.42327   0.60253   0.41905   0.00000  Uiso   1.00
H733   H     0.36147   0.58978   0.43394   0.00000  Uiso   1.00
H734   H     0.57673   0.39738   0.58096   0.00000  Uiso   1.00
H735   H     0.62272   0.35715   0.57789   0.00000  Uiso   1.00
H736   H     0.63846   0.41031   0.56601   0.00000  Uiso   1.00
N737   N     0.50001   0.50001   0.61736   0.00000  Uiso   1.00
N738   N     0.59202   0.57872   0.41322   0.00000  Uiso   1.00
N739   N     0.49999   0.49999   0.38264   0.00000  Uiso   1.00
N740   N     0.63843   0.46618   0.40086   0.00000  Uiso   1.00
N741   N     0.36157   0.53382   0.59914   0.00000  Uiso   1.00
N742   N     0.36576   0.38891   0.48352   0.00000  Uiso   1.00
N743   N     0.63424   0.61109   0.51648   0.00000  Uiso   1.00
N744   N     0.40778   0.42112   0.39010   0.00000  Uiso   1.00
N745   N     0.59223   0.57888   0.60991   0.00000  Uiso   1.00
N746   N     0.40797   0.42129   0.58678   0.00000  Uiso   1.00
O747   O     0.50000   0.43989   0.53958   0.00000  Uiso   1.00
O748   O     0.59090   0.38070   0.51340   0.00000  Uiso   1.00
O749   O     0.50000   0.56011   0.46042   0.00000  Uiso   1.00
O750   O     0.50000   0.43988   0.46039   0.00000  Uiso   1.00
O751   O     0.50000   0.56012   0.53961   0.00000  Uiso   1.00
O752   O     0.42495   0.50000   0.53046   0.00000  Uiso   1.00
O753   O     0.57505   0.50000   0.46954   0.00000  Uiso   1.00
O754   O     0.42494   0.49999   0.45127   0.00000  Uiso   1.00
O755   O     0.57506   0.50001   0.54873   0.00000  Uiso   1.00
O756   O     0.40910   0.61930   0.48658   0.00000  Uiso   1.00
C757   C     0.83241   0.42091   0.49996   0.00000  Uiso   1.00
C758   C     0.87940   0.35691   0.50790   0.00000  Uiso   1.00
C759   C     0.83423   0.62375   0.49974   0.00000  Uiso   1.00
C760   C     0.83243   0.37625   0.50026   0.00000  Uiso   1.00
C761   C     0.80174   0.47332   0.35419   0.00000  Uiso   1.00
C762   C     0.86493   0.52668   0.64581   0.00000  Uiso   1.00
C763   C     0.80180   0.47330   0.63798   0.00000  Uiso   1.00
C764   C     0.86487   0.52670   0.36202   0.00000  Uiso   1.00
C765   C     0.99013   0.47930   0.43684   0.00000  Uiso   1.00
C766   C     0.67654   0.52070   0.56316   0.00000  Uiso   1.00
C767   C     0.73788   0.37303   0.48791   0.00000  Uiso   1.00
C768   C     0.83425   0.57909   0.50004   0.00000  Uiso   1.00
C769   C     0.92878   0.62697   0.51210   0.00000  Uiso   1.00
C770   C     0.72598   0.61375   0.43821   0.00000  Uiso   1.00
C771   C     0.94071   0.38626   0.56176   0.00000  Uiso   1.00
C772   C     0.76817   0.44452   0.37448   0.00000  Uiso   1.00
C773   C     0.89850   0.55547   0.62552   0.00000  Uiso   1.00
C774   C     0.76831   0.44456   0.60930   0.00000  Uiso   1.00
C775   C     0.89835   0.55544   0.39070   0.00000  Uiso   1.00
C776   C     0.73489   0.49963   0.48813   0.00000  Uiso   1.00
C777   C     0.93177   0.50037   0.51187   0.00000  Uiso   1.00
C778   C     0.68005   0.49578   0.48205   0.00000  Uiso   1.00
C779   C     0.98661   0.50422   0.51795   0.00000  Uiso   1.00
C780   C     0.78628   0.35300   0.49332   0.00000  Uiso   1.00
C781   C     0.88039   0.64700   0.50668   0.00000  Uiso   1.00
C782   C     0.78727   0.64309   0.49209   0.00000  Uiso   1.00
Cu783  Cu    0.83333   0.50001   0.54689   0.00000  Uiso   1.00
Cu784  Cu    0.83333   0.49999   0.45311   0.00000  Uiso   1.00
H785   H     0.71076   0.64290   0.42205   0.00000  Uiso   1.00
H786   H     0.75660   0.60253   0.41905   0.00000  Uiso   1.00
H787   H     0.69480   0.58978   0.43394   0.00000  Uiso   1.00
H788   H     0.91007   0.39738   0.58096   0.00000  Uiso   1.00
H789   H     0.95605   0.35715   0.57789   0.00000  Uiso   1.00
H790   H     0.97179   0.41031   0.56601   0.00000  Uiso   1.00
N791   N     0.83335   0.50001   0.61736   0.00000  Uiso   1.00
N792   N     0.92535   0.57872   0.41322   0.00000  Uiso   1.00
N793   N     0.83332   0.49999   0.38264   0.00000  Uiso   1.00
N794   N     0.97176   0.46618   0.40086   0.00000  Uiso   1.00
N795   N     0.69490   0.53382   0.59914   0.00000  Uiso   1.00
N796   N     0.69909   0.38891   0.48352   0.00000  Uiso   1.00
N797   N     0.96757   0.61109   0.51648   0.00000  Uiso   1.00
N798   N     0.74111   0.42112   0.39010   0.00000  Uiso   1.00
N799   N     0.92556   0.57888   0.60991   0.00000  Uiso   1.00
N800   N     0.74130   0.42129   0.58678   0.00000  Uiso   1.00
O801   O     0.83333   0.43989   0.53958   0.00000  Uiso   1.00
O802   O     0.92423   0.38070   0.51340   0.00000  Uiso   1.00
O803   O     0.83334   0.56011   0.46042   0.00000  Uiso   1.00
O804   O     0.83333   0.43988   0.46039   0.00000  Uiso   1.00
O805   O     0.83334   0.56012   0.53961   0.00000  Uiso   1.00
O806   O     0.75828   0.50000   0.53046   0.00000  Uiso   1.00
O807   O     0.90839   0.50000   0.46954   0.00000  Uiso   1.00
O808   O     0.75828   0.49999   0.45127   0.00000  Uiso   1.00
O809   O     0.90839   0.50001   0.54873   0.00000  Uiso   1.00
O810   O     0.74243   0.61930   0.48658   0.00000  Uiso   1.00
C811   C     0.16575   0.75425   0.49996   0.00000  Uiso   1.00
C812   C     0.21273   0.69025   0.50790   0.00000  Uiso   1.00
C813   C     0.16757   0.95708   0.49974   0.00000  Uiso   1.00
C814   C     0.16577   0.70958   0.50026   0.00000  Uiso   1.00
C815   C     0.13507   0.80665   0.35419   0.00000  Uiso   1.00
C816   C     0.19826   0.86002   0.64581   0.00000  Uiso   1.00
C817   C     0.13513   0.80664   0.63798   0.00000  Uiso   1.00
C818   C     0.19820   0.86003   0.36202   0.00000  Uiso   1.00
C819   C     0.32346   0.81263   0.43684   0.00000  Uiso   1.00
C820   C     0.00987   0.85404   0.56316   0.00000  Uiso   1.00
C821   C     0.07122   0.70636   0.48791   0.00000  Uiso   1.00
C822   C     0.16759   0.91242   0.50004   0.00000  Uiso   1.00
C823   C     0.26212   0.96031   0.51210   0.00000  Uiso   1.00
C824   C     0.05931   0.94708   0.43821   0.00000  Uiso   1.00
C825   C     0.27404   0.71960   0.56176   0.00000  Uiso   1.00
C826   C     0.10151   0.77786   0.37448   0.00000  Uiso   1.00
C827   C     0.23183   0.88881   0.62552   0.00000  Uiso   1.00
C828   C     0.10165   0.77789   0.60930   0.00000  Uiso   1.00
C829   C     0.23168   0.88878   0.39070   0.00000  Uiso   1.00
C830   C     0.06823   0.83297   0.48813   0.00000  Uiso   1.00
C831   C     0.26511   0.83370   0.51187   0.00000  Uiso   1.00
C832   C     0.01339   0.82911   0.48205   0.00000  Uiso   1.00
C833   C     0.31995   0.83756   0.51795   0.00000  Uiso   1.00
C834   C     0.11961   0.68633   0.49332   0.00000  Uiso   1.00
C835   C     0.21372   0.98034   0.50668   0.00000  Uiso   1.00
C836   C     0.12060   0.97642   0.49209   0.00000  Uiso   1.00
Cu837  Cu    0.16667   0.83334   0.54689   0.00000  Uiso   1.00
Cu838  Cu    0.16667   0.83333   0.45311   0.00000  Uiso   1.00
H839   H     0.04410   0.97623   0.42205   0.00000  Uiso   1.00
H840   H     0.08994   0.93587   0.41905   0.00000  Uiso   1.00
H841   H     0.02814   0.92311   0.43394   0.00000  Uiso   1.00
H842   H     0.24340   0.73072   0.58096   0.00000  Uiso   1.00
H843   H     0.28939   0.69048   0.57789   0.00000  Uiso   1.00
H844   H     0.30513   0.74365   0.56601   0.00000  Uiso   1.00
N845   N     0.16668   0.83334   0.61736   0.00000  Uiso   1.00
N846   N     0.25869   0.91205   0.41322   0.00000  Uiso   1.00
N847   N     0.16665   0.83332   0.38264   0.00000  Uiso   1.00
N848   N     0.30510   0.79952   0.40086   0.00000  Uiso   1.00
N849   N     0.02824   0.86715   0.59914   0.00000  Uiso   1.00
N850   N     0.03243   0.72224   0.48352   0.00000  Uiso   1.00
N851   N     0.30091   0.94442   0.51648   0.00000  Uiso   1.00
N852   N     0.07444   0.75445   0.39010   0.00000  Uiso   1.00
N853   N     0.25889   0.91222   0.60991   0.00000  Uiso   1.00
N854   N     0.07463   0.75462   0.58678   0.00000  Uiso   1.00
O855   O     0.16666   0.77322   0.53958   0.00000  Uiso   1.00
O856   O     0.25756   0.71403   0.51340   0.00000  Uiso   1.00
O857   O     0.16667   0.89345   0.46042   0.00000  Uiso   1.00
O858   O     0.16666   0.77321   0.46039   0.00000  Uiso   1.00
O859   O     0.16667   0.89346   0.53961   0.00000  Uiso   1.00
O860   O     0.09161   0.83334   0.53046   0.00000  Uiso   1.00
O861   O     0.24172   0.83333   0.46954   0.00000  Uiso   1.00
O862   O     0.09161   0.83333   0.45127   0.00000  Uiso   1.00
O863   O     0.24172   0.83334   0.54873   0.00000  Uiso   1.00
O864   O     0.07577   0.95264   0.48658   0.00000  Uiso   1.00
C865   C     0.49908   0.75425   0.49996   0.00000  Uiso   1.00
C866   C     0.54606   0.69025   0.50790   0.00000  Uiso   1.00
C867   C     0.50090   0.95708   0.49974   0.00000  Uiso   1.00
C868   C     0.49910   0.70958   0.50026   0.00000  Uiso   1.00
C869   C     0.46840   0.80665   0.35419   0.00000  Uiso   1.00
C870   C     0.53160   0.86002   0.64581   0.00000  Uiso   1.00
C871   C     0.46846   0.80664   0.63798   0.00000  Uiso   1.00
C872   C     0.53154   0.86003   0.36202   0.00000  Uiso   1.00
C873   C     0.65680   0.81263   0.43684   0.00000  Uiso   1.00
C874   C     0.34320   0.85404   0.56316   0.00000  Uiso   1.00
C875   C     0.40455   0.70636   0.48791   0.00000  Uiso   1.00
C876   C     0.50092   0.91242   0.50004   0.00000  Uiso   1.00
C877   C     0.59545   0.96031   0.51210   0.00000  Uiso   1.00
C878   C     0.39264   0.94708   0.43821   0.00000  Uiso   1.00
C879   C     0.60738   0.71960   0.56176   0.00000  Uiso   1.00
C880   C     0.43484   0.77786   0.37448   0.00000  Uiso   1.00
C881   C     0.56516   0.88881   0.62552   0.00000  Uiso   1.00
C882   C     0.43498   0.77789   0.60930   0.00000  Uiso   1.00
C883   C     0.56501   0.88878   0.39070   0.00000  Uiso   1.00
C884   C     0.40156   0.83297   0.48813   0.00000  Uiso   1.00
C885   C     0.59844   0.83370   0.51187   0.00000  Uiso   1.00
C886   C     0.34672   0.82911   0.48205   0.00000  Uiso   1.00
C887   C     0.65328   0.83756   0.51795   0.00000  Uiso   1.00
C888   C     0.45295   0.68633   0.49332   0.00000  Uiso   1.00
C889   C     0.54705   0.98034   0.50668   0.00000  Uiso   1.00
C890   C     0.45394   0.97642   0.49209   0.00000  Uiso   1.00
Cu891  Cu    0.50000   0.83334   0.54689   0.00000  Uiso   1.00
Cu892  Cu    0.50000   0.83333   0.45311   0.00000  Uiso   1.00
H893   H     0.37743   0.97623   0.42205   0.00000  Uiso   1.00
H894   H     0.42327   0.93587   0.41905   0.00000  Uiso   1.00
H895   H     0.36147   0.92311   0.43394   0.00000  Uiso   1.00
H896   H     0.57673   0.73072   0.58096   0.00000  Uiso   1.00
H897   H     0.62272   0.69048   0.57789   0.00000  Uiso   1.00
H898   H     0.63846   0.74365   0.56601   0.00000  Uiso   1.00
N899   N     0.50001   0.83334   0.61736   0.00000  Uiso   1.00
N900   N     0.59202   0.91205   0.41322   0.00000  Uiso   1.00
N901   N     0.49999   0.83332   0.38264   0.00000  Uiso   1.00
N902   N     0.63843   0.79952   0.40086   0.00000  Uiso   1.00
N903   N     0.36157   0.86715   0.59914   0.00000  Uiso   1.00
N904   N     0.36576   0.72224   0.48352   0.00000  Uiso   1.00
N905   N     0.63424   0.94442   0.51648   0.00000  Uiso   1.00
N906   N     0.40778   0.75445   0.39010   0.00000  Uiso   1.00
N907   N     0.59223   0.91222   0.60991   0.00000  Uiso   1.00
N908   N     0.40797   0.75462   0.58678   0.00000  Uiso   1.00
O909   O     0.50000   0.77322   0.53958   0.00000  Uiso   1.00
O910   O     0.59090   0.71403   0.51340   0.00000  Uiso   1.00
O911   O     0.50000   0.89345   0.46042   0.00000  Uiso   1.00
O912   O     0.50000   0.77321   0.46039   0.00000  Uiso   1.00
O913   O     0.50000   0.89346   0.53961   0.00000  Uiso   1.00
O914   O     0.42495   0.83334   0.53046   0.00000  Uiso   1.00
O915   O     0.57505   0.83333   0.46954   0.00000  Uiso   1.00
O916   O     0.42494   0.83333   0.45127   0.00000  Uiso   1.00
O917   O     0.57506   0.83334   0.54873   0.00000  Uiso   1.00
O918   O     0.40910   0.95264   0.48658   0.00000  Uiso   1.00
C919   C     0.83241   0.75425   0.49996   0.00000  Uiso   1.00
C920   C     0.87940   0.69025   0.50790   0.00000  Uiso   1.00
C921   C     0.83423   0.95708   0.49974   0.00000  Uiso   1.00
C922   C     0.83243   0.70958   0.50026   0.00000  Uiso   1.00
C923   C     0.80174   0.80665   0.35419   0.00000  Uiso   1.00
C924   C     0.86493   0.86002   0.64581   0.00000  Uiso   1.00
C925   C     0.80180   0.80664   0.63798   0.00000  Uiso   1.00
C926   C     0.86487   0.86003   0.36202   0.00000  Uiso   1.00
C927   C     0.99013   0.81263   0.43684   0.00000  Uiso   1.00
C928   C     0.67654   0.85404   0.56316   0.00000  Uiso   1.00
C929   C     0.73788   0.70636   0.48791   0.00000  Uiso   1.00
C930   C     0.83425   0.91242   0.50004   0.00000  Uiso   1.00
C931   C     0.92878   0.96031   0.51210   0.00000  Uiso   1.00
C932   C     0.72598   0.94708   0.43821   0.00000  Uiso   1.00
C933   C     0.94071   0.71960   0.56176   0.00000  Uiso   1.00
C934   C     0.76817   0.77786   0.37448   0.00000  Uiso   1.00
C935   C     0.89850   0.88881   0.62552   0.00000  Uiso   1.00
C936   C     0.76831   0.77789   0.60930   0.00000  Uiso   1.00
C937   C     0.89835   0.88878   0.39070   0.00000  Uiso   1.00
C938   C     0.73489   0.83297   0.48813   0.00000  Uiso   1.00
C939   C     0.93177   0.83370   0.51187   0.00000  Uiso   1.00
C940   C     0.68005   0.82911   0.48205   0.00000  Uiso   1.00
C941   C     0.98661   0.83756   0.51795   0.00000  Uiso   1.00
C942   C     0.78628   0.68633   0.49332   0.00000  Uiso   1.00
C943   C     0.88039   0.98034   0.50668   0.00000  Uiso   1.00
C944   C     0.78727   0.97642   0.49209   0.00000  Uiso   1.00
Cu945  Cu    0.83333   0.83334   0.54689   0.00000  Uiso   1.00
Cu946  Cu    0.83333   0.83333   0.45311   0.00000  Uiso   1.00
H947   H     0.71076   0.97623   0.42205   0.00000  Uiso   1.00
H948   H     0.75660   0.93587   0.41905   0.00000  Uiso   1.00
H949   H     0.69480   0.92311   0.43394   0.00000  Uiso   1.00
H950   H     0.91007   0.73072   0.58096   0.00000  Uiso   1.00
H951   H     0.95605   0.69048   0.57789   0.00000  Uiso   1.00
H952   H     0.97179   0.74365   0.56601   0.00000  Uiso   1.00
N953   N     0.83335   0.83334   0.61736   0.00000  Uiso   1.00
N954   N     0.92535   0.91205   0.41322   0.00000  Uiso   1.00
N955   N     0.83332   0.83332   0.38264   0.00000  Uiso   1.00
N956   N     0.97176   0.79952   0.40086   0.00000  Uiso   1.00
N957   N     0.69490   0.86715   0.59914   0.00000  Uiso   1.00
N958   N     0.69909   0.72224   0.48352   0.00000  Uiso   1.00
N959   N     0.96757   0.94442   0.51648   0.00000  Uiso   1.00
N960   N     0.74111   0.75445   0.39010   0.00000  Uiso   1.00
N961   N     0.92556   0.91222   0.60991   0.00000  Uiso   1.00
N962   N     0.74130   0.75462   0.58678   0.00000  Uiso   1.00
O963   O     0.83333   0.77322   0.53958   0.00000  Uiso   1.00
O964   O     0.92423   0.71403   0.51340   0.00000  Uiso   1.00
O965   O     0.83334   0.89345   0.46042   0.00000  Uiso   1.00
O966   O     0.83333   0.77321   0.46039   0.00000  Uiso   1.00
O967   O     0.83334   0.89346   0.53961   0.00000  Uiso   1.00
O968   O     0.75828   0.83334   0.53046   0.00000  Uiso   1.00
O969   O     0.90839   0.83333   0.46954   0.00000  Uiso   1.00
O970   O     0.75828   0.83333   0.45127   0.00000  Uiso   1.00
O971   O     0.90839   0.83334   0.54873   0.00000  Uiso   1.00
O972   O     0.74243   0.95264   0.48658   0.00000  Uiso   1.00
C973   C     0.16575   0.08758   0.83329   0.00000  Uiso   1.00
C974   C     0.21273   0.02358   0.84124   0.00000  Uiso   1.00
C975   C     0.16757   0.29042   0.83307   0.00000  Uiso   1.00
C976   C     0.16577   0.04292   0.83359   0.00000  Uiso   1.00
C977   C     0.13507   0.13998   0.68752   0.00000  Uiso   1.00
C978   C     0.19826   0.19335   0.97914   0.00000  Uiso   1.00
C979   C     0.13513   0.13997   0.97131   0.00000  Uiso   1.00
C980   C     0.19820   0.19336   0.69535   0.00000  Uiso   1.00
C981   C     0.32346   0.14597   0.77017   0.00000  Uiso   1.00
C982   C     0.00987   0.18737   0.89649   0.00000  Uiso   1.00
C983   C     0.07122   0.03969   0.82124   0.00000  Uiso   1.00
C984   C     0.16759   0.24575   0.83338   0.00000  Uiso   1.00
C985   C     0.26212   0.29364   0.84543   0.00000  Uiso   1.00
C986   C     0.05931   0.28042   0.77154   0.00000  Uiso   1.00
C987   C     0.27404   0.05293   0.89509   0.00000  Uiso   1.00
C988   C     0.10151   0.11119   0.70781   0.00000  Uiso   1.00
C989   C     0.23183   0.22214   0.95886   0.00000  Uiso   1.00
C990   C     0.10165   0.11123   0.94263   0.00000  Uiso   1.00
C991   C     0.23168   0.22211   0.72403   0.00000  Uiso   1.00
C992   C     0.06823   0.16630   0.82146   0.00000  Uiso   1.00
C993   C     0.26511   0.16703   0.84520   0.00000  Uiso   1.00
C994   C     0.01339   0.16244   0.81538   0.00000  Uiso   1.00
C995   C     0.31995   0.17089   0.85129   0.00000  Uiso   1.00
C996   C     0.11961   0.01966   0.82665   0.00000  Uiso   1.00
C997   C     0.21372   0.31367   0.84002   0.00000  Uiso   1.00
C998   C     0.12060   0.30975   0.82542   0.00000  Uiso   1.00
Cu999  Cu    0.16667   0.16667   0.88022   0.00000  Uiso   1.00
Cu1000 Cu    0.16667   0.16666   0.78645   0.00000  Uiso   1.00
H1001  H     0.04410   0.30956   0.75538   0.00000  Uiso   1.00
H1002  H     0.08994   0.26920   0.75238   0.00000  Uiso   1.00
H1003  H     0.02814   0.25645   0.76727   0.00000  Uiso   1.00
H1004  H     0.24340   0.06405   0.91430   0.00000  Uiso   1.00
H1005  H     0.28939   0.02382   0.91122   0.00000  Uiso   1.00
H1006  H     0.30513   0.07698   0.89935   0.00000  Uiso   1.00
N1007  N     0.16668   0.16668   0.95069   0.00000  Uiso   1.00
N1008  N     0.25869   0.24539   0.74655   0.00000  Uiso   1.00
N1009  N     0.16665   0.16666   0.71597   0.00000  Uiso   1.00
N1010  N     0.30510   0.13285   0.73419   0.00000  Uiso   1.00
N1011  N     0.02824   0.20048   0.93248   0.00000  Uiso   1.00
N1012  N     0.03243   0.05558   0.81686   0.00000  Uiso   1.00
N1013  N     0.30091   0.27776   0.84982   0.00000  Uiso   1.00
N1014  N     0.07444   0.08778   0.72343   0.00000  Uiso   1.00
N1015  N     0.25889   0.24555   0.94324   0.00000  Uiso   1.00
N1016  N     0.07463   0.08796   0.92011   0.00000  Uiso   1.00
O1017  O     0.16666   0.10655   0.87291   0.00000  Uiso   1.00
O1018  O     0.25756   0.04737   0.84673   0.00000  Uiso   1.00
O1019  O     0.16667   0.22678   0.79375   0.00000  Uiso   1.00
O1020  O     0.16666   0.10654   0.79372   0.00000  Uiso   1.00
O1021  O     0.16667   0.22679   0.87294   0.00000  Uiso   1.00
O1022  O     0.09161   0.16667   0.86379   0.00000  Uiso   1.00
O1023  O     0.24172   0.16666   0.80288   0.00000  Uiso   1.00
O1024  O     0.09161   0.16666   0.78460   0.00000  Uiso   1.00
O1025  O     0.24172   0.16667   0.88207   0.00000  Uiso   1.00
O1026  O     0.07577   0.28597   0.81991   0.00000  Uiso   1.00
C1027  C     0.49908   0.08758   0.83329   0.00000  Uiso   1.00
C1028  C     0.54606   0.02358   0.84124   0.00000  Uiso   1.00
C1029  C     0.50090   0.29042   0.83307   0.00000  Uiso   1.00
C1030  C     0.49910   0.04292   0.83359   0.00000  Uiso   1.00
C1031  C     0.46840   0.13998   0.68752   0.00000  Uiso   1.00
C1032  C     0.53160   0.19335   0.97914   0.00000  Uiso   1.00
C1033  C     0.46846   0.13997   0.97131   0.00000  Uiso   1.00
C1034  C     0.53154   0.19336   0.69535   0.00000  Uiso   1.00
C1035  C     0.65680   0.14597   0.77017   0.00000  Uiso   1.00
C1036  C     0.34320   0.18737   0.89649   0.00000  Uiso   1.00
C1037  C     0.40455   0.03969   0.82124   0.00000  Uiso   1.00
C1038  C     0.50092   0.24575   0.83338   0.00000  Uiso   1.00
C1039  C     0.59545   0.29364   0.84543   0.00000  Uiso   1.00
C1040  C     0.39264   0.28042   0.77154   0.00000  Uiso   1.00
C1041  C     0.60738   0.05293   0.89509   0.00000  Uiso   1.00
C1042  C     0.43484   0.11119   0.70781   0.00000  Uiso   1.00
C1043  C     0.56516   0.22214   0.95886   0.00000  Uiso   1.00
C1044  C     0.43498   0.11123   0.94263   0.00000  Uiso   1.00
C1045  C     0.56501   0.22211   0.72403   0.00000  Uiso   1.00
C1046  C     0.40156   0.16630   0.82146   0.00000  Uiso   1.00
C1047  C     0.59844   0.16703   0.84520   0.00000  Uiso   1.00
C1048  C     0.34672   0.16244   0.81538   0.00000  Uiso   1.00
C1049  C     0.65328   0.17089   0.85129   0.00000  Uiso   1.00
C1050  C     0.45295   0.01966   0.82665   0.00000  Uiso   1.00
C1051  C     0.54705   0.31367   0.84002   0.00000  Uiso   1.00
C1052  C     0.45394   0.30975   0.82542   0.00000  Uiso   1.00
Cu1053 Cu    0.50000   0.16667   0.88022   0.00000  Uiso   1.00
Cu1054 Cu    0.50000   0.16666   0.78645   0.00000  Uiso   1.00
H1055  H     0.37743   0.30956   0.75538   0.00000  Uiso   1.00
H1056  H     0.42327   0.26920   0.75238   0.00000  Uiso   1.00
H1057  H     0.36147   0.25645   0.76727   0.00000  Uiso   1.00
H1058  H     0.57673   0.06405   0.91430   0.00000  Uiso   1.00
H1059  H     0.62272   0.02382   0.91122   0.00000  Uiso   1.00
H1060  H     0.63846   0.07698   0.89935   0.00000  Uiso   1.00
N1061  N     0.50001   0.16668   0.95069   0.00000  Uiso   1.00
N1062  N     0.59202   0.24539   0.74655   0.00000  Uiso   1.00
N1063  N     0.49999   0.16666   0.71597   0.00000  Uiso   1.00
N1064  N     0.63843   0.13285   0.73419   0.00000  Uiso   1.00
N1065  N     0.36157   0.20048   0.93248   0.00000  Uiso   1.00
N1066  N     0.36576   0.05558   0.81686   0.00000  Uiso   1.00
N1067  N     0.63424   0.27776   0.84982   0.00000  Uiso   1.00
N1068  N     0.40778   0.08778   0.72343   0.00000  Uiso   1.00
N1069  N     0.59223   0.24555   0.94324   0.00000  Uiso   1.00
N1070  N     0.40797   0.08796   0.92011   0.00000  Uiso   1.00
O1071  O     0.50000   0.10655   0.87291   0.00000  Uiso   1.00
O1072  O     0.59090   0.04737   0.84673   0.00000  Uiso   1.00
O1073  O     0.50000   0.22678   0.79375   0.00000  Uiso   1.00
O1074  O     0.50000   0.10654   0.79372   0.00000  Uiso   1.00
O1075  O     0.50000   0.22679   0.87294   0.00000  Uiso   1.00
O1076  O     0.42495   0.16667   0.86379   0.00000  Uiso   1.00
O1077  O     0.57505   0.16666   0.80288   0.00000  Uiso   1.00
O1078  O     0.42494   0.16666   0.78460   0.00000  Uiso   1.00
O1079  O     0.57506   0.16667   0.88207   0.00000  Uiso   1.00
O1080  O     0.40910   0.28597   0.81991   0.00000  Uiso   1.00
C1081  C     0.83241   0.08758   0.83329   0.00000  Uiso   1.00
C1082  C     0.87940   0.02358   0.84124   0.00000  Uiso   1.00
C1083  C     0.83423   0.29042   0.83307   0.00000  Uiso   1.00
C1084  C     0.83243   0.04292   0.83359   0.00000  Uiso   1.00
C1085  C     0.80174   0.13998   0.68752   0.00000  Uiso   1.00
C1086  C     0.86493   0.19335   0.97914   0.00000  Uiso   1.00
C1087  C     0.80180   0.13997   0.97131   0.00000  Uiso   1.00
C1088  C     0.86487   0.19336   0.69535   0.00000  Uiso   1.00
C1089  C     0.99013   0.14597   0.77017   0.00000  Uiso   1.00
C1090  C     0.67654   0.18737   0.89649   0.00000  Uiso   1.00
C1091  C     0.73788   0.03969   0.82124   0.00000  Uiso   1.00
C1092  C     0.83425   0.24575   0.83338   0.00000  Uiso   1.00
C1093  C     0.92878   0.29364   0.84543   0.00000  Uiso   1.00
C1094  C     0.72598   0.28042   0.77154   0.00000  Uiso   1.00
C1095  C     0.94071   0.05293   0.89509   0.00000  Uiso   1.00
C1096  C     0.76817   0.11119   0.70781   0.00000  Uiso   1.00
C1097  C     0.89850   0.22214   0.95886   0.00000  Uiso   1.00
C1098  C     0.76831   0.11123   0.94263   0.00000  Uiso   1.00
C1099  C     0.89835   0.22211   0.72403   0.00000  Uiso   1.00
C1100  C     0.73489   0.16630   0.82146   0.00000  Uiso   1.00
C1101  C     0.93177   0.16703   0.84520   0.00000  Uiso   1.00
C1102  C     0.68005   0.16244   0.81538   0.00000  Uiso   1.00
C1103  C     0.98661   0.17089   0.85129   0.00000  Uiso   1.00
C1104  C     0.78628   0.01966   0.82665   0.00000  Uiso   1.00
C1105  C     0.88039   0.31367   0.84002   0.00000  Uiso   1.00
C1106  C     0.78727   0.30975   0.82542   0.00000  Uiso   1.00
Cu1107 Cu    0.83333   0.16667   0.88022   0.00000  Uiso   1.00
Cu1108 Cu    0.83333   0.16666   0.78645   0.00000  Uiso   1.00
H1109  H     0.71076   0.30956   0.75538   0.00000  Uiso   1.00
H1110  H     0.75660   0.26920   0.75238   0.00000  Uiso   1.00
H1111  H     0.69480   0.25645   0.76727   0.00000  Uiso   1.00
H1112  H     0.91007   0.06405   0.91430   0.00000  Uiso   1.00
H1113  H     0.95605   0.02382   0.91122   0.00000  Uiso   1.00
H1114  H     0.97179   0.07698   0.89935   0.00000  Uiso   1.00
N1115  N     0.83335   0.16668   0.95069   0.00000  Uiso   1.00
N1116  N     0.92535   0.24539   0.74655   0.00000  Uiso   1.00
N1117  N     0.83332   0.16666   0.71597   0.00000  Uiso   1.00
N1118  N     0.97176   0.13285   0.73419   0.00000  Uiso   1.00
N1119  N     0.69490   0.20048   0.93248   0.00000  Uiso   1.00
N1120  N     0.69909   0.05558   0.81686   0.00000  Uiso   1.00
N1121  N     0.96757   0.27776   0.84982   0.00000  Uiso   1.00
N1122  N     0.74111   0.08778   0.72343   0.00000  Uiso   1.00
N1123  N     0.92556   0.24555   0.94324   0.00000  Uiso   1.00
N1124  N     0.74130   0.08796   0.92011   0.00000  Uiso   1.00
O1125  O     0.83333   0.10655   0.87291   0.00000  Uiso   1.00
O1126  O     0.92423   0.04737   0.84673   0.00000  Uiso   1.00
O1127  O     0.83334   0.22678   0.79375   0.00000  Uiso   1.00
O1128  O     0.83333   0.10654   0.79372   0.00000  Uiso   1.00
O1129  O     0.83334   0.22679   0.87294   0.00000  Uiso   1.00
O1130  O     0.75828   0.16667   0.86379   0.00000  Uiso   1.00
O1131  O     0.90839   0.16666   0.80288   0.00000  Uiso   1.00
O1132  O     0.75828   0.16666   0.78460   0.00000  Uiso   1.00
O1133  O     0.90839   0.16667   0.88207   0.00000  Uiso   1.00
O1134  O     0.74243   0.28597   0.81991   0.00000  Uiso   1.00
C1135  C     0.16575   0.42091   0.83329   0.00000  Uiso   1.00
C1136  C     0.21273   0.35691   0.84124   0.00000  Uiso   1.00
C1137  C     0.16757   0.62375   0.83307   0.00000  Uiso   1.00
C1138  C     0.16577   0.37625   0.83359   0.00000  Uiso   1.00
C1139  C     0.13507   0.47332   0.68752   0.00000  Uiso   1.00
C1140  C     0.19826   0.52668   0.97914   0.00000  Uiso   1.00
C1141  C     0.13513   0.47330   0.97131   0.00000  Uiso   1.00
C1142  C     0.19820   0.52670   0.69535   0.00000  Uiso   1.00
C1143  C     0.32346   0.47930   0.77017   0.00000  Uiso   1.00
C1144  C     0.00987   0.52070   0.89649   0.00000  Uiso   1.00
C1145  C     0.07122   0.37303   0.82124   0.00000  Uiso   1.00
C1146  C     0.16759   0.57909   0.83338   0.00000  Uiso   1.00
C1147  C     0.26212   0.62697   0.84543   0.00000  Uiso   1.00
C1148  C     0.05931   0.61375   0.77154   0.00000  Uiso   1.00
C1149  C     0.27404   0.38626   0.89509   0.00000  Uiso   1.00
C1150  C     0.10151   0.44452   0.70781   0.00000  Uiso   1.00
C1151  C     0.23183   0.55547   0.95886   0.00000  Uiso   1.00
C1152  C     0.10165   0.44456   0.94263   0.00000  Uiso   1.00
C1153  C     0.23168   0.55544   0.72403   0.00000  Uiso   1.00
C1154  C     0.06823   0.49963   0.82146   0.00000  Uiso   1.00
C1155  C     0.26511   0.50037   0.84520   0.00000  Uiso   1.00
C1156  C     0.01339   0.49578   0.81538   0.00000  Uiso   1.00
C1157  C     0.31995   0.50422   0.85129   0.00000  Uiso   1.00
C1158  C     0.11961   0.35300   0.82665   0.00000  Uiso   1.00
C1159  C     0.21372   0.64700   0.84002   0.00000  Uiso   1.00
C1160  C     0.12060   0.64309   0.82542   0.00000  Uiso   1.00
Cu1161 Cu    0.16667   0.50001   0.88022   0.00000  Uiso   1.00
Cu1162 Cu    0.16667   0.49999   0.78645   0.00000  Uiso   1.00
H1163  H     0.04410   0.64290   0.75538   0.00000  Uiso   1.00
H1164  H     0.08994   0.60253   0.75238   0.00000  Uiso   1.00
H1165  H     0.02814   0.58978   0.76727   0.00000  Uiso   1.00
H1166  H     0.24340   0.39738   0.91430   0.00000  Uiso   1.00
H1167  H     0.28939   0.35715   0.91122   0.00000  Uiso   1.00
H1168  H     0.30513   0.41031   0.89935   0.00000  Uiso   1.00
N1169  N     0.16668   0.50001   0.95069   0.00000  Uiso   1.00
N1170  N     0.25869   0.57872   0.74655   0.00000  Uiso   1.00
N1171  N     0.16665   0.49999   0.71597   0.00000  Uiso   1.00
N1172  N     0.30510   0.46618   0.73419   0.00000  Uiso   1.00
N1173  N     0.02824   0.53382   0.93248   0.00000  Uiso   1.00
N1174  N     0.03243   0.38891   0.81686   0.00000  Uiso   1.00
N1175  N     0.30091   0.61109   0.84982   0.00000  Uiso   1.00
N1176  N     0.07444   0.42112   0.72343   0.00000  Uiso   1.00
N1177  N     0.25889   0.57888   0.94324   0.00000  Uiso   1.00
N1178  N     0.07463   0.42129   0.92011   0.00000  Uiso   1.00
O1179  O     0.16666   0.43989   0.87291   0.00000  Uiso   1.00
O1180  O     0.25756   0.38070   0.84673   0.00000  Uiso   1.00
O1181  O     0.16667   0.56011   0.79375   0.00000  Uiso   1.00
O1182  O     0.16666   0.43988   0.79372   0.00000  Uiso   1.00
O1183  O     0.16667   0.56012   0.87294   0.00000  Uiso   1.00
O1184  O     0.09161   0.50000   0.86379   0.00000  Uiso   1.00
O1185  O     0.24172   0.50000   0.80288   0.00000  Uiso   1.00
O1186  O     0.09161   0.49999   0.78460   0.00000  Uiso   1.00
O1187  O     0.24172   0.50001   0.88207   0.00000  Uiso   1.00
O1188  O     0.07577   0.61930   0.81991   0.00000  Uiso   1.00
C1189  C     0.49908   0.42091   0.83329   0.00000  Uiso   1.00
C1190  C     0.54606   0.35691   0.84124   0.00000  Uiso   1.00
C1191  C     0.50090   0.62375   0.83307   0.00000  Uiso   1.00
C1192  C     0.49910   0.37625   0.83359   0.00000  Uiso   1.00
C1193  C     0.46840   0.47332   0.68752   0.00000  Uiso   1.00
C1194  C     0.53160   0.52668   0.97914   0.00000  Uiso   1.00
C1195  C     0.46846   0.47330   0.97131   0.00000  Uiso   1.00
C1196  C     0.53154   0.52670   0.69535   0.00000  Uiso   1.00
C1197  C     0.65680   0.47930   0.77017   0.00000  Uiso   1.00
C1198  C     0.34320   0.52070   0.89649   0.00000  Uiso   1.00
C1199  C     0.40455   0.37303   0.82124   0.00000  Uiso   1.00
C1200  C     0.50092   0.57909   0.83338   0.00000  Uiso   1.00
C1201  C     0.59545   0.62697   0.84543   0.00000  Uiso   1.00
C1202  C     0.39264   0.61375   0.77154   0.00000  Uiso   1.00
C1203  C     0.60738   0.38626   0.89509   0.00000  Uiso   1.00
C1204  C     0.43484   0.44452   0.70781   0.00000  Uiso   1.00
C1205  C     0.56516   0.55547   0.95886   0.00000  Uiso   1.00
C1206  C     0.43498   0.44456   0.94263   0.00000  Uiso   1.00
C1207  C     0.56501   0.55544   0.72403   0.00000  Uiso   1.00
C1208  C     0.40156   0.49963   0.82146   0.00000  Uiso   1.00
C1209  C     0.59844   0.50037   0.84520   0.00000  Uiso   1.00
C1210  C     0.34672   0.49578   0.81538   0.00000  Uiso   1.00
C1211  C     0.65328   0.50422   0.85129   0.00000  Uiso   1.00
C1212  C     0.45295   0.35300   0.82665   0.00000  Uiso   1.00
C1213  C     0.54705   0.64700   0.84002   0.00000  Uiso   1.00
C1214  C     0.45394   0.64309   0.82542   0.00000  Uiso   1.00
Cu1215 Cu    0.50000   0.50001   0.88022   0.00000  Uiso   1.00
Cu1216 Cu    0.50000   0.49999   0.78645   0.00000  Uiso   1.00
H1217  H     0.37743   0.64290   0.75538   0.00000  Uiso   1.00
H1218  H     0.42327   0.60253   0.75238   0.00000  Uiso   1.00
H1219  H     0.36147   0.58978   0.76727   0.00000  Uiso   1.00
H1220  H     0.57673   0.39738   0.91430   0.00000  Uiso   1.00
H1221  H     0.62272   0.35715   0.91122   0.00000  Uiso   1.00
H1222  H     0.63846   0.41031   0.89935   0.00000  Uiso   1.00
N1223  N     0.50001   0.50001   0.95069   0.00000  Uiso   1.00
N1224  N     0.59202   0.57872   0.74655   0.00000  Uiso   1.00
N1225  N     0.49999   0.49999   0.71597   0.00000  Uiso   1.00
N1226  N     0.63843   0.46618   0.73419   0.00000  Uiso   1.00
N1227  N     0.36157   0.53382   0.93248   0.00000  Uiso   1.00
N1228  N     0.36576   0.38891   0.81686   0.00000  Uiso   1.00
N1229  N     0.63424   0.61109   0.84982   0.00000  Uiso   1.00
N1230  N     0.40778   0.42112   0.72343   0.00000  Uiso   1.00
N1231  N     0.59223   0.57888   0.94324   0.00000  Uiso   1.00
N1232  N     0.40797   0.42129   0.92011   0.00000  Uiso   1.00
O1233  O     0.50000   0.43989   0.87291   0.00000  Uiso   1.00
O1234  O     0.59090   0.38070   0.84673   0.00000  Uiso   1.00
O1235  O     0.50000   0.56011   0.79375   0.00000  Uiso   1.00
O1236  O     0.50000   0.43988   0.79372   0.00000  Uiso   1.00
O1237  O     0.50000   0.56012   0.87294   0.00000  Uiso   1.00
O1238  O     0.42495   0.50000   0.86379   0.00000  Uiso   1.00
O1239  O     0.57505   0.50000   0.80288   0.00000  Uiso   1.00
O1240  O     0.42494   0.49999   0.78460   0.00000  Uiso   1.00
O1241  O     0.57506   0.50001   0.88207   0.00000  Uiso   1.00
O1242  O     0.40910   0.61930   0.81991   0.00000  Uiso   1.00
C1243  C     0.83241   0.42091   0.83329   0.00000  Uiso   1.00
C1244  C     0.87940   0.35691   0.84124   0.00000  Uiso   1.00
C1245  C     0.83423   0.62375   0.83307   0.00000  Uiso   1.00
C1246  C     0.83243   0.37625   0.83359   0.00000  Uiso   1.00
C1247  C     0.80174   0.47332   0.68752   0.00000  Uiso   1.00
C1248  C     0.86493   0.52668   0.97914   0.00000  Uiso   1.00
C1249  C     0.80180   0.47330   0.97131   0.00000  Uiso   1.00
C1250  C     0.86487   0.52670   0.69535   0.00000  Uiso   1.00
C1251  C     0.99013   0.47930   0.77017   0.00000  Uiso   1.00
C1252  C     0.67654   0.52070   0.89649   0.00000  Uiso   1.00
C1253  C     0.73788   0.37303   0.82124   0.00000  Uiso   1.00
C1254  C     0.83425   0.57909   0.83338   0.00000  Uiso   1.00
C1255  C     0.92878   0.62697   0.84543   0.00000  Uiso   1.00
C1256  C     0.72598   0.61375   0.77154   0.00000  Uiso   1.00
C1257  C     0.94071   0.38626   0.89509   0.00000  Uiso   1.00
C1258  C     0.76817   0.44452   0.70781   0.00000  Uiso   1.00
C1259  C     0.89850   0.55547   0.95886   0.00000  Uiso   1.00
C1260  C     0.76831   0.44456   0.94263   0.00000  Uiso   1.00
C1261  C     0.89835   0.55544   0.72403   0.00000  Uiso   1.00
C1262  C     0.73489   0.49963   0.82146   0.00000  Uiso   1.00
C1263  C     0.93177   0.50037   0.84520   0.00000  Uiso   1.00
C1264  C     0.68005   0.49578   0.81538   0.00000  Uiso   1.00
C1265  C     0.98661   0.50422   0.85129   0.00000  Uiso   1.00
C1266  C     0.78628   0.35300   0.82665   0.00000  Uiso   1.00
C1267  C     0.88039   0.64700   0.84002   0.00000  Uiso   1.00
C1268  C     0.78727   0.64309   0.82542   0.00000  Uiso   1.00
Cu1269 Cu    0.83333   0.50001   0.88022   0.00000  Uiso   1.00
Cu1270 Cu    0.83333   0.49999   0.78645   0.00000  Uiso   1.00
H1271  H     0.71076   0.64290   0.75538   0.00000  Uiso   1.00
H1272  H     0.75660   0.60253   0.75238   0.00000  Uiso   1.00
H1273  H     0.69480   0.58978   0.76727   0.00000  Uiso   1.00
H1274  H     0.91007   0.39738   0.91430   0.00000  Uiso   1.00
H1275  H     0.95605   0.35715   0.91122   0.00000  Uiso   1.00
H1276  H     0.97179   0.41031   0.89935   0.00000  Uiso   1.00
N1277  N     0.83335   0.50001   0.95069   0.00000  Uiso   1.00
N1278  N     0.92535   0.57872   0.74655   0.00000  Uiso   1.00
N1279  N     0.83332   0.49999   0.71597   0.00000  Uiso   1.00
N1280  N     0.97176   0.46618   0.73419   0.00000  Uiso   1.00
N1281  N     0.69490   0.53382   0.93248   0.00000  Uiso   1.00
N1282  N     0.69909   0.38891   0.81686   0.00000  Uiso   1.00
N1283  N     0.96757   0.61109   0.84982   0.00000  Uiso   1.00
N1284  N     0.74111   0.42112   0.72343   0.00000  Uiso   1.00
N1285  N     0.92556   0.57888   0.94324   0.00000  Uiso   1.00
N1286  N     0.74130   0.42129   0.92011   0.00000  Uiso   1.00
O1287  O     0.83333   0.43989   0.87291   0.00000  Uiso   1.00
O1288  O     0.92423   0.38070   0.84673   0.00000  Uiso   1.00
O1289  O     0.83334   0.56011   0.79375   0.00000  Uiso   1.00
O1290  O     0.83333   0.43988   0.79372   0.00000  Uiso   1.00
O1291  O     0.83334   0.56012   0.87294   0.00000  Uiso   1.00
O1292  O     0.75828   0.50000   0.86379   0.00000  Uiso   1.00
O1293  O     0.90839   0.50000   0.80288   0.00000  Uiso   1.00
O1294  O     0.75828   0.49999   0.78460   0.00000  Uiso   1.00
O1295  O     0.90839   0.50001   0.88207   0.00000  Uiso   1.00
O1296  O     0.74243   0.61930   0.81991   0.00000  Uiso   1.00
C1297  C     0.16575   0.75425   0.83329   0.00000  Uiso   1.00
C1298  C     0.21273   0.69025   0.84124   0.00000  Uiso   1.00
C1299  C     0.16757   0.95708   0.83307   0.00000  Uiso   1.00
C1300  C     0.16577   0.70958   0.83359   0.00000  Uiso   1.00
C1301  C     0.13507   0.80665   0.68752   0.00000  Uiso   1.00
C1302  C     0.19826   0.86002   0.97914   0.00000  Uiso   1.00
C1303  C     0.13513   0.80664   0.97131   0.00000  Uiso   1.00
C1304  C     0.19820   0.86003   0.69535   0.00000  Uiso   1.00
C1305  C     0.32346   0.81263   0.77017   0.00000  Uiso   1.00
C1306  C     0.00987   0.85404   0.89649   0.00000  Uiso   1.00
C1307  C     0.07122   0.70636   0.82124   0.00000  Uiso   1.00
C1308  C     0.16759   0.91242   0.83338   0.00000  Uiso   1.00
C1309  C     0.26212   0.96031   0.84543   0.00000  Uiso   1.00
C1310  C     0.05931   0.94708   0.77154   0.00000  Uiso   1.00
C1311  C     0.27404   0.71960   0.89509   0.00000  Uiso   1.00
C1312  C     0.10151   0.77786   0.70781   0.00000  Uiso   1.00
C1313  C     0.23183   0.88881   0.95886   0.00000  Uiso   1.00
C1314  C     0.10165   0.77789   0.94263   0.00000  Uiso   1.00
C1315  C     0.23168   0.88878   0.72403   0.00000  Uiso   1.00
C1316  C     0.06823   0.83297   0.82146   0.00000  Uiso   1.00
C1317  C     0.26511   0.83370   0.84520   0.00000  Uiso   1.00
C1318  C     0.01339   0.82911   0.81538   0.00000  Uiso   1.00
C1319  C     0.31995   0.83756   0.85129   0.00000  Uiso   1.00
C1320  C     0.11961   0.68633   0.82665   0.00000  Uiso   1.00
C1321  C     0.21372   0.98034   0.84002   0.00000  Uiso   1.00
C1322  C     0.12060   0.97642   0.82542   0.00000  Uiso   1.00
Cu1323 Cu    0.16667   0.83334   0.88022   0.00000  Uiso   1.00
Cu1324 Cu    0.16667   0.83333   0.78645   0.00000  Uiso   1.00
H1325  H     0.04410   0.97623   0.75538   0.00000  Uiso   1.00
H1326  H     0.08994   0.93587   0.75238   0.00000  Uiso   1.00
H1327  H     0.02814   0.92311   0.76727   0.00000  Uiso   1.00
H1328  H     0.24340   0.73072   0.91430   0.00000  Uiso   1.00
H1329  H     0.28939   0.69048   0.91122   0.00000  Uiso   1.00
H1330  H     0.30513   0.74365   0.89935   0.00000  Uiso   1.00
N1331  N     0.16668   0.83334   0.95069   0.00000  Uiso   1.00
N1332  N     0.25869   0.91205   0.74655   0.00000  Uiso   1.00
N1333  N     0.16665   0.83332   0.71597   0.00000  Uiso   1.00
N1334  N     0.30510   0.79952   0.73419   0.00000  Uiso   1.00
N1335  N     0.02824   0.86715   0.93248   0.00000  Uiso   1.00
N1336  N     0.03243   0.72224   0.81686   0.00000  Uiso   1.00
N1337  N     0.30091   0.94442   0.84982   0.00000  Uiso   1.00
N1338  N     0.07444   0.75445   0.72343   0.00000  Uiso   1.00
N1339  N     0.25889   0.91222   0.94324   0.00000  Uiso   1.00
N1340  N     0.07463   0.75462   0.92011   0.00000  Uiso   1.00
O1341  O     0.16666   0.77322   0.87291   0.00000  Uiso   1.00
O1342  O     0.25756   0.71403   0.84673   0.00000  Uiso   1.00
O1343  O     0.16667   0.89345   0.79375   0.00000  Uiso   1.00
O1344  O     0.16666   0.77321   0.79372   0.00000  Uiso   1.00
O1345  O     0.16667   0.89346   0.87294   0.00000  Uiso   1.00
O1346  O     0.09161   0.83334   0.86379   0.00000  Uiso   1.00
O1347  O     0.24172   0.83333   0.80288   0.00000  Uiso   1.00
O1348  O     0.09161   0.83333   0.78460   0.00000  Uiso   1.00
O1349  O     0.24172   0.83334   0.88207   0.00000  Uiso   1.00
O1350  O     0.07577   0.95264   0.81991   0.00000  Uiso   1.00
C1351  C     0.49908   0.75425   0.83329   0.00000  Uiso   1.00
C1352  C     0.54606   0.69025   0.84124   0.00000  Uiso   1.00
C1353  C     0.50090   0.95708   0.83307   0.00000  Uiso   1.00
C1354  C     0.49910   0.70958   0.83359   0.00000  Uiso   1.00
C1355  C     0.46840   0.80665   0.68752   0.00000  Uiso   1.00
C1356  C     0.53160   0.86002   0.97914   0.00000  Uiso   1.00
C1357  C     0.46846   0.80664   0.97131   0.00000  Uiso   1.00
C1358  C     0.53154   0.86003   0.69535   0.00000  Uiso   1.00
C1359  C     0.65680   0.81263   0.77017   0.00000  Uiso   1.00
C1360  C     0.34320   0.85404   0.89649   0.00000  Uiso   1.00
C1361  C     0.40455   0.70636   0.82124   0.00000  Uiso   1.00
C1362  C     0.50092   0.91242   0.83338   0.00000  Uiso   1.00
C1363  C     0.59545   0.96031   0.84543   0.00000  Uiso   1.00
C1364  C     0.39264   0.94708   0.77154   0.00000  Uiso   1.00
C1365  C     0.60738   0.71960   0.89509   0.00000  Uiso   1.00
C1366  C     0.43484   0.77786   0.70781   0.00000  Uiso   1.00
C1367  C     0.56516   0.88881   0.95886   0.00000  Uiso   1.00
C1368  C     0.43498   0.77789   0.94263   0.00000  Uiso   1.00
C1369  C     0.56501   0.88878   0.72403   0.00000  Uiso   1.00
C1370  C     0.40156   0.83297   0.82146   0.00000  Uiso   1.00
C1371  C     0.59844   0.83370   0.84520   0.00000  Uiso   1.00
C1372  C     0.34672   0.82911   0.81538   0.00000  Uiso   1.00
C1373  C     0.65328   0.83756   0.85129   0.00000  Uiso   1.00
C1374  C     0.45295   0.68633   0.82665   0.00000  Uiso   1.00
C1375  C     0.54705   0.98034   0.84002   0.00000  Uiso   1.00
C1376  C     0.45394   0.97642   0.82542   0.00000  Uiso   1.00
Cu1377 Cu    0.50000   0.83334   0.88022   0.00000  Uiso   1.00
Cu1378 Cu    0.50000   0.83333   0.78645   0.00000  Uiso   1.00
H1379  H     0.37743   0.97623   0.75538   0.00000  Uiso   1.00
H1380  H     0.42327   0.93587   0.75238   0.00000  Uiso   1.00
H1381  H     0.36147   0.92311   0.76727   0.00000  Uiso   1.00
H1382  H     0.57673   0.73072   0.91430   0.00000  Uiso   1.00
H1383  H     0.62272   0.69048   0.91122   0.00000  Uiso   1.00
H1384  H     0.63846   0.74365   0.89935   0.00000  Uiso   1.00
N1385  N     0.50001   0.83334   0.95069   0.00000  Uiso   1.00
N1386  N     0.59202   0.91205   0.74655   0.00000  Uiso   1.00
N1387  N     0.49999   0.83332   0.71597   0.00000  Uiso   1.00
N1388  N     0.63843   0.79952   0.73419   0.00000  Uiso   1.00
N1389  N     0.36157   0.86715   0.93248   0.00000  Uiso   1.00
N1390  N     0.36576   0.72224   0.81686   0.00000  Uiso   1.00
N1391  N     0.63424   0.94442   0.84982   0.00000  Uiso   1.00
N1392  N     0.40778   0.75445   0.72343   0.00000  Uiso   1.00
N1393  N     0.59223   0.91222   0.94324   0.00000  Uiso   1.00
N1394  N     0.40797   0.75462   0.92011   0.00000  Uiso   1.00
O1395  O     0.50000   0.77322   0.87291   0.00000  Uiso   1.00
O1396  O     0.59090   0.71403   0.84673   0.00000  Uiso   1.00
O1397  O     0.50000   0.89345   0.79375   0.00000  Uiso   1.00
O1398  O     0.50000   0.77321   0.79372   0.00000  Uiso   1.00
O1399  O     0.50000   0.89346   0.87294   0.00000  Uiso   1.00
O1400  O     0.42495   0.83334   0.86379   0.00000  Uiso   1.00
O1401  O     0.57505   0.83333   0.80288   0.00000  Uiso   1.00
O1402  O     0.42494   0.83333   0.78460   0.00000  Uiso   1.00
O1403  O     0.57506   0.83334   0.88207   0.00000  Uiso   1.00
O1404  O     0.40910   0.95264   0.81991   0.00000  Uiso   1.00
C1405  C     0.83241   0.75425   0.83329   0.00000  Uiso   1.00
C1406  C     0.87940   0.69025   0.84124   0.00000  Uiso   1.00
C1407  C     0.83423   0.95708   0.83307   0.00000  Uiso   1.00
C1408  C     0.83243   0.70958   0.83359   0.00000  Uiso   1.00
C1409  C     0.80174   0.80665   0.68752   0.00000  Uiso   1.00
C1410  C     0.86493   0.86002   0.97914   0.00000  Uiso   1.00
C1411  C     0.80180   0.80664   0.97131   0.00000  Uiso   1.00
C1412  C     0.86487   0.86003   0.69535   0.00000  Uiso   1.00
C1413  C     0.99013   0.81263   0.77017   0.00000  Uiso   1.00
C1414  C     0.67654   0.85404   0.89649   0.00000  Uiso   1.00
C1415  C     0.73788   0.70636   0.82124   0.00000  Uiso   1.00
C1416  C     0.83425   0.91242   0.83338   0.00000  Uiso   1.00
C1417  C     0.92878   0.96031   0.84543   0.00000  Uiso   1.00
C1418  C     0.72598   0.94708   0.77154   0.00000  Uiso   1.00
C1419  C     0.94071   0.71960   0.89509   0.00000  Uiso   1.00
C1420  C     0.76817   0.77786   0.70781   0.00000  Uiso   1.00
C1421  C     0.89850   0.88881   0.95886   0.00000  Uiso   1.00
C1422  C     0.76831   0.77789   0.94263   0.00000  Uiso   1.00
C1423  C     0.89835   0.88878   0.72403   0.00000  Uiso   1.00
C1424  C     0.73489   0.83297   0.82146   0.00000  Uiso   1.00
C1425  C     0.93177   0.83370   0.84520   0.00000  Uiso   1.00
C1426  C     0.68005   0.82911   0.81538   0.00000  Uiso   1.00
C1427  C     0.98661   0.83756   0.85129   0.00000  Uiso   1.00
C1428  C     0.78628   0.68633   0.82665   0.00000  Uiso   1.00
C1429  C     0.88039   0.98034   0.84002   0.00000  Uiso   1.00
C1430  C     0.78727   0.97642   0.82542   0.00000  Uiso   1.00
Cu1431 Cu    0.83333   0.83334   0.88022   0.00000  Uiso   1.00
Cu1432 Cu    0.83333   0.83333   0.78645   0.00000  Uiso   1.00
H1433  H     0.71076   0.97623   0.75538   0.00000  Uiso   1.00
H1434  H     0.75660   0.93587   0.75238   0.00000  Uiso   1.00
H1435  H     0.69480   0.92311   0.76727   0.00000  Uiso   1.00
H1436  H     0.91007   0.73072   0.91430   0.00000  Uiso   1.00
H1437  H     0.95605   0.69048   0.91122   0.00000  Uiso   1.00
H1438  H     0.97179   0.74365   0.89935   0.00000  Uiso   1.00
N1439  N     0.83335   0.83334   0.95069   0.00000  Uiso   1.00
N1440  N     0.92535   0.91205   0.74655   0.00000  Uiso   1.00
N1441  N     0.83332   0.83332   0.71597   0.00000  Uiso   1.00
N1442  N     0.97176   0.79952   0.73419   0.00000  Uiso   1.00
N1443  N     0.69490   0.86715   0.93248   0.00000  Uiso   1.00
N1444  N     0.69909   0.72224   0.81686   0.00000  Uiso   1.00
N1445  N     0.96757   0.94442   0.84982   0.00000  Uiso   1.00
N1446  N     0.74111   0.75445   0.72343   0.00000  Uiso   1.00
N1447  N     0.92556   0.91222   0.94324   0.00000  Uiso   1.00
N1448  N     0.74130   0.75462   0.92011   0.00000  Uiso   1.00
O1449  O     0.83333   0.77322   0.87291   0.00000  Uiso   1.00
O1450  O     0.92423   0.71403   0.84673   0.00000  Uiso   1.00
O1451  O     0.83334   0.89345   0.79375   0.00000  Uiso   1.00
O1452  O     0.83333   0.77321   0.79372   0.00000  Uiso   1.00
O1453  O     0.83334   0.89346   0.87294   0.00000  Uiso   1.00
O1454  O     0.75828   0.83334   0.86379   0.00000  Uiso   1.00
O1455  O     0.90839   0.83333   0.80288   0.00000  Uiso   1.00
O1456  O     0.75828   0.83333   0.78460   0.00000  Uiso   1.00
O1457  O     0.90839   0.83334   0.88207   0.00000  Uiso   1.00
O1458  O     0.74243   0.95264   0.81991   0.00000  Uiso   1.00
loop_
_geom_bond_atom_site_label_1
_geom_bond_atom_site_label_2
_geom_bond_distance
_geom_bond_site_symmetry_2
_ccdc_geom_bond_type
C1     O48     1.294   .     A
C1     O45     1.293   .     A
C1     C4      1.441   .     S
C2     C4      1.403   .     A
C2     O46     1.385   .     S
C2     C349    1.397   1_545 S
C3     C25     1.406   .     A
C3     C12     1.441   .     S
C3     C26     1.403   .     A
C4     C24     1.406   .     A
C5     N37     1.372   .     A
C5     C16     1.443   .     S
C5     C979    1.426   1_554 S
C6     N35     1.372   .     A
C6     C17     1.443   .     S
C6     C494    1.426   .     S
C7     C18     1.442   .     S
C7     N35     1.371   .     A
C7     C491    1.426   .     S
C8     N37     1.371   .     A
C8     C19     1.442   .     S
C8     C978    1.426   1_554 S
C9     N38     1.158   .     T
C9     C76     1.456   .     S
C10    N39     1.158   .     T
C10    C131    1.456   1_455 S
C11    N40     1.157   .     T
C11    C24     1.447   .     S
C12    O49     1.294   .     A
C12    O47     1.293   .     A
C13    C25     1.447   .     S
C13    N41     1.157   .     T
C14    H31     1.108   .     S
C14    H30     1.113   .     S
C14    O54     1.411   .     S
C14    H29     1.111   .     S
C15    H34     1.108   .     S
C15    H32     1.113   .     S
C15    O46     1.411   .     S
C15    H33     1.111   .     S
C16    N42     1.157   .     T
C17    N43     1.157   .     T
C18    N44     1.157   .     T
C19    N36     1.157   .     T
C20    O52     1.300   .     A
C20    C22     1.444   .     S
C20    O50     1.290   .     A
C21    O51     1.290   .     A
C21    O53     1.300   .     A
C21    C23     1.444   .     S
C22    C117    1.456   1_455 S
C22    C131    1.365   1_455 S
C23    C76     1.365   .     S
C23    C64     1.456   .     S
C24    C350    1.397   1_545 S
C25    C164    1.397   .     S
C26    O54     1.385   .     S
C26    C186    1.397   .     S
Cu27   O53     1.986   .     S
Cu27   O50     1.984   .     S
Cu27   O45     1.951   .     S
Cu27   N35     2.028   .     S
Cu27   O49     1.950   .     S
Cu27   Cu28    2.699   .     S
Cu28   O52     1.986   .     S
Cu28   N37     2.028   .     S
Cu28   O47     1.951   .     S
Cu28   O51     1.984   .     S
Cu28   O48     1.950   .     S
C55    O102    1.294   .     A
C55    O99     1.293   .     A
C55    C58     1.441   .     S
C56    C58     1.403   .     A
C56    O100    1.385   .     S
C56    C403    1.397   1_545 S
C57    C79     1.406   .     A
C57    C66     1.441   .     S
C57    C80     1.403   .     A
C58    C78     1.406   .     A
C59    N91     1.372   .     A
C59    C70     1.443   .     S
C59    C1033   1.426   1_554 S
C60    N89     1.372   .     A
C60    C71     1.443   .     S
C60    C548    1.426   .     S
C61    C72     1.442   .     S
C61    N89     1.371   .     A
C61    C545    1.426   .     S
C62    N91     1.371   .     A
C62    C73     1.442   .     S
C62    C1032   1.426   1_554 S
C63    N92     1.158   .     T
C63    C130    1.456   .     S
C64    N93     1.158   .     T
C65    N94     1.157   .     T
C65    C78     1.447   .     S
C66    O103    1.294   .     A
C66    O101    1.293   .     A
C67    C79     1.447   .     S
C67    N95     1.157   .     T
C68    H85     1.108   .     S
C68    H84     1.113   .     S
C68    O108    1.411   .     S
C68    H83     1.111   .     S
C69    H88     1.108   .     S
C69    H86     1.113   .     S
C69    O100    1.411   .     S
C69    H87     1.111   .     S
C70    N96     1.157   .     T
C71    N97     1.157   .     T
C72    N98     1.157   .     T
C73    N90     1.157   .     T
C74    O106    1.300   .     A
C74    C76     1.444   .     S
C74    O104    1.290   .     A
C75    O105    1.290   .     A
C75    O107    1.300   .     A
C75    C77     1.444   .     S
C77    C130    1.365   .     S
C77    C118    1.456   .     S
C78    C404    1.397   1_545 S
C79    C218    1.397   .     S
C80    O108    1.385   .     S
C80    C240    1.397   .     S
Cu81   O107    1.986   .     S
Cu81   O104    1.984   .     S
Cu81   O99     1.951   .     S
Cu81   N89     2.028   .     S
Cu81   O103    1.950   .     S
Cu81   Cu82    2.699   .     S
Cu82   O106    1.986   .     S
Cu82   N91     2.028   .     S
Cu82   O101    1.951   .     S
Cu82   O105    1.984   .     S
Cu82   O102    1.950   .     S
C109   O156    1.294   .     A
C109   O153    1.293   .     A
C109   C112    1.441   .     S
C110   C112    1.403   .     A
C110   O154    1.385   .     S
C110   C457    1.397   1_545 S
C111   C133    1.406   .     A
C111   C120    1.441   .     S
C111   C134    1.403   .     A
C112   C132    1.406   .     A
C113   N145    1.372   .     A
C113   C124    1.443   .     S
C113   C1087   1.426   1_554 S
C114   N143    1.372   .     A
C114   C125    1.443   .     S
C114   C602    1.426   .     S
C115   C126    1.442   .     S
C115   N143    1.371   .     A
C115   C599    1.426   .     S
C116   N145    1.371   .     A
C116   C127    1.442   .     S
C116   C1086   1.426   1_554 S
C117   N146    1.158   .     T
C117   C22     1.456   1_655 S
C118   N147    1.158   .     T
C119   N148    1.157   .     T
C119   C132    1.447   .     S
C120   O157    1.294   .     A
C120   O155    1.293   .     A
C121   C133    1.447   .     S
C121   N149    1.157   .     T
C122   H139    1.108   .     S
C122   H138    1.113   .     S
C122   O162    1.411   .     S
C122   H137    1.111   .     S
C123   H142    1.108   .     S
C123   H140    1.113   .     S
C123   O154    1.411   .     S
C123   H141    1.111   .     S
C124   N150    1.157   .     T
C125   N151    1.157   .     T
C126   N152    1.157   .     T
C127   N144    1.157   .     T
C128   O160    1.300   .     A
C128   C130    1.444   .     S
C128   O158    1.290   .     A
C129   O159    1.290   .     A
C129   O161    1.300   .     A
C129   C131    1.444   .     S
C131   C22     1.365   1_655 S
C131   C10     1.456   1_655 S
C132   C458    1.397   1_545 S
C133   C272    1.397   .     S
C134   O162    1.385   .     S
C134   C294    1.397   .     S
Cu135  O161    1.986   .     S
Cu135  O158    1.984   .     S
Cu135  O153    1.951   .     S
Cu135  N143    2.028   .     S
Cu135  O157    1.950   .     S
Cu135  Cu136   2.699   .     S
Cu136  O160    1.986   .     S
Cu136  N145    2.028   .     S
Cu136  O155    1.951   .     S
Cu136  O159    1.984   .     S
Cu136  O156    1.950   .     S
C163   O210    1.294   .     A
C163   O207    1.293   .     A
C163   C166    1.441   .     S
C164   C166    1.403   .     A
C164   O208    1.385   .     S
C165   C187    1.406   .     A
C165   C174    1.441   .     S
C165   C188    1.403   .     A
C166   C186    1.406   .     A
C167   N199    1.372   .     A
C167   C178    1.443   .     S
C167   C1141   1.426   1_554 S
C168   N197    1.372   .     A
C168   C179    1.443   .     S
C168   C656    1.426   .     S
C169   C180    1.442   .     S
C169   N197    1.371   .     A
C169   C653    1.426   .     S
C170   N199    1.371   .     A
C170   C181    1.442   .     S
C170   C1140   1.426   1_554 S
C171   N200    1.158   .     T
C171   C238    1.456   .     S
C172   N201    1.158   .     T
C172   C293    1.456   1_455 S
C173   N202    1.157   .     T
C173   C186    1.447   .     S
C174   O211    1.294   .     A
C174   O209    1.293   .     A
C175   C187    1.447   .     S
C175   N203    1.157   .     T
C176   H193    1.108   .     S
C176   H192    1.113   .     S
C176   O216    1.411   .     S
C176   H191    1.111   .     S
C177   H196    1.108   .     S
C177   H194    1.113   .     S
C177   O208    1.411   .     S
C177   H195    1.111   .     S
C178   N204    1.157   .     T
C179   N205    1.157   .     T
C180   N206    1.157   .     T
C181   N198    1.157   .     T
C182   O214    1.300   .     A
C182   C184    1.444   .     S
C182   O212    1.290   .     A
C183   O213    1.290   .     A
C183   O215    1.300   .     A
C183   C185    1.444   .     S
C184   C279    1.456   1_455 S
C184   C293    1.365   1_455 S
C185   C238    1.365   .     S
C185   C226    1.456   .     S
C187   C326    1.397   .     S
C188   O216    1.385   .     S
C188   C348    1.397   .     S
Cu189  O215    1.986   .     S
Cu189  O212    1.984   .     S
Cu189  O207    1.951   .     S
Cu189  N197    2.028   .     S
Cu189  O211    1.950   .     S
Cu189  Cu190   2.699   .     S
Cu190  O214    1.986   .     S
Cu190  N199    2.028   .     S
Cu190  O209    1.951   .     S
Cu190  O213    1.984   .     S
Cu190  O210    1.950   .     S
C217   O264    1.294   .     A
C217   O261    1.293   .     A
C217   C220    1.441   .     S
C218   C220    1.403   .     A
C218   O262    1.385   .     S
C219   C241    1.406   .     A
C219   C228    1.441   .     S
C219   C242    1.403   .     A
C220   C240    1.406   .     A
C221   N253    1.372   .     A
C221   C232    1.443   .     S
C221   C1195   1.426   1_554 S
C222   N251    1.372   .     A
C222   C233    1.443   .     S
C222   C710    1.426   .     S
C223   C234    1.442   .     S
C223   N251    1.371   .     A
C223   C707    1.426   .     S
C224   N253    1.371   .     A
C224   C235    1.442   .     S
C224   C1194   1.426   1_554 S
C225   N254    1.158   .     T
C225   C292    1.456   .     S
C226   N255    1.158   .     T
C227   N256    1.157   .     T
C227   C240    1.447   .     S
C228   O265    1.294   .     A
C228   O263    1.293   .     A
C229   C241    1.447   .     S
C229   N257    1.157   .     T
C230   H247    1.108   .     S
C230   H246    1.113   .     S
C230   O270    1.411   .     S
C230   H245    1.111   .     S
C231   H250    1.108   .     S
C231   H248    1.113   .     S
C231   O262    1.411   .     S
C231   H249    1.111   .     S
C232   N258    1.157   .     T
C233   N259    1.157   .     T
C234   N260    1.157   .     T
C235   N252    1.157   .     T
C236   O268    1.300   .     A
C236   C238    1.444   .     S
C236   O266    1.290   .     A
C237   O267    1.290   .     A
C237   O269    1.300   .     A
C237   C239    1.444   .     S
C239   C292    1.365   .     S
C239   C280    1.456   .     S
C241   C380    1.397   .     S
C242   O270    1.385   .     S
C242   C402    1.397   .     S
Cu243  O269    1.986   .     S
Cu243  O266    1.984   .     S
Cu243  O261    1.951   .     S
Cu243  N251    2.028   .     S
Cu243  O265    1.950   .     S
Cu243  Cu244   2.699   .     S
Cu244  O268    1.986   .     S
Cu244  N253    2.028   .     S
Cu244  O263    1.951   .     S
Cu244  O267    1.984   .     S
Cu244  O264    1.950   .     S
C271   O318    1.294   .     A
C271   O315    1.293   .     A
C271   C274    1.441   .     S
C272   C274    1.403   .     A
C272   O316    1.385   .     S
C273   C295    1.406   .     A
C273   C282    1.441   .     S
C273   C296    1.403   .     A
C274   C294    1.406   .     A
C275   N307    1.372   .     A
C275   C286    1.443   .     S
C275   C1249   1.426   1_554 S
C276   N305    1.372   .     A
C276   C287    1.443   .     S
C276   C764    1.426   .     S
C277   C288    1.442   .     S
C277   N305    1.371   .     A
C277   C761    1.426   .     S
C278   N307    1.371   .     A
C278   C289    1.442   .     S
C278   C1248   1.426   1_554 S
C279   N308    1.158   .     T
C279   C184    1.456   1_655 S
C280   N309    1.158   .     T
C281   N310    1.157   .     T
C281   C294    1.447   .     S
C282   O319    1.294   .     A
C282   O317    1.293   .     A
C283   C295    1.447   .     S
C283   N311    1.157   .     T
C284   H301    1.108   .     S
C284   H300    1.113   .     S
C284   O324    1.411   .     S
C284   H299    1.111   .     S
C285   H304    1.108   .     S
C285   H302    1.113   .     S
C285   O316    1.411   .     S
C285   H303    1.111   .     S
C286   N312    1.157   .     T
C287   N313    1.157   .     T
C288   N314    1.157   .     T
C289   N306    1.157   .     T
C290   O322    1.300   .     A
C290   C292    1.444   .     S
C290   O320    1.290   .     A
C291   O321    1.290   .     A
C291   O323    1.300   .     A
C291   C293    1.444   .     S
C293   C184    1.365   1_655 S
C293   C172    1.456   1_655 S
C295   C434    1.397   .     S
C296   O324    1.385   .     S
C296   C456    1.397   .     S
Cu297  O323    1.986   .     S
Cu297  O320    1.984   .     S
Cu297  O315    1.951   .     S
Cu297  N305    2.028   .     S
Cu297  O319    1.950   .     S
Cu297  Cu298   2.699   .     S
Cu298  O322    1.986   .     S
Cu298  N307    2.028   .     S
Cu298  O317    1.951   .     S
Cu298  O321    1.984   .     S
Cu298  O318    1.950   .     S
C325   O372    1.294   .     A
C325   O369    1.293   .     A
C325   C328    1.441   .     S
C326   C328    1.403   .     A
C326   O370    1.385   .     S
C327   C349    1.406   .     A
C327   C336    1.441   .     S
C327   C350    1.403   .     A
C328   C348    1.406   .     A
C329   N361    1.372   .     A
C329   C340    1.443   .     S
C329   C1303   1.426   1_554 S
C330   N359    1.372   .     A
C330   C341    1.443   .     S
C330   C818    1.426   .     S
C331   C342    1.442   .     S
C331   N359    1.371   .     A
C331   C815    1.426   .     S
C332   N361    1.371   .     A
C332   C343    1.442   .     S
C332   C1302   1.426   1_554 S
C333   N362    1.158   .     T
C333   C400    1.456   .     S
C334   N363    1.158   .     T
C334   C455    1.456   1_455 S
C335   N364    1.157   .     T
C335   C348    1.447   .     S
C336   O373    1.294   .     A
C336   O371    1.293   .     A
C337   C349    1.447   .     S
C337   N365    1.157   .     T
C338   H355    1.108   .     S
C338   H354    1.113   .     S
C338   O378    1.411   .     S
C338   H353    1.111   .     S
C339   H358    1.108   .     S
C339   H356    1.113   .     S
C339   O370    1.411   .     S
C339   H357    1.111   .     S
C340   N366    1.157   .     T
C341   N367    1.157   .     T
C342   N368    1.157   .     T
C343   N360    1.157   .     T
C344   O376    1.300   .     A
C344   C346    1.444   .     S
C344   O374    1.290   .     A
C345   O375    1.290   .     A
C345   O377    1.300   .     A
C345   C347    1.444   .     S
C346   C441    1.456   1_455 S
C346   C455    1.365   1_455 S
C347   C400    1.365   .     S
C347   C388    1.456   .     S
C349   C2      1.397   1_565 S
C350   O378    1.385   .     S
C350   C24     1.397   1_565 S
Cu351  O377    1.986   .     S
Cu351  O374    1.984   .     S
Cu351  O369    1.951   .     S
Cu351  N359    2.028   .     S
Cu351  O373    1.950   .     S
Cu351  Cu352   2.699   .     S
Cu352  O376    1.986   .     S
Cu352  N361    2.028   .     S
Cu352  O371    1.951   .     S
Cu352  O375    1.984   .     S
Cu352  O372    1.950   .     S
C379   O426    1.294   .     A
C379   O423    1.293   .     A
C379   C382    1.441   .     S
C380   C382    1.403   .     A
C380   O424    1.385   .     S
C381   C403    1.406   .     A
C381   C390    1.441   .     S
C381   C404    1.403   .     A
C382   C402    1.406   .     A
C383   N415    1.372   .     A
C383   C394    1.443   .     S
C383   C1357   1.426   1_554 S
C384   N413    1.372   .     A
C384   C395    1.443   .     S
C384   C872    1.426   .     S
C385   C396    1.442   .     S
C385   N413    1.371   .     A
C385   C869    1.426   .     S
C386   N415    1.371   .     A
C386   C397    1.442   .     S
C386   C1356   1.426   1_554 S
C387   N416    1.158   .     T
C387   C454    1.456   .     S
C388   N417    1.158   .     T
C389   N418    1.157   .     T
C389   C402    1.447   .     S
C390   O427    1.294   .     A
C390   O425    1.293   .     A
C391   C403    1.447   .     S
C391   N419    1.157   .     T
C392   H409    1.108   .     S
C392   H408    1.113   .     S
C392   O432    1.411   .     S
C392   H407    1.111   .     S
C393   H412    1.108   .     S
C393   H410    1.113   .     S
C393   O424    1.411   .     S
C393   H411    1.111   .     S
C394   N420    1.157   .     T
C395   N421    1.157   .     T
C396   N422    1.157   .     T
C397   N414    1.157   .     T
C398   O430    1.300   .     A
C398   C400    1.444   .     S
C398   O428    1.290   .     A
C399   O429    1.290   .     A
C399   O431    1.300   .     A
C399   C401    1.444   .     S
C401   C454    1.365   .     S
C401   C442    1.456   .     S
C403   C56     1.397   1_565 S
C404   O432    1.385   .     S
C404   C78     1.397   1_565 S
Cu405  O431    1.986   .     S
Cu405  O428    1.984   .     S
Cu405  O423    1.951   .     S
Cu405  N413    2.028   .     S
Cu405  O427    1.950   .     S
Cu405  Cu406   2.699   .     S
Cu406  O430    1.986   .     S
Cu406  N415    2.028   .     S
Cu406  O425    1.951   .     S
Cu406  O429    1.984   .     S
Cu406  O426    1.950   .     S
C433   O480    1.294   .     A
C433   O477    1.293   .     A
C433   C436    1.441   .     S
C434   C436    1.403   .     A
C434   O478    1.385   .     S
C435   C457    1.406   .     A
C435   C444    1.441   .     S
C435   C458    1.403   .     A
C436   C456    1.406   .     A
C437   N469    1.372   .     A
C437   C448    1.443   .     S
C437   C1411   1.426   1_554 S
C438   N467    1.372   .     A
C438   C449    1.443   .     S
C438   C926    1.426   .     S
C439   C450    1.442   .     S
C439   N467    1.371   .     A
C439   C923    1.426   .     S
C440   N469    1.371   .     A
C440   C451    1.442   .     S
C440   C1410   1.426   1_554 S
C441   N470    1.158   .     T
C441   C346    1.456   1_655 S
C442   N471    1.158   .     T
C443   N472    1.157   .     T
C443   C456    1.447   .     S
C444   O481    1.294   .     A
C444   O479    1.293   .     A
C445   C457    1.447   .     S
C445   N473    1.157   .     T
C446   H463    1.108   .     S
C446   H462    1.113   .     S
C446   O486    1.411   .     S
C446   H461    1.111   .     S
C447   H466    1.108   .     S
C447   H464    1.113   .     S
C447   O478    1.411   .     S
C447   H465    1.111   .     S
C448   N474    1.157   .     T
C449   N475    1.157   .     T
C450   N476    1.157   .     T
C451   N468    1.157   .     T
C452   O484    1.300   .     A
C452   C454    1.444   .     S
C452   O482    1.290   .     A
C453   O483    1.290   .     A
C453   O485    1.300   .     A
C453   C455    1.444   .     S
C455   C346    1.365   1_655 S
C455   C334    1.456   1_655 S
C457   C110    1.397   1_565 S
C458   O486    1.385   .     S
C458   C132    1.397   1_565 S
Cu459  O485    1.986   .     S
Cu459  O482    1.984   .     S
Cu459  O477    1.951   .     S
Cu459  N467    2.028   .     S
Cu459  O481    1.950   .     S
Cu459  Cu460   2.699   .     S
Cu460  O484    1.986   .     S
Cu460  N469    2.028   .     S
Cu460  O479    1.951   .     S
Cu460  O483    1.984   .     S
Cu460  O480    1.950   .     S
C487   O534    1.294   .     A
C487   O531    1.293   .     A
C487   C490    1.441   .     S
C488   C490    1.403   .     A
C488   O532    1.385   .     S
C488   C835    1.397   1_545 S
C489   C511    1.406   .     A
C489   C498    1.441   .     S
C489   C512    1.403   .     A
C490   C510    1.406   .     A
C491   N523    1.372   .     A
C491   C502    1.443   .     S
C492   N521    1.372   .     A
C492   C503    1.443   .     S
C492   C980    1.426   .     S
C493   C504    1.442   .     S
C493   N521    1.371   .     A
C493   C977    1.426   .     S
C494   N523    1.371   .     A
C494   C505    1.442   .     S
C495   N524    1.158   .     T
C495   C562    1.456   .     S
C496   N525    1.158   .     T
C496   C617    1.456   1_455 S
C497   N526    1.157   .     T
C497   C510    1.447   .     S
C498   O535    1.294   .     A
C498   O533    1.293   .     A
C499   C511    1.447   .     S
C499   N527    1.157   .     T
C500   H517    1.108   .     S
C500   H516    1.113   .     S
C500   O540    1.411   .     S
C500   H515    1.111   .     S
C501   H520    1.108   .     S
C501   H518    1.113   .     S
C501   O532    1.411   .     S
C501   H519    1.111   .     S
C502   N528    1.157   .     T
C503   N529    1.157   .     T
C504   N530    1.157   .     T
C505   N522    1.157   .     T
C506   O538    1.300   .     A
C506   C508    1.444   .     S
C506   O536    1.290   .     A
C507   O537    1.290   .     A
C507   O539    1.300   .     A
C507   C509    1.444   .     S
C508   C603    1.456   1_455 S
C508   C617    1.365   1_455 S
C509   C562    1.365   .     S
C509   C550    1.456   .     S
C510   C836    1.397   1_545 S
C511   C650    1.397   .     S
C512   O540    1.385   .     S
C512   C672    1.397   .     S
Cu513  O539    1.986   .     S
Cu513  O536    1.984   .     S
Cu513  O531    1.951   .     S
Cu513  N521    2.028   .     S
Cu513  O535    1.950   .     S
Cu513  Cu514   2.699   .     S
Cu514  O538    1.986   .     S
Cu514  N523    2.028   .     S
Cu514  O533    1.951   .     S
Cu514  O537    1.984   .     S
Cu514  O534    1.950   .     S
C541   O588    1.294   .     A
C541   O585    1.293   .     A
C541   C544    1.441   .     S
C542   C544    1.403   .     A
C542   O586    1.385   .     S
C542   C889    1.397   1_545 S
C543   C565    1.406   .     A
C543   C552    1.441   .     S
C543   C566    1.403   .     A
C544   C564    1.406   .     A
C545   N577    1.372   .     A
C545   C556    1.443   .     S
C546   N575    1.372   .     A
C546   C557    1.443   .     S
C546   C1034   1.426   .     S
C547   C558    1.442   .     S
C547   N575    1.371   .     A
C547   C1031   1.426   .     S
C548   N577    1.371   .     A
C548   C559    1.442   .     S
C549   N578    1.158   .     T
C549   C616    1.456   .     S
C550   N579    1.158   .     T
C551   N580    1.157   .     T
C551   C564    1.447   .     S
C552   O589    1.294   .     A
C552   O587    1.293   .     A
C553   C565    1.447   .     S
C553   N581    1.157   .     T
C554   H571    1.108   .     S
C554   H570    1.113   .     S
C554   O594    1.411   .     S
C554   H569    1.111   .     S
C555   H574    1.108   .     S
C555   H572    1.113   .     S
C555   O586    1.411   .     S
C555   H573    1.111   .     S
C556   N582    1.157   .     T
C557   N583    1.157   .     T
C558   N584    1.157   .     T
C559   N576    1.157   .     T
C560   O592    1.300   .     A
C560   C562    1.444   .     S
C560   O590    1.290   .     A
C561   O591    1.290   .     A
C561   O593    1.300   .     A
C561   C563    1.444   .     S
C563   C616    1.365   .     S
C563   C604    1.456   .     S
C564   C890    1.397   1_545 S
C565   C704    1.397   .     S
C566   O594    1.385   .     S
C566   C726    1.397   .     S
Cu567  O593    1.986   .     S
Cu567  O590    1.984   .     S
Cu567  O585    1.951   .     S
Cu567  N575    2.028   .     S
Cu567  O589    1.950   .     S
Cu567  Cu568   2.699   .     S
Cu568  O592    1.986   .     S
Cu568  N577    2.028   .     S
Cu568  O587    1.951   .     S
Cu568  O591    1.984   .     S
Cu568  O588    1.950   .     S
C595   O642    1.294   .     A
C595   O639    1.293   .     A
C595   C598    1.441   .     S
C596   C598    1.403   .     A
C596   O640    1.385   .     S
C596   C943    1.397   1_545 S
C597   C619    1.406   .     A
C597   C606    1.441   .     S
C597   C620    1.403   .     A
C598   C618    1.406   .     A
C599   N631    1.372   .     A
C599   C610    1.443   .     S
C600   N629    1.372   .     A
C600   C611    1.443   .     S
C600   C1088   1.426   .     S
C601   C612    1.442   .     S
C601   N629    1.371   .     A
C601   C1085   1.426   .     S
C602   N631    1.371   .     A
C602   C613    1.442   .     S
C603   N632    1.158   .     T
C603   C508    1.456   1_655 S
C604   N633    1.158   .     T
C605   N634    1.157   .     T
C605   C618    1.447   .     S
C606   O643    1.294   .     A
C606   O641    1.293   .     A
C607   C619    1.447   .     S
C607   N635    1.157   .     T
C608   H625    1.108   .     S
C608   H624    1.113   .     S
C608   O648    1.411   .     S
C608   H623    1.111   .     S
C609   H628    1.108   .     S
C609   H626    1.113   .     S
C609   O640    1.411   .     S
C609   H627    1.111   .     S
C610   N636    1.157   .     T
C611   N637    1.157   .     T
C612   N638    1.157   .     T
C613   N630    1.157   .     T
C614   O646    1.300   .     A
C614   C616    1.444   .     S
C614   O644    1.290   .     A
C615   O645    1.290   .     A
C615   O647    1.300   .     A
C615   C617    1.444   .     S
C617   C508    1.365   1_655 S
C617   C496    1.456   1_655 S
C618   C944    1.397   1_545 S
C619   C758    1.397   .     S
C620   O648    1.385   .     S
C620   C780    1.397   .     S
Cu621  O647    1.986   .     S
Cu621  O644    1.984   .     S
Cu621  O639    1.951   .     S
Cu621  N629    2.028   .     S
Cu621  O643    1.950   .     S
Cu621  Cu622   2.699   .     S
Cu622  O646    1.986   .     S
Cu622  N631    2.028   .     S
Cu622  O641    1.951   .     S
Cu622  O645    1.984   .     S
Cu622  O642    1.950   .     S
C649   O696    1.294   .     A
C649   O693    1.293   .     A
C649   C652    1.441   .     S
C650   C652    1.403   .     A
C650   O694    1.385   .     S
C651   C673    1.406   .     A
C651   C660    1.441   .     S
C651   C674    1.403   .     A
C652   C672    1.406   .     A
C653   N685    1.372   .     A
C653   C664    1.443   .     S
C654   N683    1.372   .     A
C654   C665    1.443   .     S
C654   C1142   1.426   .     S
C655   C666    1.442   .     S
C655   N683    1.371   .     A
C655   C1139   1.426   .     S
C656   N685    1.371   .     A
C656   C667    1.442   .     S
C657   N686    1.158   .     T
C657   C724    1.456   .     S
C658   N687    1.158   .     T
C658   C779    1.456   1_455 S
C659   N688    1.157   .     T
C659   C672    1.447   .     S
C660   O697    1.294   .     A
C660   O695    1.293   .     A
C661   C673    1.447   .     S
C661   N689    1.157   .     T
C662   H679    1.108   .     S
C662   H678    1.113   .     S
C662   O702    1.411   .     S
C662   H677    1.111   .     S
C663   H682    1.108   .     S
C663   H680    1.113   .     S
C663   O694    1.411   .     S
C663   H681    1.111   .     S
C664   N690    1.157   .     T
C665   N691    1.157   .     T
C666   N692    1.157   .     T
C667   N684    1.157   .     T
C668   O700    1.300   .     A
C668   C670    1.444   .     S
C668   O698    1.290   .     A
C669   O699    1.290   .     A
C669   O701    1.300   .     A
C669   C671    1.444   .     S
C670   C765    1.456   1_455 S
C670   C779    1.365   1_455 S
C671   C724    1.365   .     S
C671   C712    1.456   .     S
C673   C812    1.397   .     S
C674   O702    1.385   .     S
C674   C834    1.397   .     S
Cu675  O701    1.986   .     S
Cu675  O698    1.984   .     S
Cu675  O693    1.951   .     S
Cu675  N683    2.028   .     S
Cu675  O697    1.950   .     S
Cu675  Cu676   2.699   .     S
Cu676  O700    1.986   .     S
Cu676  N685    2.028   .     S
Cu676  O695    1.951   .     S
Cu676  O699    1.984   .     S
Cu676  O696    1.950   .     S
C703   O750    1.294   .     A
C703   O747    1.293   .     A
C703   C706    1.441   .     S
C704   C706    1.403   .     A
C704   O748    1.385   .     S
C705   C727    1.406   .     A
C705   C714    1.441   .     S
C705   C728    1.403   .     A
C706   C726    1.406   .     A
C707   N739    1.372   .     A
C707   C718    1.443   .     S
C708   N737    1.372   .     A
C708   C719    1.443   .     S
C708   C1196   1.426   .     S
C709   C720    1.442   .     S
C709   N737    1.371   .     A
C709   C1193   1.426   .     S
C710   N739    1.371   .     A
C710   C721    1.442   .     S
C711   N740    1.158   .     T
C711   C778    1.456   .     S
C712   N741    1.158   .     T
C713   N742    1.157   .     T
C713   C726    1.447   .     S
C714   O751    1.294   .     A
C714   O749    1.293   .     A
C715   C727    1.447   .     S
C715   N743    1.157   .     T
C716   H733    1.108   .     S
C716   H732    1.113   .     S
C716   O756    1.411   .     S
C716   H731    1.111   .     S
C717   H736    1.108   .     S
C717   H734    1.113   .     S
C717   O748    1.411   .     S
C717   H735    1.111   .     S
C718   N744    1.157   .     T
C719   N745    1.157   .     T
C720   N746    1.157   .     T
C721   N738    1.157   .     T
C722   O754    1.300   .     A
C722   C724    1.444   .     S
C722   O752    1.290   .     A
C723   O753    1.290   .     A
C723   O755    1.300   .     A
C723   C725    1.444   .     S
C725   C778    1.365   .     S
C725   C766    1.456   .     S
C727   C866    1.397   .     S
C728   O756    1.385   .     S
C728   C888    1.397   .     S
Cu729  O755    1.986   .     S
Cu729  O752    1.984   .     S
Cu729  O747    1.951   .     S
Cu729  N737    2.028   .     S
Cu729  O751    1.950   .     S
Cu729  Cu730   2.699   .     S
Cu730  O754    1.986   .     S
Cu730  N739    2.028   .     S
Cu730  O749    1.951   .     S
Cu730  O753    1.984   .     S
Cu730  O750    1.950   .     S
C757   O804    1.294   .     A
C757   O801    1.293   .     A
C757   C760    1.441   .     S
C758   C760    1.403   .     A
C758   O802    1.385   .     S
C759   C781    1.406   .     A
C759   C768    1.441   .     S
C759   C782    1.403   .     A
C760   C780    1.406   .     A
C761   N793    1.372   .     A
C761   C772    1.443   .     S
C762   N791    1.372   .     A
C762   C773    1.443   .     S
C762   C1250   1.426   .     S
C763   C774    1.442   .     S
C763   N791    1.371   .     A
C763   C1247   1.426   .     S
C764   N793    1.371   .     A
C764   C775    1.442   .     S
C765   N794    1.158   .     T
C765   C670    1.456   1_655 S
C766   N795    1.158   .     T
C767   N796    1.157   .     T
C767   C780    1.447   .     S
C768   O805    1.294   .     A
C768   O803    1.293   .     A
C769   C781    1.447   .     S
C769   N797    1.157   .     T
C770   H787    1.108   .     S
C770   H786    1.113   .     S
C770   O810    1.411   .     S
C770   H785    1.111   .     S
C771   H790    1.108   .     S
C771   H788    1.113   .     S
C771   O802    1.411   .     S
C771   H789    1.111   .     S
C772   N798    1.157   .     T
C773   N799    1.157   .     T
C774   N800    1.157   .     T
C775   N792    1.157   .     T
C776   O808    1.300   .     A
C776   C778    1.444   .     S
C776   O806    1.290   .     A
C777   O807    1.290   .     A
C777   O809    1.300   .     A
C777   C779    1.444   .     S
C779   C670    1.365   1_655 S
C779   C658    1.456   1_655 S
C781   C920    1.397   .     S
C782   O810    1.385   .     S
C782   C942    1.397   .     S
Cu783  O809    1.986   .     S
Cu783  O806    1.984   .     S
Cu783  O801    1.951   .     S
Cu783  N791    2.028   .     S
Cu783  O805    1.950   .     S
Cu783  Cu784   2.699   .     S
Cu784  O808    1.986   .     S
Cu784  N793    2.028   .     S
Cu784  O803    1.951   .     S
Cu784  O807    1.984   .     S
Cu784  O804    1.950   .     S
C811   O858    1.294   .     A
C811   O855    1.293   .     A
C811   C814    1.441   .     S
C812   C814    1.403   .     A
C812   O856    1.385   .     S
C813   C835    1.406   .     A
C813   C822    1.441   .     S
C813   C836    1.403   .     A
C814   C834    1.406   .     A
C815   N847    1.372   .     A
C815   C826    1.443   .     S
C816   N845    1.372   .     A
C816   C827    1.443   .     S
C816   C1304   1.426   .     S
C817   C828    1.442   .     S
C817   N845    1.371   .     A
C817   C1301   1.426   .     S
C818   N847    1.371   .     A
C818   C829    1.442   .     S
C819   N848    1.158   .     T
C819   C886    1.456   .     S
C820   N849    1.158   .     T
C820   C941    1.456   1_455 S
C821   N850    1.157   .     T
C821   C834    1.447   .     S
C822   O859    1.294   .     A
C822   O857    1.293   .     A
C823   C835    1.447   .     S
C823   N851    1.157   .     T
C824   H841    1.108   .     S
C824   H840    1.113   .     S
C824   O864    1.411   .     S
C824   H839    1.111   .     S
C825   H844    1.108   .     S
C825   H842    1.113   .     S
C825   O856    1.411   .     S
C825   H843    1.111   .     S
C826   N852    1.157   .     T
C827   N853    1.157   .     T
C828   N854    1.157   .     T
C829   N846    1.157   .     T
C830   O862    1.300   .     A
C830   C832    1.444   .     S
C830   O860    1.290   .     A
C831   O861    1.290   .     A
C831   O863    1.300   .     A
C831   C833    1.444   .     S
C832   C927    1.456   1_455 S
C832   C941    1.365   1_455 S
C833   C886    1.365   .     S
C833   C874    1.456   .     S
C835   C488    1.397   1_565 S
C836   O864    1.385   .     S
C836   C510    1.397   1_565 S
Cu837  O863    1.986   .     S
Cu837  O860    1.984   .     S
Cu837  O855    1.951   .     S
Cu837  N845    2.028   .     S
Cu837  O859    1.950   .     S
Cu837  Cu838   2.699   .     S
Cu838  O862    1.986   .     S
Cu838  N847    2.028   .     S
Cu838  O857    1.951   .     S
Cu838  O861    1.984   .     S
Cu838  O858    1.950   .     S
C865   O912    1.294   .     A
C865   O909    1.293   .     A
C865   C868    1.441   .     S
C866   C868    1.403   .     A
C866   O910    1.385   .     S
C867   C889    1.406   .     A
C867   C876    1.441   .     S
C867   C890    1.403   .     A
C868   C888    1.406   .     A
C869   N901    1.372   .     A
C869   C880    1.443   .     S
C870   N899    1.372   .     A
C870   C881    1.443   .     S
C870   C1358   1.426   .     S
C871   C882    1.442   .     S
C871   N899    1.371   .     A
C871   C1355   1.426   .     S
C872   N901    1.371   .     A
C872   C883    1.442   .     S
C873   N902    1.158   .     T
C873   C940    1.456   .     S
C874   N903    1.158   .     T
C875   N904    1.157   .     T
C875   C888    1.447   .     S
C876   O913    1.294   .     A
C876   O911    1.293   .     A
C877   C889    1.447   .     S
C877   N905    1.157   .     T
C878   H895    1.108   .     S
C878   H894    1.113   .     S
C878   O918    1.411   .     S
C878   H893    1.111   .     S
C879   H898    1.108   .     S
C879   H896    1.113   .     S
C879   O910    1.411   .     S
C879   H897    1.111   .     S
C880   N906    1.157   .     T
C881   N907    1.157   .     T
C882   N908    1.157   .     T
C883   N900    1.157   .     T
C884   O916    1.300   .     A
C884   C886    1.444   .     S
C884   O914    1.290   .     A
C885   O915    1.290   .     A
C885   O917    1.300   .     A
C885   C887    1.444   .     S
C887   C940    1.365   .     S
C887   C928    1.456   .     S
C889   C542    1.397   1_565 S
C890   O918    1.385   .     S
C890   C564    1.397   1_565 S
Cu891  O917    1.986   .     S
Cu891  O914    1.984   .     S
Cu891  O909    1.951   .     S
Cu891  N899    2.028   .     S
Cu891  O913    1.950   .     S
Cu891  Cu892   2.699   .     S
Cu892  O916    1.986   .     S
Cu892  N901    2.028   .     S
Cu892  O911    1.951   .     S
Cu892  O915    1.984   .     S
Cu892  O912    1.950   .     S
C919   O966    1.294   .     A
C919   O963    1.293   .     A
C919   C922    1.441   .     S
C920   C922    1.403   .     A
C920   O964    1.385   .     S
C921   C943    1.406   .     A
C921   C930    1.441   .     S
C921   C944    1.403   .     A
C922   C942    1.406   .     A
C923   N955    1.372   .     A
C923   C934    1.443   .     S
C924   N953    1.372   .     A
C924   C935    1.443   .     S
C924   C1412   1.426   .     S
C925   C936    1.442   .     S
C925   N953    1.371   .     A
C925   C1409   1.426   .     S
C926   N955    1.371   .     A
C926   C937    1.442   .     S
C927   N956    1.158   .     T
C927   C832    1.456   1_655 S
C928   N957    1.158   .     T
C929   N958    1.157   .     T
C929   C942    1.447   .     S
C930   O967    1.294   .     A
C930   O965    1.293   .     A
C931   C943    1.447   .     S
C931   N959    1.157   .     T
C932   H949    1.108   .     S
C932   H948    1.113   .     S
C932   O972    1.411   .     S
C932   H947    1.111   .     S
C933   H952    1.108   .     S
C933   H950    1.113   .     S
C933   O964    1.411   .     S
C933   H951    1.111   .     S
C934   N960    1.157   .     T
C935   N961    1.157   .     T
C936   N962    1.157   .     T
C937   N954    1.157   .     T
C938   O970    1.300   .     A
C938   C940    1.444   .     S
C938   O968    1.290   .     A
C939   O969    1.290   .     A
C939   O971    1.300   .     A
C939   C941    1.444   .     S
C941   C832    1.365   1_655 S
C941   C820    1.456   1_655 S
C943   C596    1.397   1_565 S
C944   O972    1.385   .     S
C944   C618    1.397   1_565 S
Cu945  O971    1.986   .     S
Cu945  O968    1.984   .     S
Cu945  O963    1.951   .     S
Cu945  N953    2.028   .     S
Cu945  O967    1.950   .     S
Cu945  Cu946   2.699   .     S
Cu946  O970    1.986   .     S
Cu946  N955    2.028   .     S
Cu946  O965    1.951   .     S
Cu946  O969    1.984   .     S
Cu946  O966    1.950   .     S
C973   O1020   1.294   .     A
C973   O1017   1.293   .     A
C973   C976    1.441   .     S
C974   C976    1.403   .     A
C974   O1018   1.385   .     S
C974   C1321   1.397   1_545 S
C975   C997    1.406   .     A
C975   C984    1.441   .     S
C975   C998    1.403   .     A
C976   C996    1.406   .     A
C977   N1009   1.372   .     A
C977   C988    1.443   .     S
C978   N1007   1.372   .     A
C978   C989    1.443   .     S
C978   C8      1.426   1_556 S
C979   C990    1.442   .     S
C979   N1007   1.371   .     A
C979   C5      1.426   1_556 S
C980   N1009   1.371   .     A
C980   C991    1.442   .     S
C981   N1010   1.158   .     T
C981   C1048   1.456   .     S
C982   N1011   1.158   .     T
C982   C1103   1.456   1_455 S
C983   N1012   1.157   .     T
C983   C996    1.447   .     S
C984   O1021   1.294   .     A
C984   O1019   1.293   .     A
C985   C997    1.447   .     S
C985   N1013   1.157   .     T
C986   H1003   1.108   .     S
C986   H1002   1.113   .     S
C986   O1026   1.411   .     S
C986   H1001   1.111   .     S
C987   H1006   1.108   .     S
C987   H1004   1.113   .     S
C987   O1018   1.411   .     S
C987   H1005   1.111   .     S
C988   N1014   1.157   .     T
C989   N1015   1.157   .     T
C990   N1016   1.157   .     T
C991   N1008   1.157   .     T
C992   O1024   1.300   .     A
C992   C994    1.444   .     S
C992   O1022   1.290   .     A
C993   O1023   1.290   .     A
C993   O1025   1.300   .     A
C993   C995    1.444   .     S
C994   C1089   1.456   1_455 S
C994   C1103   1.365   1_455 S
C995   C1048   1.365   .     S
C995   C1036   1.456   .     S
C996   C1322   1.397   1_545 S
C997   C1136   1.397   .     S
C998   O1026   1.385   .     S
C998   C1158   1.397   .     S
Cu999  O1025   1.986   .     S
Cu999  O1022   1.984   .     S
Cu999  O1017   1.951   .     S
Cu999  N1007   2.028   .     S
Cu999  O1021   1.950   .     S
Cu999  Cu1000  2.699   .     S
Cu1000 O1024   1.986   .     S
Cu1000 N1009   2.028   .     S
Cu1000 O1019   1.951   .     S
Cu1000 O1023   1.984   .     S
Cu1000 O1020   1.950   .     S
C1027  O1074   1.294   .     A
C1027  O1071   1.293   .     A
C1027  C1030   1.441   .     S
C1028  C1030   1.403   .     A
C1028  O1072   1.385   .     S
C1028  C1375   1.397   1_545 S
C1029  C1051   1.406   .     A
C1029  C1038   1.441   .     S
C1029  C1052   1.403   .     A
C1030  C1050   1.406   .     A
C1031  N1063   1.372   .     A
C1031  C1042   1.443   .     S
C1032  N1061   1.372   .     A
C1032  C1043   1.443   .     S
C1032  C62     1.426   1_556 S
C1033  C1044   1.442   .     S
C1033  N1061   1.371   .     A
C1033  C59     1.426   1_556 S
C1034  N1063   1.371   .     A
C1034  C1045   1.442   .     S
C1035  N1064   1.158   .     T
C1035  C1102   1.456   .     S
C1036  N1065   1.158   .     T
C1037  N1066   1.157   .     T
C1037  C1050   1.447   .     S
C1038  O1075   1.294   .     A
C1038  O1073   1.293   .     A
C1039  C1051   1.447   .     S
C1039  N1067   1.157   .     T
C1040  H1057   1.108   .     S
C1040  H1056   1.113   .     S
C1040  O1080   1.411   .     S
C1040  H1055   1.111   .     S
C1041  H1060   1.108   .     S
C1041  H1058   1.113   .     S
C1041  O1072   1.411   .     S
C1041  H1059   1.111   .     S
C1042  N1068   1.157   .     T
C1043  N1069   1.157   .     T
C1044  N1070   1.157   .     T
C1045  N1062   1.157   .     T
C1046  O1078   1.300   .     A
C1046  C1048   1.444   .     S
C1046  O1076   1.290   .     A
C1047  O1077   1.290   .     A
C1047  O1079   1.300   .     A
C1047  C1049   1.444   .     S
C1049  C1102   1.365   .     S
C1049  C1090   1.456   .     S
C1050  C1376   1.397   1_545 S
C1051  C1190   1.397   .     S
C1052  O1080   1.385   .     S
C1052  C1212   1.397   .     S
Cu1053 O1079   1.986   .     S
Cu1053 O1076   1.984   .     S
Cu1053 O1071   1.951   .     S
Cu1053 N1061   2.028   .     S
Cu1053 O1075   1.950   .     S
Cu1053 Cu1054  2.699   .     S
Cu1054 O1078   1.986   .     S
Cu1054 N1063   2.028   .     S
Cu1054 O1073   1.951   .     S
Cu1054 O1077   1.984   .     S
Cu1054 O1074   1.950   .     S
C1081  O1128   1.294   .     A
C1081  O1125   1.293   .     A
C1081  C1084   1.441   .     S
C1082  C1084   1.403   .     A
C1082  O1126   1.385   .     S
C1082  C1429   1.397   1_545 S
C1083  C1105   1.406   .     A
C1083  C1092   1.441   .     S
C1083  C1106   1.403   .     A
C1084  C1104   1.406   .     A
C1085  N1117   1.372   .     A
C1085  C1096   1.443   .     S
C1086  N1115   1.372   .     A
C1086  C1097   1.443   .     S
C1086  C116    1.426   1_556 S
C1087  C1098   1.442   .     S
C1087  N1115   1.371   .     A
C1087  C113    1.426   1_556 S
C1088  N1117   1.371   .     A
C1088  C1099   1.442   .     S
C1089  N1118   1.158   .     T
C1089  C994    1.456   1_655 S
C1090  N1119   1.158   .     T
C1091  N1120   1.157   .     T
C1091  C1104   1.447   .     S
C1092  O1129   1.294   .     A
C1092  O1127   1.293   .     A
C1093  C1105   1.447   .     S
C1093  N1121   1.157   .     T
C1094  H1111   1.108   .     S
C1094  H1110   1.113   .     S
C1094  O1134   1.411   .     S
C1094  H1109   1.111   .     S
C1095  H1114   1.108   .     S
C1095  H1112   1.113   .     S
C1095  O1126   1.411   .     S
C1095  H1113   1.111   .     S
C1096  N1122   1.157   .     T
C1097  N1123   1.157   .     T
C1098  N1124   1.157   .     T
C1099  N1116   1.157   .     T
C1100  O1132   1.300   .     A
C1100  C1102   1.444   .     S
C1100  O1130   1.290   .     A
C1101  O1131   1.290   .     A
C1101  O1133   1.300   .     A
C1101  C1103   1.444   .     S
C1103  C994    1.365   1_655 S
C1103  C982    1.456   1_655 S
C1104  C1430   1.397   1_545 S
C1105  C1244   1.397   .     S
C1106  O1134   1.385   .     S
C1106  C1266   1.397   .     S
Cu1107 O1133   1.986   .     S
Cu1107 O1130   1.984   .     S
Cu1107 O1125   1.951   .     S
Cu1107 N1115   2.028   .     S
Cu1107 O1129   1.950   .     S
Cu1107 Cu1108  2.699   .     S
Cu1108 O1132   1.986   .     S
Cu1108 N1117   2.028   .     S
Cu1108 O1127   1.951   .     S
Cu1108 O1131   1.984   .     S
Cu1108 O1128   1.950   .     S
C1135  O1182   1.294   .     A
C1135  O1179   1.293   .     A
C1135  C1138   1.441   .     S
C1136  C1138   1.403   .     A
C1136  O1180   1.385   .     S
C1137  C1159   1.406   .     A
C1137  C1146   1.441   .     S
C1137  C1160   1.403   .     A
C1138  C1158   1.406   .     A
C1139  N1171   1.372   .     A
C1139  C1150   1.443   .     S
C1140  N1169   1.372   .     A
C1140  C1151   1.443   .     S
C1140  C170    1.426   1_556 S
C1141  C1152   1.442   .     S
C1141  N1169   1.371   .     A
C1141  C167    1.426   1_556 S
C1142  N1171   1.371   .     A
C1142  C1153   1.442   .     S
C1143  N1172   1.158   .     T
C1143  C1210   1.456   .     S
C1144  N1173   1.158   .     T
C1144  C1265   1.456   1_455 S
C1145  N1174   1.157   .     T
C1145  C1158   1.447   .     S
C1146  O1183   1.294   .     A
C1146  O1181   1.293   .     A
C1147  C1159   1.447   .     S
C1147  N1175   1.157   .     T
C1148  H1165   1.108   .     S
C1148  H1164   1.113   .     S
C1148  O1188   1.411   .     S
C1148  H1163   1.111   .     S
C1149  H1168   1.108   .     S
C1149  H1166   1.113   .     S
C1149  O1180   1.411   .     S
C1149  H1167   1.111   .     S
C1150  N1176   1.157   .     T
C1151  N1177   1.157   .     T
C1152  N1178   1.157   .     T
C1153  N1170   1.157   .     T
C1154  O1186   1.300   .     A
C1154  C1156   1.444   .     S
C1154  O1184   1.290   .     A
C1155  O1185   1.290   .     A
C1155  O1187   1.300   .     A
C1155  C1157   1.444   .     S
C1156  C1251   1.456   1_455 S
C1156  C1265   1.365   1_455 S
C1157  C1210   1.365   .     S
C1157  C1198   1.456   .     S
C1159  C1298   1.397   .     S
C1160  O1188   1.385   .     S
C1160  C1320   1.397   .     S
Cu1161 O1187   1.986   .     S
Cu1161 O1184   1.984   .     S
Cu1161 O1179   1.951   .     S
Cu1161 N1169   2.028   .     S
Cu1161 O1183   1.950   .     S
Cu1161 Cu1162  2.699   .     S
Cu1162 O1186   1.986   .     S
Cu1162 N1171   2.028   .     S
Cu1162 O1181   1.951   .     S
Cu1162 O1185   1.984   .     S
Cu1162 O1182   1.950   .     S
C1189  O1236   1.294   .     A
C1189  O1233   1.293   .     A
C1189  C1192   1.441   .     S
C1190  C1192   1.403   .     A
C1190  O1234   1.385   .     S
C1191  C1213   1.406   .     A
C1191  C1200   1.441   .     S
C1191  C1214   1.403   .     A
C1192  C1212   1.406   .     A
C1193  N1225   1.372   .     A
C1193  C1204   1.443   .     S
C1194  N1223   1.372   .     A
C1194  C1205   1.443   .     S
C1194  C224    1.426   1_556 S
C1195  C1206   1.442   .     S
C1195  N1223   1.371   .     A
C1195  C221    1.426   1_556 S
C1196  N1225   1.371   .     A
C1196  C1207   1.442   .     S
C1197  N1226   1.158   .     T
C1197  C1264   1.456   .     S
C1198  N1227   1.158   .     T
C1199  N1228   1.157   .     T
C1199  C1212   1.447   .     S
C1200  O1237   1.294   .     A
C1200  O1235   1.293   .     A
C1201  C1213   1.447   .     S
C1201  N1229   1.157   .     T
C1202  H1219   1.108   .     S
C1202  H1218   1.113   .     S
C1202  O1242   1.411   .     S
C1202  H1217   1.111   .     S
C1203  H1222   1.108   .     S
C1203  H1220   1.113   .     S
C1203  O1234   1.411   .     S
C1203  H1221   1.111   .     S
C1204  N1230   1.157   .     T
C1205  N1231   1.157   .     T
C1206  N1232   1.157   .     T
C1207  N1224   1.157   .     T
C1208  O1240   1.300   .     A
C1208  C1210   1.444   .     S
C1208  O1238   1.290   .     A
C1209  O1239   1.290   .     A
C1209  O1241   1.300   .     A
C1209  C1211   1.444   .     S
C1211  C1264   1.365   .     S
C1211  C1252   1.456   .     S
C1213  C1352   1.397   .     S
C1214  O1242   1.385   .     S
C1214  C1374   1.397   .     S
Cu1215 O1241   1.986   .     S
Cu1215 O1238   1.984   .     S
Cu1215 O1233   1.951   .     S
Cu1215 N1223   2.028   .     S
Cu1215 O1237   1.950   .     S
Cu1215 Cu1216  2.699   .     S
Cu1216 O1240   1.986   .     S
Cu1216 N1225   2.028   .     S
Cu1216 O1235   1.951   .     S
Cu1216 O1239   1.984   .     S
Cu1216 O1236   1.950   .     S
C1243  O1290   1.294   .     A
C1243  O1287   1.293   .     A
C1243  C1246   1.441   .     S
C1244  C1246   1.403   .     A
C1244  O1288   1.385   .     S
C1245  C1267   1.406   .     A
C1245  C1254   1.441   .     S
C1245  C1268   1.403   .     A
C1246  C1266   1.406   .     A
C1247  N1279   1.372   .     A
C1247  C1258   1.443   .     S
C1248  N1277   1.372   .     A
C1248  C1259   1.443   .     S
C1248  C278    1.426   1_556 S
C1249  C1260   1.442   .     S
C1249  N1277   1.371   .     A
C1249  C275    1.426   1_556 S
C1250  N1279   1.371   .     A
C1250  C1261   1.442   .     S
C1251  N1280   1.158   .     T
C1251  C1156   1.456   1_655 S
C1252  N1281   1.158   .     T
C1253  N1282   1.157   .     T
C1253  C1266   1.447   .     S
C1254  O1291   1.294   .     A
C1254  O1289   1.293   .     A
C1255  C1267   1.447   .     S
C1255  N1283   1.157   .     T
C1256  H1273   1.108   .     S
C1256  H1272   1.113   .     S
C1256  O1296   1.411   .     S
C1256  H1271   1.111   .     S
C1257  H1276   1.108   .     S
C1257  H1274   1.113   .     S
C1257  O1288   1.411   .     S
C1257  H1275   1.111   .     S
C1258  N1284   1.157   .     T
C1259  N1285   1.157   .     T
C1260  N1286   1.157   .     T
C1261  N1278   1.157   .     T
C1262  O1294   1.300   .     A
C1262  C1264   1.444   .     S
C1262  O1292   1.290   .     A
C1263  O1293   1.290   .     A
C1263  O1295   1.300   .     A
C1263  C1265   1.444   .     S
C1265  C1156   1.365   1_655 S
C1265  C1144   1.456   1_655 S
C1267  C1406   1.397   .     S
C1268  O1296   1.385   .     S
C1268  C1428   1.397   .     S
Cu1269 O1295   1.986   .     S
Cu1269 O1292   1.984   .     S
Cu1269 O1287   1.951   .     S
Cu1269 N1277   2.028   .     S
Cu1269 O1291   1.950   .     S
Cu1269 Cu1270  2.699   .     S
Cu1270 O1294   1.986   .     S
Cu1270 N1279   2.028   .     S
Cu1270 O1289   1.951   .     S
Cu1270 O1293   1.984   .     S
Cu1270 O1290   1.950   .     S
C1297  O1344   1.294   .     A
C1297  O1341   1.293   .     A
C1297  C1300   1.441   .     S
C1298  C1300   1.403   .     A
C1298  O1342   1.385   .     S
C1299  C1321   1.406   .     A
C1299  C1308   1.441   .     S
C1299  C1322   1.403   .     A
C1300  C1320   1.406   .     A
C1301  N1333   1.372   .     A
C1301  C1312   1.443   .     S
C1302  N1331   1.372   .     A
C1302  C1313   1.443   .     S
C1302  C332    1.426   1_556 S
C1303  C1314   1.442   .     S
C1303  N1331   1.371   .     A
C1303  C329    1.426   1_556 S
C1304  N1333   1.371   .     A
C1304  C1315   1.442   .     S
C1305  N1334   1.158   .     T
C1305  C1372   1.456   .     S
C1306  N1335   1.158   .     T
C1306  C1427   1.456   1_455 S
C1307  N1336   1.157   .     T
C1307  C1320   1.447   .     S
C1308  O1345   1.294   .     A
C1308  O1343   1.293   .     A
C1309  C1321   1.447   .     S
C1309  N1337   1.157   .     T
C1310  H1327   1.108   .     S
C1310  H1326   1.113   .     S
C1310  O1350   1.411   .     S
C1310  H1325   1.111   .     S
C1311  H1330   1.108   .     S
C1311  H1328   1.113   .     S
C1311  O1342   1.411   .     S
C1311  H1329   1.111   .     S
C1312  N1338   1.157   .     T
C1313  N1339   1.157   .     T
C1314  N1340   1.157   .     T
C1315  N1332   1.157   .     T
C1316  O1348   1.300   .     A
C1316  C1318   1.444   .     S
C1316  O1346   1.290   .     A
C1317  O1347   1.290   .     A
C1317  O1349   1.300   .     A
C1317  C1319   1.444   .     S
C1318  C1413   1.456   1_455 S
C1318  C1427   1.365   1_455 S
C1319  C1372   1.365   .     S
C1319  C1360   1.456   .     S
C1321  C974    1.397   1_565 S
C1322  O1350   1.385   .     S
C1322  C996    1.397   1_565 S
Cu1323 O1349   1.986   .     S
Cu1323 O1346   1.984   .     S
Cu1323 O1341   1.951   .     S
Cu1323 N1331   2.028   .     S
Cu1323 O1345   1.950   .     S
Cu1323 Cu1324  2.699   .     S
Cu1324 O1348   1.986   .     S
Cu1324 N1333   2.028   .     S
Cu1324 O1343   1.951   .     S
Cu1324 O1347   1.984   .     S
Cu1324 O1344   1.950   .     S
C1351  O1398   1.294   .     A
C1351  O1395   1.293   .     A
C1351  C1354   1.441   .     S
C1352  C1354   1.403   .     A
C1352  O1396   1.385   .     S
C1353  C1375   1.406   .     A
C1353  C1362   1.441   .     S
C1353  C1376   1.403   .     A
C1354  C1374   1.406   .     A
C1355  N1387   1.372   .     A
C1355  C1366   1.443   .     S
C1356  N1385   1.372   .     A
C1356  C1367   1.443   .     S
C1356  C386    1.426   1_556 S
C1357  C1368   1.442   .     S
C1357  N1385   1.371   .     A
C1357  C383    1.426   1_556 S
C1358  N1387   1.371   .     A
C1358  C1369   1.442   .     S
C1359  N1388   1.158   .     T
C1359  C1426   1.456   .     S
C1360  N1389   1.158   .     T
C1361  N1390   1.157   .     T
C1361  C1374   1.447   .     S
C1362  O1399   1.294   .     A
C1362  O1397   1.293   .     A
C1363  C1375   1.447   .     S
C1363  N1391   1.157   .     T
C1364  H1381   1.108   .     S
C1364  H1380   1.113   .     S
C1364  O1404   1.411   .     S
C1364  H1379   1.111   .     S
C1365  H1384   1.108   .     S
C1365  H1382   1.113   .     S
C1365  O1396   1.411   .     S
C1365  H1383   1.111   .     S
C1366  N1392   1.157   .     T
C1367  N1393   1.157   .     T
C1368  N1394   1.157   .     T
C1369  N1386   1.157   .     T
C1370  O1402   1.300   .     A
C1370  C1372   1.444   .     S
C1370  O1400   1.290   .     A
C1371  O1401   1.290   .     A
C1371  O1403   1.300   .     A
C1371  C1373   1.444   .     S
C1373  C1426   1.365   .     S
C1373  C1414   1.456   .     S
C1375  C1028   1.397   1_565 S
C1376  O1404   1.385   .     S
C1376  C1050   1.397   1_565 S
Cu1377 O1403   1.986   .     S
Cu1377 O1400   1.984   .     S
Cu1377 O1395   1.951   .     S
Cu1377 N1385   2.028   .     S
Cu1377 O1399   1.950   .     S
Cu1377 Cu1378  2.699   .     S
Cu1378 O1402   1.986   .     S
Cu1378 N1387   2.028   .     S
Cu1378 O1397   1.951   .     S
Cu1378 O1401   1.984   .     S
Cu1378 O1398   1.950   .     S
C1405  O1452   1.294   .     A
C1405  O1449   1.293   .     A
C1405  C1408   1.441   .     S
C1406  C1408   1.403   .     A
C1406  O1450   1.385   .     S
C1407  C1429   1.406   .     A
C1407  C1416   1.441   .     S
C1407  C1430   1.403   .     A
C1408  C1428   1.406   .     A
C1409  N1441   1.372   .     A
C1409  C1420   1.443   .     S
C1410  N1439   1.372   .     A
C1410  C1421   1.443   .     S
C1410  C440    1.426   1_556 S
C1411  C1422   1.442   .     S
C1411  N1439   1.371   .     A
C1411  C437    1.426   1_556 S
C1412  N1441   1.371   .     A
C1412  C1423   1.442   .     S
C1413  N1442   1.158   .     T
C1413  C1318   1.456   1_655 S
C1414  N1443   1.158   .     T
C1415  N1444   1.157   .     T
C1415  C1428   1.447   .     S
C1416  O1453   1.294   .     A
C1416  O1451   1.293   .     A
C1417  C1429   1.447   .     S
C1417  N1445   1.157   .     T
C1418  H1435   1.108   .     S
C1418  H1434   1.113   .     S
C1418  O1458   1.411   .     S
C1418  H1433   1.111   .     S
C1419  H1438   1.108   .     S
C1419  H1436   1.113   .     S
C1419  O1450   1.411   .     S
C1419  H1437   1.111   .     S
C1420  N1446   1.157   .     T
C1421  N1447   1.157   .     T
C1422  N1448   1.157   .     T
C1423  N1440   1.157   .     T
C1424  O1456   1.300   .     A
C1424  C1426   1.444   .     S
C1424  O1454   1.290   .     A
C1425  O1455   1.290   .     A
C1425  O1457   1.300   .     A
C1425  C1427   1.444   .     S
C1427  C1318   1.365   1_655 S
C1427  C1306   1.456   1_655 S
C1429  C1082   1.397   1_565 S
C1430  O1458   1.385   .     S
C1430  C1104   1.397   1_565 S
Cu1431 O1457   1.986   .     S
Cu1431 O1454   1.984   .     S
Cu1431 O1449   1.951   .     S
Cu1431 N1439   2.028   .     S
Cu1431 O1453   1.950   .     S
Cu1431 Cu1432  2.699   .     S
Cu1432 O1456   1.986   .     S
Cu1432 N1441   2.028   .     S
Cu1432 O1451   1.951   .     S
Cu1432 O1455   1.984   .     S
Cu1432 O1452   1.950   .     S
