data_str_m2_o2_o5_pcu_sym.29
_audit_creation_date              2020-01-03
_audit_creation_method            'Materials Studio'
_symmetry_space_group_name_H-M    'P1'
_symmetry_Int_Tables_number       1
_symmetry_cell_setting            triclinic
loop_
_symmetry_equiv_pos_as_xyz
  x,y,z
_cell_length_a                    30.2215
_cell_length_b                    27.7423
_cell_length_c                    27.2247
_cell_angle_alpha                 89.7132
_cell_angle_beta                  90.2604
_cell_angle_gamma                 89.8562
loop_
_atom_site_label
_atom_site_type_symbol
_atom_site_fract_x
_atom_site_fract_y
_atom_site_fract_z
_atom_site_U_iso_or_equiv
_atom_site_adp_type
_atom_site_occupancy
C1     C     0.16488   0.25006   0.16522   0.00000  Uiso   1.00
C2     C     0.29009   0.44612   0.16663   0.00000  Uiso   1.00
C3     C     0.24996   0.25007   0.07352   0.00000  Uiso   1.00
C4     C     0.24998   0.24992   0.25982   0.00000  Uiso   1.00
C5     C     0.25024   0.02767   0.16493   0.00000  Uiso   1.00
C6     C     0.25010   0.47293   0.16453   0.00000  Uiso   1.00
C7     C     0.24994   0.25009   0.02184   0.00000  Uiso   1.00
C8     C     0.24995   0.24988   0.31149   0.00000  Uiso   1.00
C9     C     0.04774   0.29346   0.14892   0.00000  Uiso   1.00
C10    C     0.45261   0.20696   0.18211   0.00000  Uiso   1.00
C11    C     0.45226   0.29340   0.18136   0.00000  Uiso   1.00
C12    C     0.33514   0.24997   0.16783   0.00000  Uiso   1.00
C13    C     0.04789   0.20709   0.14891   0.00000  Uiso   1.00
C14    C     0.09359   0.29363   0.15420   0.00000  Uiso   1.00
C15    C     0.40667   0.20665   0.17781   0.00000  Uiso   1.00
C16    C     0.40637   0.29348   0.17694   0.00000  Uiso   1.00
C17    C     0.09375   0.20680   0.15406   0.00000  Uiso   1.00
C18    C     0.11661   0.25016   0.16043   0.00000  Uiso   1.00
C19    C     0.38348   0.24999   0.17169   0.00000  Uiso   1.00
C20    C     0.02408   0.25025   0.15760   0.00000  Uiso   1.00
C21    C     0.47611   0.25020   0.17285   0.00000  Uiso   1.00
C22    C     0.27579   0.01164   0.27429   0.00000  Uiso   1.00
C23    C     0.27402   0.10426   0.20060   0.00000  Uiso   1.00
C24    C     0.30450   0.47629   0.30374   0.00000  Uiso   1.00
C25    C     0.27741   0.44738   0.00744   0.00000  Uiso   1.00
C26    C     0.15473   0.48550   0.20581   0.00000  Uiso   1.00
C27    C     0.13607   0.44438   0.23743   0.00000  Uiso   1.00
C28    C     0.11736   0.46333   0.28558   0.00000  Uiso   1.00
C29    C     0.19945   0.05267   0.04733   0.00000  Uiso   1.00
C30    C     0.15313   0.07399   0.03932   0.00000  Uiso   1.00
C31    C     0.14982   0.09982   0.32312   0.00000  Uiso   1.00
C32    C     0.34909   0.47481   0.12251   0.00000  Uiso   1.00
C33    C     0.37996   0.43249   0.11055   0.00000  Uiso   1.00
C34    C     0.21119   0.39563   0.16260   0.00000  Uiso   1.00
C35    C     0.40800   0.44286   0.06528   0.00000  Uiso   1.00
C36    C     0.22596   0.10571   0.13206   0.00000  Uiso   1.00
C37    C     0.28883   0.39543   0.16977   0.00000  Uiso   1.00
C38    C     0.27394   0.05357   0.20156   0.00000  Uiso   1.00
C39    C     0.20994   0.44639   0.16360   0.00000  Uiso   1.00
C40    C     0.22647   0.05454   0.12887   0.00000  Uiso   1.00
Cl41   Cl    0.02454   0.34233   0.11579   0.00000  Uiso   1.00
Cl42   Cl    0.47642   0.15799   0.21453   0.00000  Uiso   1.00
Cl43   Cl    0.47545   0.34255   0.21335   0.00000  Uiso   1.00
Cl44   Cl    0.02471   0.15838   0.11622   0.00000  Uiso   1.00
Cu45   Cu    0.25000   0.29822   0.16667   0.00000  Uiso   1.00
Cu46   Cu    0.25000   0.20179   0.16667   0.00000  Uiso   1.00
H47    H     0.29344   0.12371   0.22743   0.00000  Uiso   1.00
H48    H     0.26499   0.04151   0.29854   0.00000  Uiso   1.00
H49    H     0.32064   0.45063   0.27814   0.00000  Uiso   1.00
H50    H     0.33076   0.49658   0.32338   0.00000  Uiso   1.00
H51    H     0.26312   0.47156   0.03554   0.00000  Uiso   1.00
H52    H     0.29912   0.42067   0.02626   0.00000  Uiso   1.00
H53    H     0.25033   0.42763   0.32193   0.00000  Uiso   1.00
H54    H     0.12781   0.01207   0.19896   0.00000  Uiso   1.00
H55    H     0.18089   0.00542   0.22588   0.00000  Uiso   1.00
H56    H     0.10947   0.42560   0.21674   0.00000  Uiso   1.00
H57    H     0.16261   0.41792   0.24625   0.00000  Uiso   1.00
H58    H     0.18030   0.37654   0.15945   0.00000  Uiso   1.00
H59    H     0.14404   0.48028   0.30761   0.00000  Uiso   1.00
H60    H     0.10326   0.43299   0.30711   0.00000  Uiso   1.00
H61    H     0.09080   0.49022   0.27834   0.00000  Uiso   1.00
H62    H     0.20428   0.02471   0.01890   0.00000  Uiso   1.00
H63    H     0.22595   0.07982   0.04088   0.00000  Uiso   1.00
H64    H     0.12833   0.04449   0.04049   0.00000  Uiso   1.00
H65    H     0.14484   0.09976   0.06894   0.00000  Uiso   1.00
H66    H     0.17347   0.13039   0.32172   0.00000  Uiso   1.00
H67    H     0.11578   0.11415   0.31790   0.00000  Uiso   1.00
H68    H     0.15721   0.07449   0.29275   0.00000  Uiso   1.00
H69    H     0.20659   0.12721   0.10679   0.00000  Uiso   1.00
H70    H     0.36889   0.00849   0.12314   0.00000  Uiso   1.00
H71    H     0.32380   0.47994   0.09305   0.00000  Uiso   1.00
H72    H     0.40230   0.42536   0.14234   0.00000  Uiso   1.00
H73    H     0.36013   0.39959   0.10352   0.00000  Uiso   1.00
H74    H     0.38650   0.44843   0.03260   0.00000  Uiso   1.00
H75    H     0.43021   0.41173   0.05824   0.00000  Uiso   1.00
H76    H     0.42864   0.47542   0.07112   0.00000  Uiso   1.00
H77    H     0.31957   0.37620   0.17439   0.00000  Uiso   1.00
H78    H     0.11127   0.32729   0.15000   0.00000  Uiso   1.00
H79    H     0.38907   0.17299   0.18260   0.00000  Uiso   1.00
H80    H     0.38859   0.32714   0.18105   0.00000  Uiso   1.00
H81    H     0.11158   0.17316   0.14975   0.00000  Uiso   1.00
H82    H     0.24633   0.49173   0.26098   0.00000  Uiso   1.00
N83    N     0.25000   0.12935   0.16667   0.00000  Uiso   1.00
N84    N     0.25000   0.37065   0.16667   0.00000  Uiso   1.00
O85    O     0.18573   0.29071   0.16667   0.00000  Uiso   1.00
O86    O     0.16904   0.46877   0.15950   0.00000  Uiso   1.00
O87    O     0.20219   0.02935   0.09365   0.00000  Uiso   1.00
O88    O     0.33062   0.46900   0.16980   0.00000  Uiso   1.00
O89    O     0.31427   0.20929   0.16666   0.00000  Uiso   1.00
O90    O     0.31427   0.29072   0.16666   0.00000  Uiso   1.00
O91    O     0.18573   0.20929   0.16667   0.00000  Uiso   1.00
O92    O     0.25000   0.29071   0.09613   0.00000  Uiso   1.00
O93    O     0.25000   0.20929   0.23720   0.00000  Uiso   1.00
O94    O     0.25000   0.29071   0.23720   0.00000  Uiso   1.00
O95    O     0.25000   0.20929   0.09613   0.00000  Uiso   1.00
O96    O     0.30115   0.03043   0.23527   0.00000  Uiso   1.00
C97    C     0.66488   0.25006   0.16522   0.00000  Uiso   1.00
C98    C     0.79009   0.44612   0.16663   0.00000  Uiso   1.00
C99    C     0.74996   0.25007   0.07352   0.00000  Uiso   1.00
C100   C     0.74998   0.24992   0.25982   0.00000  Uiso   1.00
C101   C     0.75024   0.02767   0.16493   0.00000  Uiso   1.00
C102   C     0.75010   0.47293   0.16453   0.00000  Uiso   1.00
C103   C     0.74994   0.25009   0.02184   0.00000  Uiso   1.00
C104   C     0.74995   0.24988   0.31149   0.00000  Uiso   1.00
C105   C     0.54774   0.29346   0.14892   0.00000  Uiso   1.00
C106   C     0.95261   0.20696   0.18211   0.00000  Uiso   1.00
C107   C     0.95226   0.29340   0.18136   0.00000  Uiso   1.00
C108   C     0.83514   0.24997   0.16783   0.00000  Uiso   1.00
C109   C     0.54789   0.20709   0.14891   0.00000  Uiso   1.00
C110   C     0.59359   0.29363   0.15420   0.00000  Uiso   1.00
C111   C     0.90667   0.20665   0.17781   0.00000  Uiso   1.00
C112   C     0.90637   0.29348   0.17694   0.00000  Uiso   1.00
C113   C     0.59375   0.20680   0.15406   0.00000  Uiso   1.00
C114   C     0.61661   0.25016   0.16043   0.00000  Uiso   1.00
C115   C     0.88348   0.24999   0.17169   0.00000  Uiso   1.00
C116   C     0.52408   0.25025   0.15760   0.00000  Uiso   1.00
C117   C     0.97611   0.25020   0.17285   0.00000  Uiso   1.00
C118   C     0.77579   0.01164   0.27429   0.00000  Uiso   1.00
C119   C     0.77402   0.10426   0.20060   0.00000  Uiso   1.00
C120   C     0.80450   0.47629   0.30374   0.00000  Uiso   1.00
C121   C     0.77741   0.44738   0.00744   0.00000  Uiso   1.00
C122   C     0.65473   0.48550   0.20581   0.00000  Uiso   1.00
C123   C     0.63607   0.44438   0.23743   0.00000  Uiso   1.00
C124   C     0.61736   0.46333   0.28558   0.00000  Uiso   1.00
C125   C     0.69945   0.05267   0.04733   0.00000  Uiso   1.00
C126   C     0.65313   0.07399   0.03932   0.00000  Uiso   1.00
C127   C     0.64982   0.09982   0.32312   0.00000  Uiso   1.00
C128   C     0.84909   0.47481   0.12251   0.00000  Uiso   1.00
C129   C     0.87996   0.43249   0.11055   0.00000  Uiso   1.00
C130   C     0.71119   0.39563   0.16260   0.00000  Uiso   1.00
C131   C     0.90800   0.44286   0.06528   0.00000  Uiso   1.00
C132   C     0.72596   0.10571   0.13206   0.00000  Uiso   1.00
C133   C     0.78883   0.39543   0.16977   0.00000  Uiso   1.00
C134   C     0.77394   0.05357   0.20156   0.00000  Uiso   1.00
C135   C     0.70994   0.44639   0.16360   0.00000  Uiso   1.00
C136   C     0.72647   0.05454   0.12887   0.00000  Uiso   1.00
Cl137  Cl    0.52454   0.34233   0.11579   0.00000  Uiso   1.00
Cl138  Cl    0.97642   0.15799   0.21453   0.00000  Uiso   1.00
Cl139  Cl    0.97545   0.34255   0.21335   0.00000  Uiso   1.00
Cl140  Cl    0.52471   0.15838   0.11622   0.00000  Uiso   1.00
Cu141  Cu    0.75000   0.29822   0.16667   0.00000  Uiso   1.00
Cu142  Cu    0.75000   0.20179   0.16667   0.00000  Uiso   1.00
H143   H     0.79344   0.12371   0.22743   0.00000  Uiso   1.00
H144   H     0.76499   0.04151   0.29854   0.00000  Uiso   1.00
H145   H     0.82064   0.45063   0.27814   0.00000  Uiso   1.00
H146   H     0.83076   0.49658   0.32338   0.00000  Uiso   1.00
H147   H     0.76312   0.47156   0.03554   0.00000  Uiso   1.00
H148   H     0.79912   0.42067   0.02626   0.00000  Uiso   1.00
H149   H     0.75033   0.42763   0.32193   0.00000  Uiso   1.00
H150   H     0.62781   0.01207   0.19896   0.00000  Uiso   1.00
H151   H     0.68089   0.00542   0.22588   0.00000  Uiso   1.00
H152   H     0.60947   0.42560   0.21674   0.00000  Uiso   1.00
H153   H     0.66261   0.41792   0.24625   0.00000  Uiso   1.00
H154   H     0.68030   0.37654   0.15945   0.00000  Uiso   1.00
H155   H     0.64404   0.48028   0.30761   0.00000  Uiso   1.00
H156   H     0.60326   0.43299   0.30711   0.00000  Uiso   1.00
H157   H     0.59080   0.49022   0.27834   0.00000  Uiso   1.00
H158   H     0.70428   0.02471   0.01890   0.00000  Uiso   1.00
H159   H     0.72595   0.07982   0.04088   0.00000  Uiso   1.00
H160   H     0.62833   0.04449   0.04049   0.00000  Uiso   1.00
H161   H     0.64484   0.09976   0.06894   0.00000  Uiso   1.00
H162   H     0.67347   0.13039   0.32172   0.00000  Uiso   1.00
H163   H     0.61578   0.11415   0.31790   0.00000  Uiso   1.00
H164   H     0.65721   0.07449   0.29275   0.00000  Uiso   1.00
H165   H     0.70659   0.12721   0.10679   0.00000  Uiso   1.00
H166   H     0.86889   0.00849   0.12314   0.00000  Uiso   1.00
H167   H     0.82380   0.47994   0.09305   0.00000  Uiso   1.00
H168   H     0.90230   0.42536   0.14234   0.00000  Uiso   1.00
H169   H     0.86013   0.39959   0.10352   0.00000  Uiso   1.00
H170   H     0.88650   0.44843   0.03260   0.00000  Uiso   1.00
H171   H     0.93021   0.41173   0.05824   0.00000  Uiso   1.00
H172   H     0.92864   0.47542   0.07112   0.00000  Uiso   1.00
H173   H     0.81957   0.37620   0.17439   0.00000  Uiso   1.00
H174   H     0.61127   0.32729   0.15000   0.00000  Uiso   1.00
H175   H     0.88907   0.17299   0.18260   0.00000  Uiso   1.00
H176   H     0.88859   0.32714   0.18105   0.00000  Uiso   1.00
H177   H     0.61158   0.17316   0.14975   0.00000  Uiso   1.00
H178   H     0.74633   0.49173   0.26098   0.00000  Uiso   1.00
N179   N     0.75000   0.12935   0.16667   0.00000  Uiso   1.00
N180   N     0.75000   0.37065   0.16667   0.00000  Uiso   1.00
O181   O     0.68573   0.29071   0.16667   0.00000  Uiso   1.00
O182   O     0.66904   0.46877   0.15950   0.00000  Uiso   1.00
O183   O     0.70219   0.02935   0.09365   0.00000  Uiso   1.00
O184   O     0.83062   0.46900   0.16980   0.00000  Uiso   1.00
O185   O     0.81427   0.20929   0.16666   0.00000  Uiso   1.00
O186   O     0.81427   0.29072   0.16666   0.00000  Uiso   1.00
O187   O     0.68573   0.20929   0.16667   0.00000  Uiso   1.00
O188   O     0.75000   0.29071   0.09613   0.00000  Uiso   1.00
O189   O     0.75000   0.20929   0.23720   0.00000  Uiso   1.00
O190   O     0.75000   0.29071   0.23720   0.00000  Uiso   1.00
O191   O     0.75000   0.20929   0.09613   0.00000  Uiso   1.00
O192   O     0.80115   0.03043   0.23527   0.00000  Uiso   1.00
C193   C     0.16488   0.75006   0.16522   0.00000  Uiso   1.00
C194   C     0.29009   0.94612   0.16663   0.00000  Uiso   1.00
C195   C     0.24996   0.75007   0.07352   0.00000  Uiso   1.00
C196   C     0.24998   0.74992   0.25982   0.00000  Uiso   1.00
C197   C     0.25024   0.52767   0.16493   0.00000  Uiso   1.00
C198   C     0.25010   0.97293   0.16453   0.00000  Uiso   1.00
C199   C     0.24994   0.75009   0.02184   0.00000  Uiso   1.00
C200   C     0.24995   0.74988   0.31149   0.00000  Uiso   1.00
C201   C     0.04774   0.79346   0.14892   0.00000  Uiso   1.00
C202   C     0.45261   0.70696   0.18211   0.00000  Uiso   1.00
C203   C     0.45226   0.79340   0.18136   0.00000  Uiso   1.00
C204   C     0.33514   0.74997   0.16783   0.00000  Uiso   1.00
C205   C     0.04789   0.70709   0.14891   0.00000  Uiso   1.00
C206   C     0.09359   0.79363   0.15420   0.00000  Uiso   1.00
C207   C     0.40667   0.70665   0.17781   0.00000  Uiso   1.00
C208   C     0.40637   0.79348   0.17694   0.00000  Uiso   1.00
C209   C     0.09375   0.70680   0.15406   0.00000  Uiso   1.00
C210   C     0.11661   0.75016   0.16043   0.00000  Uiso   1.00
C211   C     0.38348   0.74999   0.17169   0.00000  Uiso   1.00
C212   C     0.02408   0.75025   0.15760   0.00000  Uiso   1.00
C213   C     0.47611   0.75020   0.17285   0.00000  Uiso   1.00
C214   C     0.27579   0.51164   0.27429   0.00000  Uiso   1.00
C215   C     0.27402   0.60426   0.20060   0.00000  Uiso   1.00
C216   C     0.30450   0.97629   0.30374   0.00000  Uiso   1.00
C217   C     0.27741   0.94738   0.00744   0.00000  Uiso   1.00
C218   C     0.15473   0.98550   0.20581   0.00000  Uiso   1.00
C219   C     0.13607   0.94438   0.23743   0.00000  Uiso   1.00
C220   C     0.11736   0.96333   0.28558   0.00000  Uiso   1.00
C221   C     0.19945   0.55267   0.04733   0.00000  Uiso   1.00
C222   C     0.15313   0.57399   0.03932   0.00000  Uiso   1.00
C223   C     0.14982   0.59982   0.32312   0.00000  Uiso   1.00
C224   C     0.34909   0.97481   0.12251   0.00000  Uiso   1.00
C225   C     0.37996   0.93249   0.11055   0.00000  Uiso   1.00
C226   C     0.21119   0.89563   0.16260   0.00000  Uiso   1.00
C227   C     0.40800   0.94286   0.06528   0.00000  Uiso   1.00
C228   C     0.22596   0.60571   0.13206   0.00000  Uiso   1.00
C229   C     0.28883   0.89543   0.16977   0.00000  Uiso   1.00
C230   C     0.27394   0.55357   0.20156   0.00000  Uiso   1.00
C231   C     0.20994   0.94639   0.16360   0.00000  Uiso   1.00
C232   C     0.22647   0.55454   0.12887   0.00000  Uiso   1.00
Cl233  Cl    0.02454   0.84233   0.11579   0.00000  Uiso   1.00
Cl234  Cl    0.47642   0.65799   0.21453   0.00000  Uiso   1.00
Cl235  Cl    0.47545   0.84255   0.21335   0.00000  Uiso   1.00
Cl236  Cl    0.02471   0.65838   0.11622   0.00000  Uiso   1.00
Cu237  Cu    0.25000   0.79822   0.16667   0.00000  Uiso   1.00
Cu238  Cu    0.25000   0.70179   0.16667   0.00000  Uiso   1.00
H239   H     0.29344   0.62371   0.22743   0.00000  Uiso   1.00
H240   H     0.26499   0.54151   0.29854   0.00000  Uiso   1.00
H241   H     0.32064   0.95063   0.27814   0.00000  Uiso   1.00
H242   H     0.33076   0.99658   0.32338   0.00000  Uiso   1.00
H243   H     0.26312   0.97156   0.03554   0.00000  Uiso   1.00
H244   H     0.29912   0.92067   0.02626   0.00000  Uiso   1.00
H245   H     0.25033   0.92763   0.32193   0.00000  Uiso   1.00
H246   H     0.12781   0.51207   0.19896   0.00000  Uiso   1.00
H247   H     0.18089   0.50542   0.22588   0.00000  Uiso   1.00
H248   H     0.10947   0.92560   0.21674   0.00000  Uiso   1.00
H249   H     0.16261   0.91792   0.24625   0.00000  Uiso   1.00
H250   H     0.18030   0.87654   0.15945   0.00000  Uiso   1.00
H251   H     0.14404   0.98028   0.30761   0.00000  Uiso   1.00
H252   H     0.10326   0.93299   0.30711   0.00000  Uiso   1.00
H253   H     0.09080   0.99022   0.27834   0.00000  Uiso   1.00
H254   H     0.20428   0.52471   0.01890   0.00000  Uiso   1.00
H255   H     0.22595   0.57982   0.04088   0.00000  Uiso   1.00
H256   H     0.12833   0.54449   0.04049   0.00000  Uiso   1.00
H257   H     0.14484   0.59976   0.06894   0.00000  Uiso   1.00
H258   H     0.17347   0.63039   0.32172   0.00000  Uiso   1.00
H259   H     0.11578   0.61415   0.31790   0.00000  Uiso   1.00
H260   H     0.15721   0.57449   0.29275   0.00000  Uiso   1.00
H261   H     0.20659   0.62721   0.10679   0.00000  Uiso   1.00
H262   H     0.36889   0.50849   0.12314   0.00000  Uiso   1.00
H263   H     0.32380   0.97994   0.09305   0.00000  Uiso   1.00
H264   H     0.40230   0.92536   0.14234   0.00000  Uiso   1.00
H265   H     0.36013   0.89959   0.10352   0.00000  Uiso   1.00
H266   H     0.38650   0.94843   0.03260   0.00000  Uiso   1.00
H267   H     0.43021   0.91173   0.05824   0.00000  Uiso   1.00
H268   H     0.42864   0.97542   0.07112   0.00000  Uiso   1.00
H269   H     0.31957   0.87620   0.17439   0.00000  Uiso   1.00
H270   H     0.11127   0.82729   0.15000   0.00000  Uiso   1.00
H271   H     0.38907   0.67299   0.18260   0.00000  Uiso   1.00
H272   H     0.38859   0.82714   0.18105   0.00000  Uiso   1.00
H273   H     0.11158   0.67316   0.14975   0.00000  Uiso   1.00
H274   H     0.24633   0.99173   0.26098   0.00000  Uiso   1.00
N275   N     0.25000   0.62935   0.16667   0.00000  Uiso   1.00
N276   N     0.25000   0.87065   0.16667   0.00000  Uiso   1.00
O277   O     0.18573   0.79071   0.16667   0.00000  Uiso   1.00
O278   O     0.16904   0.96877   0.15950   0.00000  Uiso   1.00
O279   O     0.20219   0.52935   0.09365   0.00000  Uiso   1.00
O280   O     0.33062   0.96900   0.16980   0.00000  Uiso   1.00
O281   O     0.31427   0.70929   0.16666   0.00000  Uiso   1.00
O282   O     0.31427   0.79072   0.16666   0.00000  Uiso   1.00
O283   O     0.18573   0.70929   0.16667   0.00000  Uiso   1.00
O284   O     0.25000   0.79071   0.09613   0.00000  Uiso   1.00
O285   O     0.25000   0.70929   0.23720   0.00000  Uiso   1.00
O286   O     0.25000   0.79071   0.23720   0.00000  Uiso   1.00
O287   O     0.25000   0.70929   0.09613   0.00000  Uiso   1.00
O288   O     0.30115   0.53043   0.23527   0.00000  Uiso   1.00
C289   C     0.66488   0.75006   0.16522   0.00000  Uiso   1.00
C290   C     0.79009   0.94612   0.16663   0.00000  Uiso   1.00
C291   C     0.74996   0.75007   0.07352   0.00000  Uiso   1.00
C292   C     0.74998   0.74992   0.25982   0.00000  Uiso   1.00
C293   C     0.75024   0.52767   0.16493   0.00000  Uiso   1.00
C294   C     0.75010   0.97293   0.16453   0.00000  Uiso   1.00
C295   C     0.74994   0.75009   0.02184   0.00000  Uiso   1.00
C296   C     0.74995   0.74988   0.31149   0.00000  Uiso   1.00
C297   C     0.54774   0.79346   0.14892   0.00000  Uiso   1.00
C298   C     0.95261   0.70696   0.18211   0.00000  Uiso   1.00
C299   C     0.95226   0.79340   0.18136   0.00000  Uiso   1.00
C300   C     0.83514   0.74997   0.16783   0.00000  Uiso   1.00
C301   C     0.54789   0.70709   0.14891   0.00000  Uiso   1.00
C302   C     0.59359   0.79363   0.15420   0.00000  Uiso   1.00
C303   C     0.90667   0.70665   0.17781   0.00000  Uiso   1.00
C304   C     0.90637   0.79348   0.17694   0.00000  Uiso   1.00
C305   C     0.59375   0.70680   0.15406   0.00000  Uiso   1.00
C306   C     0.61661   0.75016   0.16043   0.00000  Uiso   1.00
C307   C     0.88348   0.74999   0.17169   0.00000  Uiso   1.00
C308   C     0.52408   0.75025   0.15760   0.00000  Uiso   1.00
C309   C     0.97611   0.75020   0.17285   0.00000  Uiso   1.00
C310   C     0.77579   0.51164   0.27429   0.00000  Uiso   1.00
C311   C     0.77402   0.60426   0.20060   0.00000  Uiso   1.00
C312   C     0.80450   0.97629   0.30374   0.00000  Uiso   1.00
C313   C     0.77741   0.94738   0.00744   0.00000  Uiso   1.00
C314   C     0.65473   0.98550   0.20581   0.00000  Uiso   1.00
C315   C     0.63607   0.94438   0.23743   0.00000  Uiso   1.00
C316   C     0.61736   0.96333   0.28558   0.00000  Uiso   1.00
C317   C     0.69945   0.55267   0.04733   0.00000  Uiso   1.00
C318   C     0.65313   0.57399   0.03932   0.00000  Uiso   1.00
C319   C     0.64982   0.59982   0.32312   0.00000  Uiso   1.00
C320   C     0.84909   0.97481   0.12251   0.00000  Uiso   1.00
C321   C     0.87996   0.93249   0.11055   0.00000  Uiso   1.00
C322   C     0.71119   0.89563   0.16260   0.00000  Uiso   1.00
C323   C     0.90800   0.94286   0.06528   0.00000  Uiso   1.00
C324   C     0.72596   0.60571   0.13206   0.00000  Uiso   1.00
C325   C     0.78883   0.89543   0.16977   0.00000  Uiso   1.00
C326   C     0.77394   0.55357   0.20156   0.00000  Uiso   1.00
C327   C     0.70994   0.94639   0.16360   0.00000  Uiso   1.00
C328   C     0.72647   0.55454   0.12887   0.00000  Uiso   1.00
Cl329  Cl    0.52454   0.84233   0.11579   0.00000  Uiso   1.00
Cl330  Cl    0.97642   0.65799   0.21453   0.00000  Uiso   1.00
Cl331  Cl    0.97545   0.84255   0.21335   0.00000  Uiso   1.00
Cl332  Cl    0.52471   0.65838   0.11622   0.00000  Uiso   1.00
Cu333  Cu    0.75000   0.79822   0.16667   0.00000  Uiso   1.00
Cu334  Cu    0.75000   0.70179   0.16667   0.00000  Uiso   1.00
H335   H     0.79344   0.62371   0.22743   0.00000  Uiso   1.00
H336   H     0.76499   0.54151   0.29854   0.00000  Uiso   1.00
H337   H     0.82064   0.95063   0.27814   0.00000  Uiso   1.00
H338   H     0.83076   0.99658   0.32338   0.00000  Uiso   1.00
H339   H     0.76312   0.97156   0.03554   0.00000  Uiso   1.00
H340   H     0.79912   0.92067   0.02626   0.00000  Uiso   1.00
H341   H     0.75033   0.92763   0.32193   0.00000  Uiso   1.00
H342   H     0.62781   0.51207   0.19896   0.00000  Uiso   1.00
H343   H     0.68089   0.50542   0.22588   0.00000  Uiso   1.00
H344   H     0.60947   0.92560   0.21674   0.00000  Uiso   1.00
H345   H     0.66261   0.91792   0.24625   0.00000  Uiso   1.00
H346   H     0.68030   0.87654   0.15945   0.00000  Uiso   1.00
H347   H     0.64404   0.98028   0.30761   0.00000  Uiso   1.00
H348   H     0.60326   0.93299   0.30711   0.00000  Uiso   1.00
H349   H     0.59080   0.99022   0.27834   0.00000  Uiso   1.00
H350   H     0.70428   0.52471   0.01890   0.00000  Uiso   1.00
H351   H     0.72595   0.57982   0.04088   0.00000  Uiso   1.00
H352   H     0.62833   0.54449   0.04049   0.00000  Uiso   1.00
H353   H     0.64484   0.59976   0.06894   0.00000  Uiso   1.00
H354   H     0.67347   0.63039   0.32172   0.00000  Uiso   1.00
H355   H     0.61578   0.61415   0.31790   0.00000  Uiso   1.00
H356   H     0.65721   0.57449   0.29275   0.00000  Uiso   1.00
H357   H     0.70659   0.62721   0.10679   0.00000  Uiso   1.00
H358   H     0.86889   0.50849   0.12314   0.00000  Uiso   1.00
H359   H     0.82380   0.97994   0.09305   0.00000  Uiso   1.00
H360   H     0.90230   0.92536   0.14234   0.00000  Uiso   1.00
H361   H     0.86013   0.89959   0.10352   0.00000  Uiso   1.00
H362   H     0.88650   0.94843   0.03260   0.00000  Uiso   1.00
H363   H     0.93021   0.91173   0.05824   0.00000  Uiso   1.00
H364   H     0.92864   0.97542   0.07112   0.00000  Uiso   1.00
H365   H     0.81957   0.87620   0.17439   0.00000  Uiso   1.00
H366   H     0.61127   0.82729   0.15000   0.00000  Uiso   1.00
H367   H     0.88907   0.67299   0.18260   0.00000  Uiso   1.00
H368   H     0.88859   0.82714   0.18105   0.00000  Uiso   1.00
H369   H     0.61158   0.67316   0.14975   0.00000  Uiso   1.00
H370   H     0.74633   0.99173   0.26098   0.00000  Uiso   1.00
N371   N     0.75000   0.62935   0.16667   0.00000  Uiso   1.00
N372   N     0.75000   0.87065   0.16667   0.00000  Uiso   1.00
O373   O     0.68573   0.79071   0.16667   0.00000  Uiso   1.00
O374   O     0.66904   0.96877   0.15950   0.00000  Uiso   1.00
O375   O     0.70219   0.52935   0.09365   0.00000  Uiso   1.00
O376   O     0.83062   0.96900   0.16980   0.00000  Uiso   1.00
O377   O     0.81427   0.70929   0.16666   0.00000  Uiso   1.00
O378   O     0.81427   0.79072   0.16666   0.00000  Uiso   1.00
O379   O     0.68573   0.70929   0.16667   0.00000  Uiso   1.00
O380   O     0.75000   0.79071   0.09613   0.00000  Uiso   1.00
O381   O     0.75000   0.70929   0.23720   0.00000  Uiso   1.00
O382   O     0.75000   0.79071   0.23720   0.00000  Uiso   1.00
O383   O     0.75000   0.70929   0.09613   0.00000  Uiso   1.00
O384   O     0.80115   0.53043   0.23527   0.00000  Uiso   1.00
C385   C     0.16488   0.25006   0.49855   0.00000  Uiso   1.00
C386   C     0.29009   0.44612   0.49996   0.00000  Uiso   1.00
C387   C     0.24996   0.25007   0.40685   0.00000  Uiso   1.00
C388   C     0.24998   0.24992   0.59315   0.00000  Uiso   1.00
C389   C     0.25024   0.02767   0.49826   0.00000  Uiso   1.00
C390   C     0.25010   0.47293   0.49787   0.00000  Uiso   1.00
C391   C     0.24994   0.25009   0.35517   0.00000  Uiso   1.00
C392   C     0.24995   0.24988   0.64483   0.00000  Uiso   1.00
C393   C     0.04774   0.29346   0.48225   0.00000  Uiso   1.00
C394   C     0.45261   0.20696   0.51544   0.00000  Uiso   1.00
C395   C     0.45226   0.29340   0.51470   0.00000  Uiso   1.00
C396   C     0.33514   0.24997   0.50116   0.00000  Uiso   1.00
C397   C     0.04789   0.20709   0.48224   0.00000  Uiso   1.00
C398   C     0.09359   0.29363   0.48753   0.00000  Uiso   1.00
C399   C     0.40667   0.20665   0.51114   0.00000  Uiso   1.00
C400   C     0.40637   0.29348   0.51027   0.00000  Uiso   1.00
C401   C     0.09375   0.20680   0.48739   0.00000  Uiso   1.00
C402   C     0.11661   0.25016   0.49376   0.00000  Uiso   1.00
C403   C     0.38348   0.24999   0.50502   0.00000  Uiso   1.00
C404   C     0.02408   0.25025   0.49093   0.00000  Uiso   1.00
C405   C     0.47611   0.25020   0.50618   0.00000  Uiso   1.00
C406   C     0.27579   0.01164   0.60762   0.00000  Uiso   1.00
C407   C     0.27402   0.10426   0.53394   0.00000  Uiso   1.00
C408   C     0.30450   0.47629   0.63707   0.00000  Uiso   1.00
C409   C     0.27741   0.44738   0.34077   0.00000  Uiso   1.00
C410   C     0.15473   0.48550   0.53915   0.00000  Uiso   1.00
C411   C     0.13607   0.44438   0.57076   0.00000  Uiso   1.00
C412   C     0.11736   0.46333   0.61891   0.00000  Uiso   1.00
C413   C     0.19945   0.05267   0.38066   0.00000  Uiso   1.00
C414   C     0.15313   0.07399   0.37265   0.00000  Uiso   1.00
C415   C     0.14982   0.09982   0.65646   0.00000  Uiso   1.00
C416   C     0.34909   0.47481   0.45585   0.00000  Uiso   1.00
C417   C     0.37996   0.43249   0.44388   0.00000  Uiso   1.00
C418   C     0.21119   0.39563   0.49593   0.00000  Uiso   1.00
C419   C     0.40800   0.44286   0.39861   0.00000  Uiso   1.00
C420   C     0.22596   0.10571   0.46539   0.00000  Uiso   1.00
C421   C     0.28883   0.39543   0.50310   0.00000  Uiso   1.00
C422   C     0.27394   0.05357   0.53490   0.00000  Uiso   1.00
C423   C     0.20994   0.44639   0.49693   0.00000  Uiso   1.00
C424   C     0.22647   0.05454   0.46220   0.00000  Uiso   1.00
Cl425  Cl    0.02454   0.34233   0.44912   0.00000  Uiso   1.00
Cl426  Cl    0.47642   0.15799   0.54786   0.00000  Uiso   1.00
Cl427  Cl    0.47545   0.34255   0.54669   0.00000  Uiso   1.00
Cl428  Cl    0.02471   0.15838   0.44955   0.00000  Uiso   1.00
Cu429  Cu    0.25000   0.29822   0.50000   0.00000  Uiso   1.00
Cu430  Cu    0.25000   0.20179   0.50000   0.00000  Uiso   1.00
H431   H     0.29344   0.12371   0.56076   0.00000  Uiso   1.00
H432   H     0.26499   0.04151   0.63188   0.00000  Uiso   1.00
H433   H     0.32064   0.45063   0.61148   0.00000  Uiso   1.00
H434   H     0.33076   0.49658   0.65671   0.00000  Uiso   1.00
H435   H     0.26312   0.47156   0.36887   0.00000  Uiso   1.00
H436   H     0.29912   0.42067   0.35960   0.00000  Uiso   1.00
H437   H     0.25033   0.42763   0.65526   0.00000  Uiso   1.00
H438   H     0.12781   0.01207   0.53229   0.00000  Uiso   1.00
H439   H     0.18089   0.00542   0.55921   0.00000  Uiso   1.00
H440   H     0.10947   0.42560   0.55007   0.00000  Uiso   1.00
H441   H     0.16261   0.41792   0.57959   0.00000  Uiso   1.00
H442   H     0.18030   0.37654   0.49278   0.00000  Uiso   1.00
H443   H     0.14404   0.48028   0.64095   0.00000  Uiso   1.00
H444   H     0.10326   0.43299   0.64044   0.00000  Uiso   1.00
H445   H     0.09080   0.49022   0.61168   0.00000  Uiso   1.00
H446   H     0.20428   0.02471   0.35223   0.00000  Uiso   1.00
H447   H     0.22595   0.07982   0.37422   0.00000  Uiso   1.00
H448   H     0.12833   0.04449   0.37382   0.00000  Uiso   1.00
H449   H     0.14484   0.09976   0.40227   0.00000  Uiso   1.00
H450   H     0.17347   0.13039   0.65505   0.00000  Uiso   1.00
H451   H     0.11578   0.11415   0.65123   0.00000  Uiso   1.00
H452   H     0.15721   0.07449   0.62608   0.00000  Uiso   1.00
H453   H     0.20659   0.12721   0.44012   0.00000  Uiso   1.00
H454   H     0.36889   0.00849   0.45647   0.00000  Uiso   1.00
H455   H     0.32380   0.47994   0.42638   0.00000  Uiso   1.00
H456   H     0.40230   0.42536   0.47567   0.00000  Uiso   1.00
H457   H     0.36013   0.39959   0.43685   0.00000  Uiso   1.00
H458   H     0.38650   0.44843   0.36594   0.00000  Uiso   1.00
H459   H     0.43021   0.41173   0.39157   0.00000  Uiso   1.00
H460   H     0.42864   0.47542   0.40446   0.00000  Uiso   1.00
H461   H     0.31957   0.37620   0.50772   0.00000  Uiso   1.00
H462   H     0.11127   0.32729   0.48333   0.00000  Uiso   1.00
H463   H     0.38907   0.17299   0.51593   0.00000  Uiso   1.00
H464   H     0.38859   0.32714   0.51439   0.00000  Uiso   1.00
H465   H     0.11158   0.17316   0.48308   0.00000  Uiso   1.00
H466   H     0.24633   0.49173   0.59432   0.00000  Uiso   1.00
N467   N     0.25000   0.12935   0.50000   0.00000  Uiso   1.00
N468   N     0.25000   0.37065   0.50000   0.00000  Uiso   1.00
O469   O     0.18573   0.29071   0.50000   0.00000  Uiso   1.00
O470   O     0.16904   0.46877   0.49284   0.00000  Uiso   1.00
O471   O     0.20219   0.02935   0.42698   0.00000  Uiso   1.00
O472   O     0.33062   0.46900   0.50313   0.00000  Uiso   1.00
O473   O     0.31427   0.20929   0.50000   0.00000  Uiso   1.00
O474   O     0.31427   0.29072   0.50000   0.00000  Uiso   1.00
O475   O     0.18573   0.20929   0.50000   0.00000  Uiso   1.00
O476   O     0.25000   0.29071   0.42946   0.00000  Uiso   1.00
O477   O     0.25000   0.20929   0.57054   0.00000  Uiso   1.00
O478   O     0.25000   0.29071   0.57054   0.00000  Uiso   1.00
O479   O     0.25000   0.20929   0.42946   0.00000  Uiso   1.00
O480   O     0.30115   0.03043   0.56861   0.00000  Uiso   1.00
C481   C     0.66488   0.25006   0.49855   0.00000  Uiso   1.00
C482   C     0.79009   0.44612   0.49996   0.00000  Uiso   1.00
C483   C     0.74996   0.25007   0.40685   0.00000  Uiso   1.00
C484   C     0.74998   0.24992   0.59315   0.00000  Uiso   1.00
C485   C     0.75024   0.02767   0.49826   0.00000  Uiso   1.00
C486   C     0.75010   0.47293   0.49787   0.00000  Uiso   1.00
C487   C     0.74994   0.25009   0.35517   0.00000  Uiso   1.00
C488   C     0.74995   0.24988   0.64483   0.00000  Uiso   1.00
C489   C     0.54774   0.29346   0.48225   0.00000  Uiso   1.00
C490   C     0.95261   0.20696   0.51544   0.00000  Uiso   1.00
C491   C     0.95226   0.29340   0.51470   0.00000  Uiso   1.00
C492   C     0.83514   0.24997   0.50116   0.00000  Uiso   1.00
C493   C     0.54789   0.20709   0.48224   0.00000  Uiso   1.00
C494   C     0.59359   0.29363   0.48753   0.00000  Uiso   1.00
C495   C     0.90667   0.20665   0.51114   0.00000  Uiso   1.00
C496   C     0.90637   0.29348   0.51027   0.00000  Uiso   1.00
C497   C     0.59375   0.20680   0.48739   0.00000  Uiso   1.00
C498   C     0.61661   0.25016   0.49376   0.00000  Uiso   1.00
C499   C     0.88348   0.24999   0.50502   0.00000  Uiso   1.00
C500   C     0.52408   0.25025   0.49093   0.00000  Uiso   1.00
C501   C     0.97611   0.25020   0.50618   0.00000  Uiso   1.00
C502   C     0.77579   0.01164   0.60762   0.00000  Uiso   1.00
C503   C     0.77402   0.10426   0.53394   0.00000  Uiso   1.00
C504   C     0.80450   0.47629   0.63707   0.00000  Uiso   1.00
C505   C     0.77741   0.44738   0.34077   0.00000  Uiso   1.00
C506   C     0.65473   0.48550   0.53915   0.00000  Uiso   1.00
C507   C     0.63607   0.44438   0.57076   0.00000  Uiso   1.00
C508   C     0.61736   0.46333   0.61891   0.00000  Uiso   1.00
C509   C     0.69945   0.05267   0.38066   0.00000  Uiso   1.00
C510   C     0.65313   0.07399   0.37265   0.00000  Uiso   1.00
C511   C     0.64982   0.09982   0.65646   0.00000  Uiso   1.00
C512   C     0.84909   0.47481   0.45585   0.00000  Uiso   1.00
C513   C     0.87996   0.43249   0.44388   0.00000  Uiso   1.00
C514   C     0.71119   0.39563   0.49593   0.00000  Uiso   1.00
C515   C     0.90800   0.44286   0.39861   0.00000  Uiso   1.00
C516   C     0.72596   0.10571   0.46539   0.00000  Uiso   1.00
C517   C     0.78883   0.39543   0.50310   0.00000  Uiso   1.00
C518   C     0.77394   0.05357   0.53490   0.00000  Uiso   1.00
C519   C     0.70994   0.44639   0.49693   0.00000  Uiso   1.00
C520   C     0.72647   0.05454   0.46220   0.00000  Uiso   1.00
Cl521  Cl    0.52454   0.34233   0.44912   0.00000  Uiso   1.00
Cl522  Cl    0.97642   0.15799   0.54786   0.00000  Uiso   1.00
Cl523  Cl    0.97545   0.34255   0.54669   0.00000  Uiso   1.00
Cl524  Cl    0.52471   0.15838   0.44955   0.00000  Uiso   1.00
Cu525  Cu    0.75000   0.29822   0.50000   0.00000  Uiso   1.00
Cu526  Cu    0.75000   0.20179   0.50000   0.00000  Uiso   1.00
H527   H     0.79344   0.12371   0.56076   0.00000  Uiso   1.00
H528   H     0.76499   0.04151   0.63188   0.00000  Uiso   1.00
H529   H     0.82064   0.45063   0.61148   0.00000  Uiso   1.00
H530   H     0.83076   0.49658   0.65671   0.00000  Uiso   1.00
H531   H     0.76312   0.47156   0.36887   0.00000  Uiso   1.00
H532   H     0.79912   0.42067   0.35960   0.00000  Uiso   1.00
H533   H     0.75033   0.42763   0.65526   0.00000  Uiso   1.00
H534   H     0.62781   0.01207   0.53229   0.00000  Uiso   1.00
H535   H     0.68089   0.00542   0.55921   0.00000  Uiso   1.00
H536   H     0.60947   0.42560   0.55007   0.00000  Uiso   1.00
H537   H     0.66261   0.41792   0.57959   0.00000  Uiso   1.00
H538   H     0.68030   0.37654   0.49278   0.00000  Uiso   1.00
H539   H     0.64404   0.48028   0.64095   0.00000  Uiso   1.00
H540   H     0.60326   0.43299   0.64044   0.00000  Uiso   1.00
H541   H     0.59080   0.49022   0.61168   0.00000  Uiso   1.00
H542   H     0.70428   0.02471   0.35223   0.00000  Uiso   1.00
H543   H     0.72595   0.07982   0.37422   0.00000  Uiso   1.00
H544   H     0.62833   0.04449   0.37382   0.00000  Uiso   1.00
H545   H     0.64484   0.09976   0.40227   0.00000  Uiso   1.00
H546   H     0.67347   0.13039   0.65505   0.00000  Uiso   1.00
H547   H     0.61578   0.11415   0.65123   0.00000  Uiso   1.00
H548   H     0.65721   0.07449   0.62608   0.00000  Uiso   1.00
H549   H     0.70659   0.12721   0.44012   0.00000  Uiso   1.00
H550   H     0.86889   0.00849   0.45647   0.00000  Uiso   1.00
H551   H     0.82380   0.47994   0.42638   0.00000  Uiso   1.00
H552   H     0.90230   0.42536   0.47567   0.00000  Uiso   1.00
H553   H     0.86013   0.39959   0.43685   0.00000  Uiso   1.00
H554   H     0.88650   0.44843   0.36594   0.00000  Uiso   1.00
H555   H     0.93021   0.41173   0.39157   0.00000  Uiso   1.00
H556   H     0.92864   0.47542   0.40446   0.00000  Uiso   1.00
H557   H     0.81957   0.37620   0.50772   0.00000  Uiso   1.00
H558   H     0.61127   0.32729   0.48333   0.00000  Uiso   1.00
H559   H     0.88907   0.17299   0.51593   0.00000  Uiso   1.00
H560   H     0.88859   0.32714   0.51439   0.00000  Uiso   1.00
H561   H     0.61158   0.17316   0.48308   0.00000  Uiso   1.00
H562   H     0.74633   0.49173   0.59432   0.00000  Uiso   1.00
N563   N     0.75000   0.12935   0.50000   0.00000  Uiso   1.00
N564   N     0.75000   0.37065   0.50000   0.00000  Uiso   1.00
O565   O     0.68573   0.29071   0.50000   0.00000  Uiso   1.00
O566   O     0.66904   0.46877   0.49284   0.00000  Uiso   1.00
O567   O     0.70219   0.02935   0.42698   0.00000  Uiso   1.00
O568   O     0.83062   0.46900   0.50313   0.00000  Uiso   1.00
O569   O     0.81427   0.20929   0.50000   0.00000  Uiso   1.00
O570   O     0.81427   0.29072   0.50000   0.00000  Uiso   1.00
O571   O     0.68573   0.20929   0.50000   0.00000  Uiso   1.00
O572   O     0.75000   0.29071   0.42946   0.00000  Uiso   1.00
O573   O     0.75000   0.20929   0.57054   0.00000  Uiso   1.00
O574   O     0.75000   0.29071   0.57054   0.00000  Uiso   1.00
O575   O     0.75000   0.20929   0.42946   0.00000  Uiso   1.00
O576   O     0.80115   0.03043   0.56861   0.00000  Uiso   1.00
C577   C     0.16488   0.75006   0.49855   0.00000  Uiso   1.00
C578   C     0.29009   0.94612   0.49996   0.00000  Uiso   1.00
C579   C     0.24996   0.75007   0.40685   0.00000  Uiso   1.00
C580   C     0.24998   0.74992   0.59315   0.00000  Uiso   1.00
C581   C     0.25024   0.52767   0.49826   0.00000  Uiso   1.00
C582   C     0.25010   0.97293   0.49787   0.00000  Uiso   1.00
C583   C     0.24994   0.75009   0.35517   0.00000  Uiso   1.00
C584   C     0.24995   0.74988   0.64483   0.00000  Uiso   1.00
C585   C     0.04774   0.79346   0.48225   0.00000  Uiso   1.00
C586   C     0.45261   0.70696   0.51544   0.00000  Uiso   1.00
C587   C     0.45226   0.79340   0.51470   0.00000  Uiso   1.00
C588   C     0.33514   0.74997   0.50116   0.00000  Uiso   1.00
C589   C     0.04789   0.70709   0.48224   0.00000  Uiso   1.00
C590   C     0.09359   0.79363   0.48753   0.00000  Uiso   1.00
C591   C     0.40667   0.70665   0.51114   0.00000  Uiso   1.00
C592   C     0.40637   0.79348   0.51027   0.00000  Uiso   1.00
C593   C     0.09375   0.70680   0.48739   0.00000  Uiso   1.00
C594   C     0.11661   0.75016   0.49376   0.00000  Uiso   1.00
C595   C     0.38348   0.74999   0.50502   0.00000  Uiso   1.00
C596   C     0.02408   0.75025   0.49093   0.00000  Uiso   1.00
C597   C     0.47611   0.75020   0.50618   0.00000  Uiso   1.00
C598   C     0.27579   0.51164   0.60762   0.00000  Uiso   1.00
C599   C     0.27402   0.60426   0.53394   0.00000  Uiso   1.00
C600   C     0.30450   0.97629   0.63707   0.00000  Uiso   1.00
C601   C     0.27741   0.94738   0.34077   0.00000  Uiso   1.00
C602   C     0.15473   0.98550   0.53915   0.00000  Uiso   1.00
C603   C     0.13607   0.94438   0.57076   0.00000  Uiso   1.00
C604   C     0.11736   0.96333   0.61891   0.00000  Uiso   1.00
C605   C     0.19945   0.55267   0.38066   0.00000  Uiso   1.00
C606   C     0.15313   0.57399   0.37265   0.00000  Uiso   1.00
C607   C     0.14982   0.59982   0.65646   0.00000  Uiso   1.00
C608   C     0.34909   0.97481   0.45585   0.00000  Uiso   1.00
C609   C     0.37996   0.93249   0.44388   0.00000  Uiso   1.00
C610   C     0.21119   0.89563   0.49593   0.00000  Uiso   1.00
C611   C     0.40800   0.94286   0.39861   0.00000  Uiso   1.00
C612   C     0.22596   0.60571   0.46539   0.00000  Uiso   1.00
C613   C     0.28883   0.89543   0.50310   0.00000  Uiso   1.00
C614   C     0.27394   0.55357   0.53490   0.00000  Uiso   1.00
C615   C     0.20994   0.94639   0.49693   0.00000  Uiso   1.00
C616   C     0.22647   0.55454   0.46220   0.00000  Uiso   1.00
Cl617  Cl    0.02454   0.84233   0.44912   0.00000  Uiso   1.00
Cl618  Cl    0.47642   0.65799   0.54786   0.00000  Uiso   1.00
Cl619  Cl    0.47545   0.84255   0.54669   0.00000  Uiso   1.00
Cl620  Cl    0.02471   0.65838   0.44955   0.00000  Uiso   1.00
Cu621  Cu    0.25000   0.79822   0.50000   0.00000  Uiso   1.00
Cu622  Cu    0.25000   0.70179   0.50000   0.00000  Uiso   1.00
H623   H     0.29344   0.62371   0.56076   0.00000  Uiso   1.00
H624   H     0.26499   0.54151   0.63188   0.00000  Uiso   1.00
H625   H     0.32064   0.95063   0.61148   0.00000  Uiso   1.00
H626   H     0.33076   0.99658   0.65671   0.00000  Uiso   1.00
H627   H     0.26312   0.97156   0.36887   0.00000  Uiso   1.00
H628   H     0.29912   0.92067   0.35960   0.00000  Uiso   1.00
H629   H     0.25033   0.92763   0.65526   0.00000  Uiso   1.00
H630   H     0.12781   0.51207   0.53229   0.00000  Uiso   1.00
H631   H     0.18089   0.50542   0.55921   0.00000  Uiso   1.00
H632   H     0.10947   0.92560   0.55007   0.00000  Uiso   1.00
H633   H     0.16261   0.91792   0.57959   0.00000  Uiso   1.00
H634   H     0.18030   0.87654   0.49278   0.00000  Uiso   1.00
H635   H     0.14404   0.98028   0.64095   0.00000  Uiso   1.00
H636   H     0.10326   0.93299   0.64044   0.00000  Uiso   1.00
H637   H     0.09080   0.99022   0.61168   0.00000  Uiso   1.00
H638   H     0.20428   0.52471   0.35223   0.00000  Uiso   1.00
H639   H     0.22595   0.57982   0.37422   0.00000  Uiso   1.00
H640   H     0.12833   0.54449   0.37382   0.00000  Uiso   1.00
H641   H     0.14484   0.59976   0.40227   0.00000  Uiso   1.00
H642   H     0.17347   0.63039   0.65505   0.00000  Uiso   1.00
H643   H     0.11578   0.61415   0.65123   0.00000  Uiso   1.00
H644   H     0.15721   0.57449   0.62608   0.00000  Uiso   1.00
H645   H     0.20659   0.62721   0.44012   0.00000  Uiso   1.00
H646   H     0.36889   0.50849   0.45647   0.00000  Uiso   1.00
H647   H     0.32380   0.97994   0.42638   0.00000  Uiso   1.00
H648   H     0.40230   0.92536   0.47567   0.00000  Uiso   1.00
H649   H     0.36013   0.89959   0.43685   0.00000  Uiso   1.00
H650   H     0.38650   0.94843   0.36594   0.00000  Uiso   1.00
H651   H     0.43021   0.91173   0.39157   0.00000  Uiso   1.00
H652   H     0.42864   0.97542   0.40446   0.00000  Uiso   1.00
H653   H     0.31957   0.87620   0.50772   0.00000  Uiso   1.00
H654   H     0.11127   0.82729   0.48333   0.00000  Uiso   1.00
H655   H     0.38907   0.67299   0.51593   0.00000  Uiso   1.00
H656   H     0.38859   0.82714   0.51439   0.00000  Uiso   1.00
H657   H     0.11158   0.67316   0.48308   0.00000  Uiso   1.00
H658   H     0.24633   0.99173   0.59432   0.00000  Uiso   1.00
N659   N     0.25000   0.62935   0.50000   0.00000  Uiso   1.00
N660   N     0.25000   0.87065   0.50000   0.00000  Uiso   1.00
O661   O     0.18573   0.79071   0.50000   0.00000  Uiso   1.00
O662   O     0.16904   0.96877   0.49284   0.00000  Uiso   1.00
O663   O     0.20219   0.52935   0.42698   0.00000  Uiso   1.00
O664   O     0.33062   0.96900   0.50313   0.00000  Uiso   1.00
O665   O     0.31427   0.70929   0.50000   0.00000  Uiso   1.00
O666   O     0.31427   0.79072   0.50000   0.00000  Uiso   1.00
O667   O     0.18573   0.70929   0.50000   0.00000  Uiso   1.00
O668   O     0.25000   0.79071   0.42946   0.00000  Uiso   1.00
O669   O     0.25000   0.70929   0.57054   0.00000  Uiso   1.00
O670   O     0.25000   0.79071   0.57054   0.00000  Uiso   1.00
O671   O     0.25000   0.70929   0.42946   0.00000  Uiso   1.00
O672   O     0.30115   0.53043   0.56861   0.00000  Uiso   1.00
C673   C     0.66488   0.75006   0.49855   0.00000  Uiso   1.00
C674   C     0.79009   0.94612   0.49996   0.00000  Uiso   1.00
C675   C     0.74996   0.75007   0.40685   0.00000  Uiso   1.00
C676   C     0.74998   0.74992   0.59315   0.00000  Uiso   1.00
C677   C     0.75024   0.52767   0.49826   0.00000  Uiso   1.00
C678   C     0.75010   0.97293   0.49787   0.00000  Uiso   1.00
C679   C     0.74994   0.75009   0.35517   0.00000  Uiso   1.00
C680   C     0.74995   0.74988   0.64483   0.00000  Uiso   1.00
C681   C     0.54774   0.79346   0.48225   0.00000  Uiso   1.00
C682   C     0.95261   0.70696   0.51544   0.00000  Uiso   1.00
C683   C     0.95226   0.79340   0.51470   0.00000  Uiso   1.00
C684   C     0.83514   0.74997   0.50116   0.00000  Uiso   1.00
C685   C     0.54789   0.70709   0.48224   0.00000  Uiso   1.00
C686   C     0.59359   0.79363   0.48753   0.00000  Uiso   1.00
C687   C     0.90667   0.70665   0.51114   0.00000  Uiso   1.00
C688   C     0.90637   0.79348   0.51027   0.00000  Uiso   1.00
C689   C     0.59375   0.70680   0.48739   0.00000  Uiso   1.00
C690   C     0.61661   0.75016   0.49376   0.00000  Uiso   1.00
C691   C     0.88348   0.74999   0.50502   0.00000  Uiso   1.00
C692   C     0.52408   0.75025   0.49093   0.00000  Uiso   1.00
C693   C     0.97611   0.75020   0.50618   0.00000  Uiso   1.00
C694   C     0.77579   0.51164   0.60762   0.00000  Uiso   1.00
C695   C     0.77402   0.60426   0.53394   0.00000  Uiso   1.00
C696   C     0.80450   0.97629   0.63707   0.00000  Uiso   1.00
C697   C     0.77741   0.94738   0.34077   0.00000  Uiso   1.00
C698   C     0.65473   0.98550   0.53915   0.00000  Uiso   1.00
C699   C     0.63607   0.94438   0.57076   0.00000  Uiso   1.00
C700   C     0.61736   0.96333   0.61891   0.00000  Uiso   1.00
C701   C     0.69945   0.55267   0.38066   0.00000  Uiso   1.00
C702   C     0.65313   0.57399   0.37265   0.00000  Uiso   1.00
C703   C     0.64982   0.59982   0.65646   0.00000  Uiso   1.00
C704   C     0.84909   0.97481   0.45585   0.00000  Uiso   1.00
C705   C     0.87996   0.93249   0.44388   0.00000  Uiso   1.00
C706   C     0.71119   0.89563   0.49593   0.00000  Uiso   1.00
C707   C     0.90800   0.94286   0.39861   0.00000  Uiso   1.00
C708   C     0.72596   0.60571   0.46539   0.00000  Uiso   1.00
C709   C     0.78883   0.89543   0.50310   0.00000  Uiso   1.00
C710   C     0.77394   0.55357   0.53490   0.00000  Uiso   1.00
C711   C     0.70994   0.94639   0.49693   0.00000  Uiso   1.00
C712   C     0.72647   0.55454   0.46220   0.00000  Uiso   1.00
Cl713  Cl    0.52454   0.84233   0.44912   0.00000  Uiso   1.00
Cl714  Cl    0.97642   0.65799   0.54786   0.00000  Uiso   1.00
Cl715  Cl    0.97545   0.84255   0.54669   0.00000  Uiso   1.00
Cl716  Cl    0.52471   0.65838   0.44955   0.00000  Uiso   1.00
Cu717  Cu    0.75000   0.79822   0.50000   0.00000  Uiso   1.00
Cu718  Cu    0.75000   0.70179   0.50000   0.00000  Uiso   1.00
H719   H     0.79344   0.62371   0.56076   0.00000  Uiso   1.00
H720   H     0.76499   0.54151   0.63188   0.00000  Uiso   1.00
H721   H     0.82064   0.95063   0.61148   0.00000  Uiso   1.00
H722   H     0.83076   0.99658   0.65671   0.00000  Uiso   1.00
H723   H     0.76312   0.97156   0.36887   0.00000  Uiso   1.00
H724   H     0.79912   0.92067   0.35960   0.00000  Uiso   1.00
H725   H     0.75033   0.92763   0.65526   0.00000  Uiso   1.00
H726   H     0.62781   0.51207   0.53229   0.00000  Uiso   1.00
H727   H     0.68089   0.50542   0.55921   0.00000  Uiso   1.00
H728   H     0.60947   0.92560   0.55007   0.00000  Uiso   1.00
H729   H     0.66261   0.91792   0.57959   0.00000  Uiso   1.00
H730   H     0.68030   0.87654   0.49278   0.00000  Uiso   1.00
H731   H     0.64404   0.98028   0.64095   0.00000  Uiso   1.00
H732   H     0.60326   0.93299   0.64044   0.00000  Uiso   1.00
H733   H     0.59080   0.99022   0.61168   0.00000  Uiso   1.00
H734   H     0.70428   0.52471   0.35223   0.00000  Uiso   1.00
H735   H     0.72595   0.57982   0.37422   0.00000  Uiso   1.00
H736   H     0.62833   0.54449   0.37382   0.00000  Uiso   1.00
H737   H     0.64484   0.59976   0.40227   0.00000  Uiso   1.00
H738   H     0.67347   0.63039   0.65505   0.00000  Uiso   1.00
H739   H     0.61578   0.61415   0.65123   0.00000  Uiso   1.00
H740   H     0.65721   0.57449   0.62608   0.00000  Uiso   1.00
H741   H     0.70659   0.62721   0.44012   0.00000  Uiso   1.00
H742   H     0.86889   0.50849   0.45647   0.00000  Uiso   1.00
H743   H     0.82380   0.97994   0.42638   0.00000  Uiso   1.00
H744   H     0.90230   0.92536   0.47567   0.00000  Uiso   1.00
H745   H     0.86013   0.89959   0.43685   0.00000  Uiso   1.00
H746   H     0.88650   0.94843   0.36594   0.00000  Uiso   1.00
H747   H     0.93021   0.91173   0.39157   0.00000  Uiso   1.00
H748   H     0.92864   0.97542   0.40446   0.00000  Uiso   1.00
H749   H     0.81957   0.87620   0.50772   0.00000  Uiso   1.00
H750   H     0.61127   0.82729   0.48333   0.00000  Uiso   1.00
H751   H     0.88907   0.67299   0.51593   0.00000  Uiso   1.00
H752   H     0.88859   0.82714   0.51439   0.00000  Uiso   1.00
H753   H     0.61158   0.67316   0.48308   0.00000  Uiso   1.00
H754   H     0.74633   0.99173   0.59432   0.00000  Uiso   1.00
N755   N     0.75000   0.62935   0.50000   0.00000  Uiso   1.00
N756   N     0.75000   0.87065   0.50000   0.00000  Uiso   1.00
O757   O     0.68573   0.79071   0.50000   0.00000  Uiso   1.00
O758   O     0.66904   0.96877   0.49284   0.00000  Uiso   1.00
O759   O     0.70219   0.52935   0.42698   0.00000  Uiso   1.00
O760   O     0.83062   0.96900   0.50313   0.00000  Uiso   1.00
O761   O     0.81427   0.70929   0.50000   0.00000  Uiso   1.00
O762   O     0.81427   0.79072   0.50000   0.00000  Uiso   1.00
O763   O     0.68573   0.70929   0.50000   0.00000  Uiso   1.00
O764   O     0.75000   0.79071   0.42946   0.00000  Uiso   1.00
O765   O     0.75000   0.70929   0.57054   0.00000  Uiso   1.00
O766   O     0.75000   0.79071   0.57054   0.00000  Uiso   1.00
O767   O     0.75000   0.70929   0.42946   0.00000  Uiso   1.00
O768   O     0.80115   0.53043   0.56861   0.00000  Uiso   1.00
C769   C     0.16488   0.25006   0.83189   0.00000  Uiso   1.00
C770   C     0.29009   0.44612   0.83329   0.00000  Uiso   1.00
C771   C     0.24996   0.25007   0.74018   0.00000  Uiso   1.00
C772   C     0.24998   0.24992   0.92648   0.00000  Uiso   1.00
C773   C     0.25024   0.02767   0.83160   0.00000  Uiso   1.00
C774   C     0.25010   0.47293   0.83120   0.00000  Uiso   1.00
C775   C     0.24994   0.25009   0.68851   0.00000  Uiso   1.00
C776   C     0.24995   0.24988   0.97816   0.00000  Uiso   1.00
C777   C     0.04774   0.29346   0.81559   0.00000  Uiso   1.00
C778   C     0.45261   0.20696   0.84878   0.00000  Uiso   1.00
C779   C     0.45226   0.29340   0.84803   0.00000  Uiso   1.00
C780   C     0.33514   0.24997   0.83450   0.00000  Uiso   1.00
C781   C     0.04789   0.20709   0.81557   0.00000  Uiso   1.00
C782   C     0.09359   0.29363   0.82087   0.00000  Uiso   1.00
C783   C     0.40667   0.20665   0.84447   0.00000  Uiso   1.00
C784   C     0.40637   0.29348   0.84361   0.00000  Uiso   1.00
C785   C     0.09375   0.20680   0.82072   0.00000  Uiso   1.00
C786   C     0.11661   0.25016   0.82710   0.00000  Uiso   1.00
C787   C     0.38348   0.24999   0.83835   0.00000  Uiso   1.00
C788   C     0.02408   0.25025   0.82426   0.00000  Uiso   1.00
C789   C     0.47611   0.25020   0.83951   0.00000  Uiso   1.00
C790   C     0.27579   0.01164   0.94096   0.00000  Uiso   1.00
C791   C     0.27402   0.10426   0.86727   0.00000  Uiso   1.00
C792   C     0.30450   0.47629   0.97040   0.00000  Uiso   1.00
C793   C     0.27741   0.44738   0.67410   0.00000  Uiso   1.00
C794   C     0.15473   0.48550   0.87248   0.00000  Uiso   1.00
C795   C     0.13607   0.44438   0.90410   0.00000  Uiso   1.00
C796   C     0.11736   0.46333   0.95224   0.00000  Uiso   1.00
C797   C     0.19945   0.05267   0.71400   0.00000  Uiso   1.00
C798   C     0.15313   0.07399   0.70599   0.00000  Uiso   1.00
C799   C     0.14982   0.09982   0.98979   0.00000  Uiso   1.00
C800   C     0.34909   0.47481   0.78918   0.00000  Uiso   1.00
C801   C     0.37996   0.43249   0.77722   0.00000  Uiso   1.00
C802   C     0.21119   0.39563   0.82926   0.00000  Uiso   1.00
C803   C     0.40800   0.44286   0.73195   0.00000  Uiso   1.00
C804   C     0.22596   0.10571   0.79872   0.00000  Uiso   1.00
C805   C     0.28883   0.39543   0.83643   0.00000  Uiso   1.00
C806   C     0.27394   0.05357   0.86823   0.00000  Uiso   1.00
C807   C     0.20994   0.44639   0.83026   0.00000  Uiso   1.00
C808   C     0.22647   0.05454   0.79553   0.00000  Uiso   1.00
Cl809  Cl    0.02454   0.34233   0.78245   0.00000  Uiso   1.00
Cl810  Cl    0.47642   0.15799   0.88120   0.00000  Uiso   1.00
Cl811  Cl    0.47545   0.34255   0.88002   0.00000  Uiso   1.00
Cl812  Cl    0.02471   0.15838   0.78288   0.00000  Uiso   1.00
Cu813  Cu    0.25000   0.29822   0.83333   0.00000  Uiso   1.00
Cu814  Cu    0.25000   0.20179   0.83333   0.00000  Uiso   1.00
H815   H     0.29344   0.12371   0.89410   0.00000  Uiso   1.00
H816   H     0.26499   0.04151   0.96521   0.00000  Uiso   1.00
H817   H     0.32064   0.45063   0.94481   0.00000  Uiso   1.00
H818   H     0.33076   0.49658   0.99004   0.00000  Uiso   1.00
H819   H     0.26312   0.47156   0.70220   0.00000  Uiso   1.00
H820   H     0.29912   0.42067   0.69293   0.00000  Uiso   1.00
H821   H     0.25033   0.42763   0.98860   0.00000  Uiso   1.00
H822   H     0.12781   0.01207   0.86563   0.00000  Uiso   1.00
H823   H     0.18089   0.00542   0.89255   0.00000  Uiso   1.00
H824   H     0.10947   0.42560   0.88341   0.00000  Uiso   1.00
H825   H     0.16261   0.41792   0.91292   0.00000  Uiso   1.00
H826   H     0.18030   0.37654   0.82612   0.00000  Uiso   1.00
H827   H     0.14404   0.48028   0.97428   0.00000  Uiso   1.00
H828   H     0.10326   0.43299   0.97378   0.00000  Uiso   1.00
H829   H     0.09080   0.49022   0.94501   0.00000  Uiso   1.00
H830   H     0.20428   0.02471   0.68557   0.00000  Uiso   1.00
H831   H     0.22595   0.07982   0.70755   0.00000  Uiso   1.00
H832   H     0.12833   0.04449   0.70716   0.00000  Uiso   1.00
H833   H     0.14484   0.09976   0.73561   0.00000  Uiso   1.00
H834   H     0.17347   0.13039   0.98839   0.00000  Uiso   1.00
H835   H     0.11578   0.11415   0.98456   0.00000  Uiso   1.00
H836   H     0.15721   0.07449   0.95941   0.00000  Uiso   1.00
H837   H     0.20659   0.12721   0.77345   0.00000  Uiso   1.00
H838   H     0.36889   0.00849   0.78981   0.00000  Uiso   1.00
H839   H     0.32380   0.47994   0.75972   0.00000  Uiso   1.00
H840   H     0.40230   0.42536   0.80901   0.00000  Uiso   1.00
H841   H     0.36013   0.39959   0.77019   0.00000  Uiso   1.00
H842   H     0.38650   0.44843   0.69927   0.00000  Uiso   1.00
H843   H     0.43021   0.41173   0.72490   0.00000  Uiso   1.00
H844   H     0.42864   0.47542   0.73779   0.00000  Uiso   1.00
H845   H     0.31957   0.37620   0.84106   0.00000  Uiso   1.00
H846   H     0.11127   0.32729   0.81666   0.00000  Uiso   1.00
H847   H     0.38907   0.17299   0.84926   0.00000  Uiso   1.00
H848   H     0.38859   0.32714   0.84772   0.00000  Uiso   1.00
H849   H     0.11158   0.17316   0.81641   0.00000  Uiso   1.00
H850   H     0.24633   0.49173   0.92765   0.00000  Uiso   1.00
N851   N     0.25000   0.12935   0.83333   0.00000  Uiso   1.00
N852   N     0.25000   0.37065   0.83333   0.00000  Uiso   1.00
O853   O     0.18573   0.29071   0.83334   0.00000  Uiso   1.00
O854   O     0.16904   0.46877   0.82617   0.00000  Uiso   1.00
O855   O     0.20219   0.02935   0.76031   0.00000  Uiso   1.00
O856   O     0.33062   0.46900   0.83647   0.00000  Uiso   1.00
O857   O     0.31427   0.20929   0.83333   0.00000  Uiso   1.00
O858   O     0.31427   0.29072   0.83333   0.00000  Uiso   1.00
O859   O     0.18573   0.20929   0.83334   0.00000  Uiso   1.00
O860   O     0.25000   0.29071   0.76280   0.00000  Uiso   1.00
O861   O     0.25000   0.20929   0.90387   0.00000  Uiso   1.00
O862   O     0.25000   0.29071   0.90387   0.00000  Uiso   1.00
O863   O     0.25000   0.20929   0.76280   0.00000  Uiso   1.00
O864   O     0.30115   0.03043   0.90194   0.00000  Uiso   1.00
C865   C     0.66488   0.25006   0.83189   0.00000  Uiso   1.00
C866   C     0.79009   0.44612   0.83329   0.00000  Uiso   1.00
C867   C     0.74996   0.25007   0.74018   0.00000  Uiso   1.00
C868   C     0.74998   0.24992   0.92648   0.00000  Uiso   1.00
C869   C     0.75024   0.02767   0.83160   0.00000  Uiso   1.00
C870   C     0.75010   0.47293   0.83120   0.00000  Uiso   1.00
C871   C     0.74994   0.25009   0.68851   0.00000  Uiso   1.00
C872   C     0.74995   0.24988   0.97816   0.00000  Uiso   1.00
C873   C     0.54774   0.29346   0.81559   0.00000  Uiso   1.00
C874   C     0.95261   0.20696   0.84878   0.00000  Uiso   1.00
C875   C     0.95226   0.29340   0.84803   0.00000  Uiso   1.00
C876   C     0.83514   0.24997   0.83450   0.00000  Uiso   1.00
C877   C     0.54789   0.20709   0.81557   0.00000  Uiso   1.00
C878   C     0.59359   0.29363   0.82087   0.00000  Uiso   1.00
C879   C     0.90667   0.20665   0.84447   0.00000  Uiso   1.00
C880   C     0.90637   0.29348   0.84361   0.00000  Uiso   1.00
C881   C     0.59375   0.20680   0.82072   0.00000  Uiso   1.00
C882   C     0.61661   0.25016   0.82710   0.00000  Uiso   1.00
C883   C     0.88348   0.24999   0.83835   0.00000  Uiso   1.00
C884   C     0.52408   0.25025   0.82426   0.00000  Uiso   1.00
C885   C     0.97611   0.25020   0.83951   0.00000  Uiso   1.00
C886   C     0.77579   0.01164   0.94096   0.00000  Uiso   1.00
C887   C     0.77402   0.10426   0.86727   0.00000  Uiso   1.00
C888   C     0.80450   0.47629   0.97040   0.00000  Uiso   1.00
C889   C     0.77741   0.44738   0.67410   0.00000  Uiso   1.00
C890   C     0.65473   0.48550   0.87248   0.00000  Uiso   1.00
C891   C     0.63607   0.44438   0.90410   0.00000  Uiso   1.00
C892   C     0.61736   0.46333   0.95224   0.00000  Uiso   1.00
C893   C     0.69945   0.05267   0.71400   0.00000  Uiso   1.00
C894   C     0.65313   0.07399   0.70599   0.00000  Uiso   1.00
C895   C     0.64982   0.09982   0.98979   0.00000  Uiso   1.00
C896   C     0.84909   0.47481   0.78918   0.00000  Uiso   1.00
C897   C     0.87996   0.43249   0.77722   0.00000  Uiso   1.00
C898   C     0.71119   0.39563   0.82926   0.00000  Uiso   1.00
C899   C     0.90800   0.44286   0.73195   0.00000  Uiso   1.00
C900   C     0.72596   0.10571   0.79872   0.00000  Uiso   1.00
C901   C     0.78883   0.39543   0.83643   0.00000  Uiso   1.00
C902   C     0.77394   0.05357   0.86823   0.00000  Uiso   1.00
C903   C     0.70994   0.44639   0.83026   0.00000  Uiso   1.00
C904   C     0.72647   0.05454   0.79553   0.00000  Uiso   1.00
Cl905  Cl    0.52454   0.34233   0.78245   0.00000  Uiso   1.00
Cl906  Cl    0.97642   0.15799   0.88120   0.00000  Uiso   1.00
Cl907  Cl    0.97545   0.34255   0.88002   0.00000  Uiso   1.00
Cl908  Cl    0.52471   0.15838   0.78288   0.00000  Uiso   1.00
Cu909  Cu    0.75000   0.29822   0.83333   0.00000  Uiso   1.00
Cu910  Cu    0.75000   0.20179   0.83333   0.00000  Uiso   1.00
H911   H     0.79344   0.12371   0.89410   0.00000  Uiso   1.00
H912   H     0.76499   0.04151   0.96521   0.00000  Uiso   1.00
H913   H     0.82064   0.45063   0.94481   0.00000  Uiso   1.00
H914   H     0.83076   0.49658   0.99004   0.00000  Uiso   1.00
H915   H     0.76312   0.47156   0.70220   0.00000  Uiso   1.00
H916   H     0.79912   0.42067   0.69293   0.00000  Uiso   1.00
H917   H     0.75033   0.42763   0.98860   0.00000  Uiso   1.00
H918   H     0.62781   0.01207   0.86563   0.00000  Uiso   1.00
H919   H     0.68089   0.00542   0.89255   0.00000  Uiso   1.00
H920   H     0.60947   0.42560   0.88341   0.00000  Uiso   1.00
H921   H     0.66261   0.41792   0.91292   0.00000  Uiso   1.00
H922   H     0.68030   0.37654   0.82612   0.00000  Uiso   1.00
H923   H     0.64404   0.48028   0.97428   0.00000  Uiso   1.00
H924   H     0.60326   0.43299   0.97378   0.00000  Uiso   1.00
H925   H     0.59080   0.49022   0.94501   0.00000  Uiso   1.00
H926   H     0.70428   0.02471   0.68557   0.00000  Uiso   1.00
H927   H     0.72595   0.07982   0.70755   0.00000  Uiso   1.00
H928   H     0.62833   0.04449   0.70716   0.00000  Uiso   1.00
H929   H     0.64484   0.09976   0.73561   0.00000  Uiso   1.00
H930   H     0.67347   0.13039   0.98839   0.00000  Uiso   1.00
H931   H     0.61578   0.11415   0.98456   0.00000  Uiso   1.00
H932   H     0.65721   0.07449   0.95941   0.00000  Uiso   1.00
H933   H     0.70659   0.12721   0.77345   0.00000  Uiso   1.00
H934   H     0.86889   0.00849   0.78981   0.00000  Uiso   1.00
H935   H     0.82380   0.47994   0.75972   0.00000  Uiso   1.00
H936   H     0.90230   0.42536   0.80901   0.00000  Uiso   1.00
H937   H     0.86013   0.39959   0.77019   0.00000  Uiso   1.00
H938   H     0.88650   0.44843   0.69927   0.00000  Uiso   1.00
H939   H     0.93021   0.41173   0.72490   0.00000  Uiso   1.00
H940   H     0.92864   0.47542   0.73779   0.00000  Uiso   1.00
H941   H     0.81957   0.37620   0.84106   0.00000  Uiso   1.00
H942   H     0.61127   0.32729   0.81666   0.00000  Uiso   1.00
H943   H     0.88907   0.17299   0.84926   0.00000  Uiso   1.00
H944   H     0.88859   0.32714   0.84772   0.00000  Uiso   1.00
H945   H     0.61158   0.17316   0.81641   0.00000  Uiso   1.00
H946   H     0.74633   0.49173   0.92765   0.00000  Uiso   1.00
N947   N     0.75000   0.12935   0.83333   0.00000  Uiso   1.00
N948   N     0.75000   0.37065   0.83333   0.00000  Uiso   1.00
O949   O     0.68573   0.29071   0.83334   0.00000  Uiso   1.00
O950   O     0.66904   0.46877   0.82617   0.00000  Uiso   1.00
O951   O     0.70219   0.02935   0.76031   0.00000  Uiso   1.00
O952   O     0.83062   0.46900   0.83647   0.00000  Uiso   1.00
O953   O     0.81427   0.20929   0.83333   0.00000  Uiso   1.00
O954   O     0.81427   0.29072   0.83333   0.00000  Uiso   1.00
O955   O     0.68573   0.20929   0.83334   0.00000  Uiso   1.00
O956   O     0.75000   0.29071   0.76280   0.00000  Uiso   1.00
O957   O     0.75000   0.20929   0.90387   0.00000  Uiso   1.00
O958   O     0.75000   0.29071   0.90387   0.00000  Uiso   1.00
O959   O     0.75000   0.20929   0.76280   0.00000  Uiso   1.00
O960   O     0.80115   0.03043   0.90194   0.00000  Uiso   1.00
C961   C     0.16488   0.75006   0.83189   0.00000  Uiso   1.00
C962   C     0.29009   0.94612   0.83329   0.00000  Uiso   1.00
C963   C     0.24996   0.75007   0.74018   0.00000  Uiso   1.00
C964   C     0.24998   0.74992   0.92648   0.00000  Uiso   1.00
C965   C     0.25024   0.52767   0.83160   0.00000  Uiso   1.00
C966   C     0.25010   0.97293   0.83120   0.00000  Uiso   1.00
C967   C     0.24994   0.75009   0.68851   0.00000  Uiso   1.00
C968   C     0.24995   0.74988   0.97816   0.00000  Uiso   1.00
C969   C     0.04774   0.79346   0.81559   0.00000  Uiso   1.00
C970   C     0.45261   0.70696   0.84878   0.00000  Uiso   1.00
C971   C     0.45226   0.79340   0.84803   0.00000  Uiso   1.00
C972   C     0.33514   0.74997   0.83450   0.00000  Uiso   1.00
C973   C     0.04789   0.70709   0.81557   0.00000  Uiso   1.00
C974   C     0.09359   0.79363   0.82087   0.00000  Uiso   1.00
C975   C     0.40667   0.70665   0.84447   0.00000  Uiso   1.00
C976   C     0.40637   0.79348   0.84361   0.00000  Uiso   1.00
C977   C     0.09375   0.70680   0.82072   0.00000  Uiso   1.00
C978   C     0.11661   0.75016   0.82710   0.00000  Uiso   1.00
C979   C     0.38348   0.74999   0.83835   0.00000  Uiso   1.00
C980   C     0.02408   0.75025   0.82426   0.00000  Uiso   1.00
C981   C     0.47611   0.75020   0.83951   0.00000  Uiso   1.00
C982   C     0.27579   0.51164   0.94096   0.00000  Uiso   1.00
C983   C     0.27402   0.60426   0.86727   0.00000  Uiso   1.00
C984   C     0.30450   0.97629   0.97040   0.00000  Uiso   1.00
C985   C     0.27741   0.94738   0.67410   0.00000  Uiso   1.00
C986   C     0.15473   0.98550   0.87248   0.00000  Uiso   1.00
C987   C     0.13607   0.94438   0.90410   0.00000  Uiso   1.00
C988   C     0.11736   0.96333   0.95224   0.00000  Uiso   1.00
C989   C     0.19945   0.55267   0.71400   0.00000  Uiso   1.00
C990   C     0.15313   0.57399   0.70599   0.00000  Uiso   1.00
C991   C     0.14982   0.59982   0.98979   0.00000  Uiso   1.00
C992   C     0.34909   0.97481   0.78918   0.00000  Uiso   1.00
C993   C     0.37996   0.93249   0.77722   0.00000  Uiso   1.00
C994   C     0.21119   0.89563   0.82926   0.00000  Uiso   1.00
C995   C     0.40800   0.94286   0.73195   0.00000  Uiso   1.00
C996   C     0.22596   0.60571   0.79872   0.00000  Uiso   1.00
C997   C     0.28883   0.89543   0.83643   0.00000  Uiso   1.00
C998   C     0.27394   0.55357   0.86823   0.00000  Uiso   1.00
C999   C     0.20994   0.94639   0.83026   0.00000  Uiso   1.00
C1000  C     0.22647   0.55454   0.79553   0.00000  Uiso   1.00
Cl1001 Cl    0.02454   0.84233   0.78245   0.00000  Uiso   1.00
Cl1002 Cl    0.47642   0.65799   0.88120   0.00000  Uiso   1.00
Cl1003 Cl    0.47545   0.84255   0.88002   0.00000  Uiso   1.00
Cl1004 Cl    0.02471   0.65838   0.78288   0.00000  Uiso   1.00
Cu1005 Cu    0.25000   0.79822   0.83333   0.00000  Uiso   1.00
Cu1006 Cu    0.25000   0.70179   0.83333   0.00000  Uiso   1.00
H1007  H     0.29344   0.62371   0.89410   0.00000  Uiso   1.00
H1008  H     0.26499   0.54151   0.96521   0.00000  Uiso   1.00
H1009  H     0.32064   0.95063   0.94481   0.00000  Uiso   1.00
H1010  H     0.33076   0.99658   0.99004   0.00000  Uiso   1.00
H1011  H     0.26312   0.97156   0.70220   0.00000  Uiso   1.00
H1012  H     0.29912   0.92067   0.69293   0.00000  Uiso   1.00
H1013  H     0.25033   0.92763   0.98860   0.00000  Uiso   1.00
H1014  H     0.12781   0.51207   0.86563   0.00000  Uiso   1.00
H1015  H     0.18089   0.50542   0.89255   0.00000  Uiso   1.00
H1016  H     0.10947   0.92560   0.88341   0.00000  Uiso   1.00
H1017  H     0.16261   0.91792   0.91292   0.00000  Uiso   1.00
H1018  H     0.18030   0.87654   0.82612   0.00000  Uiso   1.00
H1019  H     0.14404   0.98028   0.97428   0.00000  Uiso   1.00
H1020  H     0.10326   0.93299   0.97378   0.00000  Uiso   1.00
H1021  H     0.09080   0.99022   0.94501   0.00000  Uiso   1.00
H1022  H     0.20428   0.52471   0.68557   0.00000  Uiso   1.00
H1023  H     0.22595   0.57982   0.70755   0.00000  Uiso   1.00
H1024  H     0.12833   0.54449   0.70716   0.00000  Uiso   1.00
H1025  H     0.14484   0.59976   0.73561   0.00000  Uiso   1.00
H1026  H     0.17347   0.63039   0.98839   0.00000  Uiso   1.00
H1027  H     0.11578   0.61415   0.98456   0.00000  Uiso   1.00
H1028  H     0.15721   0.57449   0.95941   0.00000  Uiso   1.00
H1029  H     0.20659   0.62721   0.77345   0.00000  Uiso   1.00
H1030  H     0.36889   0.50849   0.78981   0.00000  Uiso   1.00
H1031  H     0.32380   0.97994   0.75972   0.00000  Uiso   1.00
H1032  H     0.40230   0.92536   0.80901   0.00000  Uiso   1.00
H1033  H     0.36013   0.89959   0.77019   0.00000  Uiso   1.00
H1034  H     0.38650   0.94843   0.69927   0.00000  Uiso   1.00
H1035  H     0.43021   0.91173   0.72490   0.00000  Uiso   1.00
H1036  H     0.42864   0.97542   0.73779   0.00000  Uiso   1.00
H1037  H     0.31957   0.87620   0.84106   0.00000  Uiso   1.00
H1038  H     0.11127   0.82729   0.81666   0.00000  Uiso   1.00
H1039  H     0.38907   0.67299   0.84926   0.00000  Uiso   1.00
H1040  H     0.38859   0.82714   0.84772   0.00000  Uiso   1.00
H1041  H     0.11158   0.67316   0.81641   0.00000  Uiso   1.00
H1042  H     0.24633   0.99173   0.92765   0.00000  Uiso   1.00
N1043  N     0.25000   0.62935   0.83333   0.00000  Uiso   1.00
N1044  N     0.25000   0.87065   0.83333   0.00000  Uiso   1.00
O1045  O     0.18573   0.79071   0.83334   0.00000  Uiso   1.00
O1046  O     0.16904   0.96877   0.82617   0.00000  Uiso   1.00
O1047  O     0.20219   0.52935   0.76031   0.00000  Uiso   1.00
O1048  O     0.33062   0.96900   0.83647   0.00000  Uiso   1.00
O1049  O     0.31427   0.70929   0.83333   0.00000  Uiso   1.00
O1050  O     0.31427   0.79072   0.83333   0.00000  Uiso   1.00
O1051  O     0.18573   0.70929   0.83334   0.00000  Uiso   1.00
O1052  O     0.25000   0.79071   0.76280   0.00000  Uiso   1.00
O1053  O     0.25000   0.70929   0.90387   0.00000  Uiso   1.00
O1054  O     0.25000   0.79071   0.90387   0.00000  Uiso   1.00
O1055  O     0.25000   0.70929   0.76280   0.00000  Uiso   1.00
O1056  O     0.30115   0.53043   0.90194   0.00000  Uiso   1.00
C1057  C     0.66488   0.75006   0.83189   0.00000  Uiso   1.00
C1058  C     0.79009   0.94612   0.83329   0.00000  Uiso   1.00
C1059  C     0.74996   0.75007   0.74018   0.00000  Uiso   1.00
C1060  C     0.74998   0.74992   0.92648   0.00000  Uiso   1.00
C1061  C     0.75024   0.52767   0.83160   0.00000  Uiso   1.00
C1062  C     0.75010   0.97293   0.83120   0.00000  Uiso   1.00
C1063  C     0.74994   0.75009   0.68851   0.00000  Uiso   1.00
C1064  C     0.74995   0.74988   0.97816   0.00000  Uiso   1.00
C1065  C     0.54774   0.79346   0.81559   0.00000  Uiso   1.00
C1066  C     0.95261   0.70696   0.84878   0.00000  Uiso   1.00
C1067  C     0.95226   0.79340   0.84803   0.00000  Uiso   1.00
C1068  C     0.83514   0.74997   0.83450   0.00000  Uiso   1.00
C1069  C     0.54789   0.70709   0.81557   0.00000  Uiso   1.00
C1070  C     0.59359   0.79363   0.82087   0.00000  Uiso   1.00
C1071  C     0.90667   0.70665   0.84447   0.00000  Uiso   1.00
C1072  C     0.90637   0.79348   0.84361   0.00000  Uiso   1.00
C1073  C     0.59375   0.70680   0.82072   0.00000  Uiso   1.00
C1074  C     0.61661   0.75016   0.82710   0.00000  Uiso   1.00
C1075  C     0.88348   0.74999   0.83835   0.00000  Uiso   1.00
C1076  C     0.52408   0.75025   0.82426   0.00000  Uiso   1.00
C1077  C     0.97611   0.75020   0.83951   0.00000  Uiso   1.00
C1078  C     0.77579   0.51164   0.94096   0.00000  Uiso   1.00
C1079  C     0.77402   0.60426   0.86727   0.00000  Uiso   1.00
C1080  C     0.80450   0.97629   0.97040   0.00000  Uiso   1.00
C1081  C     0.77741   0.94738   0.67410   0.00000  Uiso   1.00
C1082  C     0.65473   0.98550   0.87248   0.00000  Uiso   1.00
C1083  C     0.63607   0.94438   0.90410   0.00000  Uiso   1.00
C1084  C     0.61736   0.96333   0.95224   0.00000  Uiso   1.00
C1085  C     0.69945   0.55267   0.71400   0.00000  Uiso   1.00
C1086  C     0.65313   0.57399   0.70599   0.00000  Uiso   1.00
C1087  C     0.64982   0.59982   0.98979   0.00000  Uiso   1.00
C1088  C     0.84909   0.97481   0.78918   0.00000  Uiso   1.00
C1089  C     0.87996   0.93249   0.77722   0.00000  Uiso   1.00
C1090  C     0.71119   0.89563   0.82926   0.00000  Uiso   1.00
C1091  C     0.90800   0.94286   0.73195   0.00000  Uiso   1.00
C1092  C     0.72596   0.60571   0.79872   0.00000  Uiso   1.00
C1093  C     0.78883   0.89543   0.83643   0.00000  Uiso   1.00
C1094  C     0.77394   0.55357   0.86823   0.00000  Uiso   1.00
C1095  C     0.70994   0.94639   0.83026   0.00000  Uiso   1.00
C1096  C     0.72647   0.55454   0.79553   0.00000  Uiso   1.00
Cl1097 Cl    0.52454   0.84233   0.78245   0.00000  Uiso   1.00
Cl1098 Cl    0.97642   0.65799   0.88120   0.00000  Uiso   1.00
Cl1099 Cl    0.97545   0.84255   0.88002   0.00000  Uiso   1.00
Cl1100 Cl    0.52471   0.65838   0.78288   0.00000  Uiso   1.00
Cu1101 Cu    0.75000   0.79822   0.83333   0.00000  Uiso   1.00
Cu1102 Cu    0.75000   0.70179   0.83333   0.00000  Uiso   1.00
H1103  H     0.79344   0.62371   0.89410   0.00000  Uiso   1.00
H1104  H     0.76499   0.54151   0.96521   0.00000  Uiso   1.00
H1105  H     0.82064   0.95063   0.94481   0.00000  Uiso   1.00
H1106  H     0.83076   0.99658   0.99004   0.00000  Uiso   1.00
H1107  H     0.76312   0.97156   0.70220   0.00000  Uiso   1.00
H1108  H     0.79912   0.92067   0.69293   0.00000  Uiso   1.00
H1109  H     0.75033   0.92763   0.98860   0.00000  Uiso   1.00
H1110  H     0.62781   0.51207   0.86563   0.00000  Uiso   1.00
H1111  H     0.68089   0.50542   0.89255   0.00000  Uiso   1.00
H1112  H     0.60947   0.92560   0.88341   0.00000  Uiso   1.00
H1113  H     0.66261   0.91792   0.91292   0.00000  Uiso   1.00
H1114  H     0.68030   0.87654   0.82612   0.00000  Uiso   1.00
H1115  H     0.64404   0.98028   0.97428   0.00000  Uiso   1.00
H1116  H     0.60326   0.93299   0.97378   0.00000  Uiso   1.00
H1117  H     0.59080   0.99022   0.94501   0.00000  Uiso   1.00
H1118  H     0.70428   0.52471   0.68557   0.00000  Uiso   1.00
H1119  H     0.72595   0.57982   0.70755   0.00000  Uiso   1.00
H1120  H     0.62833   0.54449   0.70716   0.00000  Uiso   1.00
H1121  H     0.64484   0.59976   0.73561   0.00000  Uiso   1.00
H1122  H     0.67347   0.63039   0.98839   0.00000  Uiso   1.00
H1123  H     0.61578   0.61415   0.98456   0.00000  Uiso   1.00
H1124  H     0.65721   0.57449   0.95941   0.00000  Uiso   1.00
H1125  H     0.70659   0.62721   0.77345   0.00000  Uiso   1.00
H1126  H     0.86889   0.50849   0.78981   0.00000  Uiso   1.00
H1127  H     0.82380   0.97994   0.75972   0.00000  Uiso   1.00
H1128  H     0.90230   0.92536   0.80901   0.00000  Uiso   1.00
H1129  H     0.86013   0.89959   0.77019   0.00000  Uiso   1.00
H1130  H     0.88650   0.94843   0.69927   0.00000  Uiso   1.00
H1131  H     0.93021   0.91173   0.72490   0.00000  Uiso   1.00
H1132  H     0.92864   0.97542   0.73779   0.00000  Uiso   1.00
H1133  H     0.81957   0.87620   0.84106   0.00000  Uiso   1.00
H1134  H     0.61127   0.82729   0.81666   0.00000  Uiso   1.00
H1135  H     0.88907   0.67299   0.84926   0.00000  Uiso   1.00
H1136  H     0.88859   0.82714   0.84772   0.00000  Uiso   1.00
H1137  H     0.61158   0.67316   0.81641   0.00000  Uiso   1.00
H1138  H     0.74633   0.99173   0.92765   0.00000  Uiso   1.00
N1139  N     0.75000   0.62935   0.83333   0.00000  Uiso   1.00
N1140  N     0.75000   0.87065   0.83333   0.00000  Uiso   1.00
O1141  O     0.68573   0.79071   0.83334   0.00000  Uiso   1.00
O1142  O     0.66904   0.96877   0.82617   0.00000  Uiso   1.00
O1143  O     0.70219   0.52935   0.76031   0.00000  Uiso   1.00
O1144  O     0.83062   0.96900   0.83647   0.00000  Uiso   1.00
O1145  O     0.81427   0.70929   0.83333   0.00000  Uiso   1.00
O1146  O     0.81427   0.79072   0.83333   0.00000  Uiso   1.00
O1147  O     0.68573   0.70929   0.83334   0.00000  Uiso   1.00
O1148  O     0.75000   0.79071   0.76280   0.00000  Uiso   1.00
O1149  O     0.75000   0.70929   0.90387   0.00000  Uiso   1.00
O1150  O     0.75000   0.79071   0.90387   0.00000  Uiso   1.00
O1151  O     0.75000   0.70929   0.76280   0.00000  Uiso   1.00
O1152  O     0.80115   0.53043   0.90194   0.00000  Uiso   1.00
loop_
_geom_bond_atom_site_label_1
_geom_bond_atom_site_label_2
_geom_bond_distance
_geom_bond_site_symmetry_2
_ccdc_geom_bond_type
C1     O91     1.294   .     A
C1     O85     1.294   .     A
C1     C18     1.464   .     S
C2     O88     1.383   .     S
C2     C6      1.418   .     A
C2     C37     1.409   .     A
C3     C7      1.407   .     S
C3     O92     1.287   .     A
C3     O95     1.285   .     A
C4     C8      1.407   .     S
C4     O93     1.287   .     A
C4     O94     1.285   .     A
C5     C38     1.424   .     A
C5     C40     1.421   .     A
C5     C198    1.519   1_545 S
C6     C39     1.421   .     A
C6     C197    1.519   .     S
C7     C776    1.189   1_554 S
C8     C391    1.189   .     S
C9     C14     1.392   .     A
C9     C20     1.417   .     A
C9     Cl41    1.767   .     S
C10    Cl42    1.766   .     S
C10    C15     1.393   .     A
C10    C21     1.418   .     A
C11    C21     1.417   .     A
C11    C16     1.392   .     A
C11    Cl43    1.766   .     S
C12    O90     1.293   .     A
C12    O89     1.295   .     A
C12    C19     1.464   .     S
C13    C20     1.417   .     A
C13    C17     1.392   .     A
C13    Cl44    1.766   .     S
C14    C18     1.400   .     A
C14    H78     1.083   .     S
C15    C19     1.399   .     A
C15    H79     1.084   .     S
C16    H80     1.083   .     S
C16    C19     1.400   .     A
C17    C18     1.400   .     A
C17    H81     1.084   .     S
C20    C117    1.510   1_455 S
C21    C116    1.510   .     S
C22    H48     1.111   .     S
C22    O96     1.411   .     S
C22    C216    1.529   1_545 S
C22    H274    1.109   1_545 S
C23    N83     1.360   .     A
C23    H47     1.082   .     S
C23    C38     1.406   .     A
C24    H50     1.111   .     S
C24    H49     1.112   .     S
C24    C214    1.529   .     S
C24    C409    1.527   .     S
C25    H51     1.108   .     S
C25    H52     1.110   .     S
C25    C792    1.527   1_554 S
C25    H821    1.111   1_554 S
C26    C27     1.536   .     S
C26    O86     1.415   .     S
C26    H246    1.111   .     S
C26    H247    1.109   .     S
C27    H57     1.111   .     S
C27    H56     1.112   .     S
C27    C28     1.525   .     S
C28    H61     1.111   .     S
C28    H60     1.110   .     S
C28    H59     1.110   .     S
C29    H63     1.115   .     S
C29    C30     1.533   .     S
C29    H62     1.108   .     S
C29    O87     1.416   .     S
C30    H64     1.112   .     S
C30    H65     1.110   .     S
C30    C799    1.527   1_554 S
C31    H66     1.111   .     S
C31    H67     1.110   .     S
C31    H68     1.111   .     S
C31    C414    1.527   .     S
C32    O88     1.414   .     S
C32    H71     1.114   .     S
C32    C33     1.535   .     S
C32    H262    1.111   .     S
C33    H72     1.112   .     S
C33    H73     1.110   .     S
C33    C35     1.525   .     S
C34    N84     1.364   .     A
C34    C39     1.409   .     A
C34    H58     1.078   .     S
C35    H74     1.109   .     S
C35    H75     1.111   .     S
C35    H76     1.111   .     S
C36    N83     1.359   .     A
C36    C40     1.423   .     A
C36    H69     1.078   .     S
C37    N84     1.364   .     A
C37    H77     1.077   .     S
C38    O96     1.384   .     S
C39    O86     1.386   .     S
C40    O87     1.396   .     S
Cu45   Cu46    2.675   .     S
Cu45   O92     1.933   .     S
Cu45   O94     1.931   .     S
Cu45   O85     1.954   .     S
Cu45   O90     1.953   .     S
Cu45   N84     2.010   .     S
Cu46   O89     1.954   .     S
Cu46   O95     1.931   .     S
Cu46   O91     1.953   .     S
Cu46   O93     1.933   .     S
Cu46   N83     2.010   .     S
H53    C409    1.111   .     S
H54    C218    1.111   1_545 S
H55    C218    1.109   1_545 S
H70    C224    1.111   1_545 S
H82    C214    1.109   .     S
C97    O187    1.294   .     A
C97    O181    1.294   .     A
C97    C114    1.464   .     S
C98    O184    1.383   .     S
C98    C102    1.418   .     A
C98    C133    1.409   .     A
C99    C103    1.407   .     S
C99    O188    1.287   .     A
C99    O191    1.285   .     A
C100   C104    1.407   .     S
C100   O189    1.287   .     A
C100   O190    1.285   .     A
C101   C134    1.424   .     A
C101   C136    1.421   .     A
C101   C294    1.519   1_545 S
C102   C135    1.421   .     A
C102   C293    1.519   .     S
C103   C872    1.189   1_554 S
C104   C487    1.189   .     S
C105   C110    1.392   .     A
C105   C116    1.417   .     A
C105   Cl137   1.767   .     S
C106   Cl138   1.766   .     S
C106   C111    1.393   .     A
C106   C117    1.418   .     A
C107   C117    1.417   .     A
C107   C112    1.392   .     A
C107   Cl139   1.766   .     S
C108   O186    1.293   .     A
C108   O185    1.295   .     A
C108   C115    1.464   .     S
C109   C116    1.417   .     A
C109   C113    1.392   .     A
C109   Cl140   1.766   .     S
C110   C114    1.400   .     A
C110   H174    1.083   .     S
C111   C115    1.399   .     A
C111   H175    1.084   .     S
C112   H176    1.083   .     S
C112   C115    1.400   .     A
C113   C114    1.400   .     A
C113   H177    1.084   .     S
C117   C20     1.510   1_655 S
C118   H144    1.111   .     S
C118   O192    1.411   .     S
C118   C312    1.529   1_545 S
C118   H370    1.109   1_545 S
C119   N179    1.360   .     A
C119   H143    1.082   .     S
C119   C134    1.406   .     A
C120   H146    1.111   .     S
C120   H145    1.112   .     S
C120   C310    1.529   .     S
C120   C505    1.527   .     S
C121   H147    1.108   .     S
C121   H148    1.110   .     S
C121   C888    1.527   1_554 S
C121   H917    1.111   1_554 S
C122   C123    1.536   .     S
C122   O182    1.415   .     S
C122   H342    1.111   .     S
C122   H343    1.109   .     S
C123   H153    1.111   .     S
C123   H152    1.112   .     S
C123   C124    1.525   .     S
C124   H157    1.111   .     S
C124   H156    1.110   .     S
C124   H155    1.110   .     S
C125   H159    1.115   .     S
C125   C126    1.533   .     S
C125   H158    1.108   .     S
C125   O183    1.416   .     S
C126   H160    1.112   .     S
C126   H161    1.110   .     S
C126   C895    1.527   1_554 S
C127   H162    1.111   .     S
C127   H163    1.110   .     S
C127   H164    1.111   .     S
C127   C510    1.527   .     S
C128   O184    1.414   .     S
C128   H167    1.114   .     S
C128   C129    1.535   .     S
C128   H358    1.111   .     S
C129   H168    1.112   .     S
C129   H169    1.110   .     S
C129   C131    1.525   .     S
C130   N180    1.364   .     A
C130   C135    1.409   .     A
C130   H154    1.078   .     S
C131   H170    1.109   .     S
C131   H171    1.111   .     S
C131   H172    1.111   .     S
C132   N179    1.359   .     A
C132   C136    1.423   .     A
C132   H165    1.078   .     S
C133   N180    1.364   .     A
C133   H173    1.077   .     S
C134   O192    1.384   .     S
C135   O182    1.386   .     S
C136   O183    1.396   .     S
Cu141  Cu142   2.675   .     S
Cu141  O188    1.933   .     S
Cu141  O190    1.931   .     S
Cu141  O181    1.954   .     S
Cu141  O186    1.953   .     S
Cu141  N180    2.010   .     S
Cu142  O185    1.954   .     S
Cu142  O191    1.931   .     S
Cu142  O187    1.953   .     S
Cu142  O189    1.933   .     S
Cu142  N179    2.010   .     S
H149   C505    1.111   .     S
H150   C314    1.111   1_545 S
H151   C314    1.109   1_545 S
H166   C320    1.111   1_545 S
H178   C310    1.109   .     S
C193   O283    1.294   .     A
C193   O277    1.294   .     A
C193   C210    1.464   .     S
C194   O280    1.383   .     S
C194   C198    1.418   .     A
C194   C229    1.409   .     A
C195   C199    1.407   .     S
C195   O284    1.287   .     A
C195   O287    1.285   .     A
C196   C200    1.407   .     S
C196   O285    1.287   .     A
C196   O286    1.285   .     A
C197   C230    1.424   .     A
C197   C232    1.421   .     A
C198   C231    1.421   .     A
C198   C5      1.519   1_565 S
C199   C968    1.189   1_554 S
C200   C583    1.189   .     S
C201   C206    1.392   .     A
C201   C212    1.417   .     A
C201   Cl233   1.767   .     S
C202   Cl234   1.766   .     S
C202   C207    1.393   .     A
C202   C213    1.418   .     A
C203   C213    1.417   .     A
C203   C208    1.392   .     A
C203   Cl235   1.766   .     S
C204   O282    1.293   .     A
C204   O281    1.295   .     A
C204   C211    1.464   .     S
C205   C212    1.417   .     A
C205   C209    1.392   .     A
C205   Cl236   1.766   .     S
C206   C210    1.400   .     A
C206   H270    1.083   .     S
C207   C211    1.399   .     A
C207   H271    1.084   .     S
C208   H272    1.083   .     S
C208   C211    1.400   .     A
C209   C210    1.400   .     A
C209   H273    1.084   .     S
C212   C309    1.510   1_455 S
C213   C308    1.510   .     S
C214   H240    1.111   .     S
C214   O288    1.411   .     S
C215   N275    1.360   .     A
C215   H239    1.082   .     S
C215   C230    1.406   .     A
C216   H242    1.111   .     S
C216   H241    1.112   .     S
C216   C22     1.529   1_565 S
C216   C601    1.527   .     S
C217   H243    1.108   .     S
C217   H244    1.110   .     S
C217   C984    1.527   1_554 S
C217   H1013   1.111   1_554 S
C218   C219    1.536   .     S
C218   O278    1.415   .     S
C218   H54     1.111   1_565 S
C218   H55     1.109   1_565 S
C219   H249    1.111   .     S
C219   H248    1.112   .     S
C219   C220    1.525   .     S
C220   H253    1.111   .     S
C220   H252    1.110   .     S
C220   H251    1.110   .     S
C221   H255    1.115   .     S
C221   C222    1.533   .     S
C221   H254    1.108   .     S
C221   O279    1.416   .     S
C222   H256    1.112   .     S
C222   H257    1.110   .     S
C222   C991    1.527   1_554 S
C223   H258    1.111   .     S
C223   H259    1.110   .     S
C223   H260    1.111   .     S
C223   C606    1.527   .     S
C224   O280    1.414   .     S
C224   H263    1.114   .     S
C224   C225    1.535   .     S
C224   H70     1.111   1_565 S
C225   H264    1.112   .     S
C225   H265    1.110   .     S
C225   C227    1.525   .     S
C226   N276    1.364   .     A
C226   C231    1.409   .     A
C226   H250    1.078   .     S
C227   H266    1.109   .     S
C227   H267    1.111   .     S
C227   H268    1.111   .     S
C228   N275    1.359   .     A
C228   C232    1.423   .     A
C228   H261    1.078   .     S
C229   N276    1.364   .     A
C229   H269    1.077   .     S
C230   O288    1.384   .     S
C231   O278    1.386   .     S
C232   O279    1.396   .     S
Cu237  Cu238   2.675   .     S
Cu237  O284    1.933   .     S
Cu237  O286    1.931   .     S
Cu237  O277    1.954   .     S
Cu237  O282    1.953   .     S
Cu237  N276    2.010   .     S
Cu238  O281    1.954   .     S
Cu238  O287    1.931   .     S
Cu238  O283    1.953   .     S
Cu238  O285    1.933   .     S
Cu238  N275    2.010   .     S
H245   C601    1.111   .     S
H274   C22     1.109   1_565 S
C289   O379    1.294   .     A
C289   O373    1.294   .     A
C289   C306    1.464   .     S
C290   O376    1.383   .     S
C290   C294    1.418   .     A
C290   C325    1.409   .     A
C291   C295    1.407   .     S
C291   O380    1.287   .     A
C291   O383    1.285   .     A
C292   C296    1.407   .     S
C292   O381    1.287   .     A
C292   O382    1.285   .     A
C293   C326    1.424   .     A
C293   C328    1.421   .     A
C294   C327    1.421   .     A
C294   C101    1.519   1_565 S
C295   C1064   1.189   1_554 S
C296   C679    1.189   .     S
C297   C302    1.392   .     A
C297   C308    1.417   .     A
C297   Cl329   1.767   .     S
C298   Cl330   1.766   .     S
C298   C303    1.393   .     A
C298   C309    1.418   .     A
C299   C309    1.417   .     A
C299   C304    1.392   .     A
C299   Cl331   1.766   .     S
C300   O378    1.293   .     A
C300   O377    1.295   .     A
C300   C307    1.464   .     S
C301   C308    1.417   .     A
C301   C305    1.392   .     A
C301   Cl332   1.766   .     S
C302   C306    1.400   .     A
C302   H366    1.083   .     S
C303   C307    1.399   .     A
C303   H367    1.084   .     S
C304   H368    1.083   .     S
C304   C307    1.400   .     A
C305   C306    1.400   .     A
C305   H369    1.084   .     S
C309   C212    1.510   1_655 S
C310   H336    1.111   .     S
C310   O384    1.411   .     S
C311   N371    1.360   .     A
C311   H335    1.082   .     S
C311   C326    1.406   .     A
C312   H338    1.111   .     S
C312   H337    1.112   .     S
C312   C118    1.529   1_565 S
C312   C697    1.527   .     S
C313   H339    1.108   .     S
C313   H340    1.110   .     S
C313   C1080   1.527   1_554 S
C313   H1109   1.111   1_554 S
C314   C315    1.536   .     S
C314   O374    1.415   .     S
C314   H150    1.111   1_565 S
C314   H151    1.109   1_565 S
C315   H345    1.111   .     S
C315   H344    1.112   .     S
C315   C316    1.525   .     S
C316   H349    1.111   .     S
C316   H348    1.110   .     S
C316   H347    1.110   .     S
C317   H351    1.115   .     S
C317   C318    1.533   .     S
C317   H350    1.108   .     S
C317   O375    1.416   .     S
C318   H352    1.112   .     S
C318   H353    1.110   .     S
C318   C1087   1.527   1_554 S
C319   H354    1.111   .     S
C319   H355    1.110   .     S
C319   H356    1.111   .     S
C319   C702    1.527   .     S
C320   O376    1.414   .     S
C320   H359    1.114   .     S
C320   C321    1.535   .     S
C320   H166    1.111   1_565 S
C321   H360    1.112   .     S
C321   H361    1.110   .     S
C321   C323    1.525   .     S
C322   N372    1.364   .     A
C322   C327    1.409   .     A
C322   H346    1.078   .     S
C323   H362    1.109   .     S
C323   H363    1.111   .     S
C323   H364    1.111   .     S
C324   N371    1.359   .     A
C324   C328    1.423   .     A
C324   H357    1.078   .     S
C325   N372    1.364   .     A
C325   H365    1.077   .     S
C326   O384    1.384   .     S
C327   O374    1.386   .     S
C328   O375    1.396   .     S
Cu333  Cu334   2.675   .     S
Cu333  O380    1.933   .     S
Cu333  O382    1.931   .     S
Cu333  O373    1.954   .     S
Cu333  O378    1.953   .     S
Cu333  N372    2.010   .     S
Cu334  O377    1.954   .     S
Cu334  O383    1.931   .     S
Cu334  O379    1.953   .     S
Cu334  O381    1.933   .     S
Cu334  N371    2.010   .     S
H341   C697    1.111   .     S
H370   C118    1.109   1_565 S
C385   O475    1.294   .     A
C385   O469    1.294   .     A
C385   C402    1.464   .     S
C386   O472    1.383   .     S
C386   C390    1.418   .     A
C386   C421    1.409   .     A
C387   C391    1.407   .     S
C387   O476    1.287   .     A
C387   O479    1.285   .     A
C388   C392    1.407   .     S
C388   O477    1.287   .     A
C388   O478    1.285   .     A
C389   C422    1.424   .     A
C389   C424    1.421   .     A
C389   C582    1.519   1_545 S
C390   C423    1.421   .     A
C390   C581    1.519   .     S
C392   C775    1.189   .     S
C393   C398    1.392   .     A
C393   C404    1.417   .     A
C393   Cl425   1.767   .     S
C394   Cl426   1.766   .     S
C394   C399    1.393   .     A
C394   C405    1.418   .     A
C395   C405    1.417   .     A
C395   C400    1.392   .     A
C395   Cl427   1.766   .     S
C396   O474    1.293   .     A
C396   O473    1.295   .     A
C396   C403    1.464   .     S
C397   C404    1.417   .     A
C397   C401    1.392   .     A
C397   Cl428   1.766   .     S
C398   C402    1.400   .     A
C398   H462    1.083   .     S
C399   C403    1.399   .     A
C399   H463    1.084   .     S
C400   H464    1.083   .     S
C400   C403    1.400   .     A
C401   C402    1.400   .     A
C401   H465    1.084   .     S
C404   C501    1.510   1_455 S
C405   C500    1.510   .     S
C406   H432    1.111   .     S
C406   O480    1.411   .     S
C406   C600    1.529   1_545 S
C406   H658    1.109   1_545 S
C407   N467    1.360   .     A
C407   H431    1.082   .     S
C407   C422    1.406   .     A
C408   H434    1.111   .     S
C408   H433    1.112   .     S
C408   C598    1.529   .     S
C408   C793    1.527   .     S
C409   H435    1.108   .     S
C409   H436    1.110   .     S
C410   C411    1.536   .     S
C410   O470    1.415   .     S
C410   H630    1.111   .     S
C410   H631    1.109   .     S
C411   H441    1.111   .     S
C411   H440    1.112   .     S
C411   C412    1.525   .     S
C412   H445    1.111   .     S
C412   H444    1.110   .     S
C412   H443    1.110   .     S
C413   H447    1.115   .     S
C413   C414    1.533   .     S
C413   H446    1.108   .     S
C413   O471    1.416   .     S
C414   H448    1.112   .     S
C414   H449    1.110   .     S
C415   H450    1.111   .     S
C415   H451    1.110   .     S
C415   H452    1.111   .     S
C415   C798    1.527   .     S
C416   O472    1.414   .     S
C416   H455    1.114   .     S
C416   C417    1.535   .     S
C416   H646    1.111   .     S
C417   H456    1.112   .     S
C417   H457    1.110   .     S
C417   C419    1.525   .     S
C418   N468    1.364   .     A
C418   C423    1.409   .     A
C418   H442    1.078   .     S
C419   H458    1.109   .     S
C419   H459    1.111   .     S
C419   H460    1.111   .     S
C420   N467    1.359   .     A
C420   C424    1.423   .     A
C420   H453    1.078   .     S
C421   N468    1.364   .     A
C421   H461    1.077   .     S
C422   O480    1.384   .     S
C423   O470    1.386   .     S
C424   O471    1.396   .     S
Cu429  Cu430   2.675   .     S
Cu429  O476    1.933   .     S
Cu429  O478    1.931   .     S
Cu429  O469    1.954   .     S
Cu429  O474    1.953   .     S
Cu429  N468    2.010   .     S
Cu430  O473    1.954   .     S
Cu430  O479    1.931   .     S
Cu430  O475    1.953   .     S
Cu430  O477    1.933   .     S
Cu430  N467    2.010   .     S
H437   C793    1.111   .     S
H438   C602    1.111   1_545 S
H439   C602    1.109   1_545 S
H454   C608    1.111   1_545 S
H466   C598    1.109   .     S
C481   O571    1.294   .     A
C481   O565    1.294   .     A
C481   C498    1.464   .     S
C482   O568    1.383   .     S
C482   C486    1.418   .     A
C482   C517    1.409   .     A
C483   C487    1.407   .     S
C483   O572    1.287   .     A
C483   O575    1.285   .     A
C484   C488    1.407   .     S
C484   O573    1.287   .     A
C484   O574    1.285   .     A
C485   C518    1.424   .     A
C485   C520    1.421   .     A
C485   C678    1.519   1_545 S
C486   C519    1.421   .     A
C486   C677    1.519   .     S
C488   C871    1.189   .     S
C489   C494    1.392   .     A
C489   C500    1.417   .     A
C489   Cl521   1.767   .     S
C490   Cl522   1.766   .     S
C490   C495    1.393   .     A
C490   C501    1.418   .     A
C491   C501    1.417   .     A
C491   C496    1.392   .     A
C491   Cl523   1.766   .     S
C492   O570    1.293   .     A
C492   O569    1.295   .     A
C492   C499    1.464   .     S
C493   C500    1.417   .     A
C493   C497    1.392   .     A
C493   Cl524   1.766   .     S
C494   C498    1.400   .     A
C494   H558    1.083   .     S
C495   C499    1.399   .     A
C495   H559    1.084   .     S
C496   H560    1.083   .     S
C496   C499    1.400   .     A
C497   C498    1.400   .     A
C497   H561    1.084   .     S
C501   C404    1.510   1_655 S
C502   H528    1.111   .     S
C502   O576    1.411   .     S
C502   C696    1.529   1_545 S
C502   H754    1.109   1_545 S
C503   N563    1.360   .     A
C503   H527    1.082   .     S
C503   C518    1.406   .     A
C504   H530    1.111   .     S
C504   H529    1.112   .     S
C504   C694    1.529   .     S
C504   C889    1.527   .     S
C505   H531    1.108   .     S
C505   H532    1.110   .     S
C506   C507    1.536   .     S
C506   O566    1.415   .     S
C506   H726    1.111   .     S
C506   H727    1.109   .     S
C507   H537    1.111   .     S
C507   H536    1.112   .     S
C507   C508    1.525   .     S
C508   H541    1.111   .     S
C508   H540    1.110   .     S
C508   H539    1.110   .     S
C509   H543    1.115   .     S
C509   C510    1.533   .     S
C509   H542    1.108   .     S
C509   O567    1.416   .     S
C510   H544    1.112   .     S
C510   H545    1.110   .     S
C511   H546    1.111   .     S
C511   H547    1.110   .     S
C511   H548    1.111   .     S
C511   C894    1.527   .     S
C512   O568    1.414   .     S
C512   H551    1.114   .     S
C512   C513    1.535   .     S
C512   H742    1.111   .     S
C513   H552    1.112   .     S
C513   H553    1.110   .     S
C513   C515    1.525   .     S
C514   N564    1.364   .     A
C514   C519    1.409   .     A
C514   H538    1.078   .     S
C515   H554    1.109   .     S
C515   H555    1.111   .     S
C515   H556    1.111   .     S
C516   N563    1.359   .     A
C516   C520    1.423   .     A
C516   H549    1.078   .     S
C517   N564    1.364   .     A
C517   H557    1.077   .     S
C518   O576    1.384   .     S
C519   O566    1.386   .     S
C520   O567    1.396   .     S
Cu525  Cu526   2.675   .     S
Cu525  O572    1.933   .     S
Cu525  O574    1.931   .     S
Cu525  O565    1.954   .     S
Cu525  O570    1.953   .     S
Cu525  N564    2.010   .     S
Cu526  O569    1.954   .     S
Cu526  O575    1.931   .     S
Cu526  O571    1.953   .     S
Cu526  O573    1.933   .     S
Cu526  N563    2.010   .     S
H533   C889    1.111   .     S
H534   C698    1.111   1_545 S
H535   C698    1.109   1_545 S
H550   C704    1.111   1_545 S
H562   C694    1.109   .     S
C577   O667    1.294   .     A
C577   O661    1.294   .     A
C577   C594    1.464   .     S
C578   O664    1.383   .     S
C578   C582    1.418   .     A
C578   C613    1.409   .     A
C579   C583    1.407   .     S
C579   O668    1.287   .     A
C579   O671    1.285   .     A
C580   C584    1.407   .     S
C580   O669    1.287   .     A
C580   O670    1.285   .     A
C581   C614    1.424   .     A
C581   C616    1.421   .     A
C582   C615    1.421   .     A
C582   C389    1.519   1_565 S
C584   C967    1.189   .     S
C585   C590    1.392   .     A
C585   C596    1.417   .     A
C585   Cl617   1.767   .     S
C586   Cl618   1.766   .     S
C586   C591    1.393   .     A
C586   C597    1.418   .     A
C587   C597    1.417   .     A
C587   C592    1.392   .     A
C587   Cl619   1.766   .     S
C588   O666    1.293   .     A
C588   O665    1.295   .     A
C588   C595    1.464   .     S
C589   C596    1.417   .     A
C589   C593    1.392   .     A
C589   Cl620   1.766   .     S
C590   C594    1.400   .     A
C590   H654    1.083   .     S
C591   C595    1.399   .     A
C591   H655    1.084   .     S
C592   H656    1.083   .     S
C592   C595    1.400   .     A
C593   C594    1.400   .     A
C593   H657    1.084   .     S
C596   C693    1.510   1_455 S
C597   C692    1.510   .     S
C598   H624    1.111   .     S
C598   O672    1.411   .     S
C599   N659    1.360   .     A
C599   H623    1.082   .     S
C599   C614    1.406   .     A
C600   H626    1.111   .     S
C600   H625    1.112   .     S
C600   C406    1.529   1_565 S
C600   C985    1.527   .     S
C601   H627    1.108   .     S
C601   H628    1.110   .     S
C602   C603    1.536   .     S
C602   O662    1.415   .     S
C602   H438    1.111   1_565 S
C602   H439    1.109   1_565 S
C603   H633    1.111   .     S
C603   H632    1.112   .     S
C603   C604    1.525   .     S
C604   H637    1.111   .     S
C604   H636    1.110   .     S
C604   H635    1.110   .     S
C605   H639    1.115   .     S
C605   C606    1.533   .     S
C605   H638    1.108   .     S
C605   O663    1.416   .     S
C606   H640    1.112   .     S
C606   H641    1.110   .     S
C607   H642    1.111   .     S
C607   H643    1.110   .     S
C607   H644    1.111   .     S
C607   C990    1.527   .     S
C608   O664    1.414   .     S
C608   H647    1.114   .     S
C608   C609    1.535   .     S
C608   H454    1.111   1_565 S
C609   H648    1.112   .     S
C609   H649    1.110   .     S
C609   C611    1.525   .     S
C610   N660    1.364   .     A
C610   C615    1.409   .     A
C610   H634    1.078   .     S
C611   H650    1.109   .     S
C611   H651    1.111   .     S
C611   H652    1.111   .     S
C612   N659    1.359   .     A
C612   C616    1.423   .     A
C612   H645    1.078   .     S
C613   N660    1.364   .     A
C613   H653    1.077   .     S
C614   O672    1.384   .     S
C615   O662    1.386   .     S
C616   O663    1.396   .     S
Cu621  Cu622   2.675   .     S
Cu621  O668    1.933   .     S
Cu621  O670    1.931   .     S
Cu621  O661    1.954   .     S
Cu621  O666    1.953   .     S
Cu621  N660    2.010   .     S
Cu622  O665    1.954   .     S
Cu622  O671    1.931   .     S
Cu622  O667    1.953   .     S
Cu622  O669    1.933   .     S
Cu622  N659    2.010   .     S
H629   C985    1.111   .     S
H658   C406    1.109   1_565 S
C673   O763    1.294   .     A
C673   O757    1.294   .     A
C673   C690    1.464   .     S
C674   O760    1.383   .     S
C674   C678    1.418   .     A
C674   C709    1.409   .     A
C675   C679    1.407   .     S
C675   O764    1.287   .     A
C675   O767    1.285   .     A
C676   C680    1.407   .     S
C676   O765    1.287   .     A
C676   O766    1.285   .     A
C677   C710    1.424   .     A
C677   C712    1.421   .     A
C678   C711    1.421   .     A
C678   C485    1.519   1_565 S
C680   C1063   1.189   .     S
C681   C686    1.392   .     A
C681   C692    1.417   .     A
C681   Cl713   1.767   .     S
C682   Cl714   1.766   .     S
C682   C687    1.393   .     A
C682   C693    1.418   .     A
C683   C693    1.417   .     A
C683   C688    1.392   .     A
C683   Cl715   1.766   .     S
C684   O762    1.293   .     A
C684   O761    1.295   .     A
C684   C691    1.464   .     S
C685   C692    1.417   .     A
C685   C689    1.392   .     A
C685   Cl716   1.766   .     S
C686   C690    1.400   .     A
C686   H750    1.083   .     S
C687   C691    1.399   .     A
C687   H751    1.084   .     S
C688   H752    1.083   .     S
C688   C691    1.400   .     A
C689   C690    1.400   .     A
C689   H753    1.084   .     S
C693   C596    1.510   1_655 S
C694   H720    1.111   .     S
C694   O768    1.411   .     S
C695   N755    1.360   .     A
C695   H719    1.082   .     S
C695   C710    1.406   .     A
C696   H722    1.111   .     S
C696   H721    1.112   .     S
C696   C502    1.529   1_565 S
C696   C1081   1.527   .     S
C697   H723    1.108   .     S
C697   H724    1.110   .     S
C698   C699    1.536   .     S
C698   O758    1.415   .     S
C698   H534    1.111   1_565 S
C698   H535    1.109   1_565 S
C699   H729    1.111   .     S
C699   H728    1.112   .     S
C699   C700    1.525   .     S
C700   H733    1.111   .     S
C700   H732    1.110   .     S
C700   H731    1.110   .     S
C701   H735    1.115   .     S
C701   C702    1.533   .     S
C701   H734    1.108   .     S
C701   O759    1.416   .     S
C702   H736    1.112   .     S
C702   H737    1.110   .     S
C703   H738    1.111   .     S
C703   H739    1.110   .     S
C703   H740    1.111   .     S
C703   C1086   1.527   .     S
C704   O760    1.414   .     S
C704   H743    1.114   .     S
C704   C705    1.535   .     S
C704   H550    1.111   1_565 S
C705   H744    1.112   .     S
C705   H745    1.110   .     S
C705   C707    1.525   .     S
C706   N756    1.364   .     A
C706   C711    1.409   .     A
C706   H730    1.078   .     S
C707   H746    1.109   .     S
C707   H747    1.111   .     S
C707   H748    1.111   .     S
C708   N755    1.359   .     A
C708   C712    1.423   .     A
C708   H741    1.078   .     S
C709   N756    1.364   .     A
C709   H749    1.077   .     S
C710   O768    1.384   .     S
C711   O758    1.386   .     S
C712   O759    1.396   .     S
Cu717  Cu718   2.675   .     S
Cu717  O764    1.933   .     S
Cu717  O766    1.931   .     S
Cu717  O757    1.954   .     S
Cu717  O762    1.953   .     S
Cu717  N756    2.010   .     S
Cu718  O761    1.954   .     S
Cu718  O767    1.931   .     S
Cu718  O763    1.953   .     S
Cu718  O765    1.933   .     S
Cu718  N755    2.010   .     S
H725   C1081   1.111   .     S
H754   C502    1.109   1_565 S
C769   O859    1.294   .     A
C769   O853    1.294   .     A
C769   C786    1.464   .     S
C770   O856    1.383   .     S
C770   C774    1.418   .     A
C770   C805    1.409   .     A
C771   C775    1.407   .     S
C771   O860    1.287   .     A
C771   O863    1.285   .     A
C772   C776    1.407   .     S
C772   O861    1.287   .     A
C772   O862    1.285   .     A
C773   C806    1.424   .     A
C773   C808    1.421   .     A
C773   C966    1.519   1_545 S
C774   C807    1.421   .     A
C774   C965    1.519   .     S
C776   C7      1.189   1_556 S
C777   C782    1.392   .     A
C777   C788    1.417   .     A
C777   Cl809   1.767   .     S
C778   Cl810   1.766   .     S
C778   C783    1.393   .     A
C778   C789    1.418   .     A
C779   C789    1.417   .     A
C779   C784    1.392   .     A
C779   Cl811   1.766   .     S
C780   O858    1.293   .     A
C780   O857    1.295   .     A
C780   C787    1.464   .     S
C781   C788    1.417   .     A
C781   C785    1.392   .     A
C781   Cl812   1.766   .     S
C782   C786    1.400   .     A
C782   H846    1.083   .     S
C783   C787    1.399   .     A
C783   H847    1.084   .     S
C784   H848    1.083   .     S
C784   C787    1.400   .     A
C785   C786    1.400   .     A
C785   H849    1.084   .     S
C788   C885    1.510   1_455 S
C789   C884    1.510   .     S
C790   H816    1.111   .     S
C790   O864    1.411   .     S
C790   C984    1.529   1_545 S
C790   H1042   1.109   1_545 S
C791   N851    1.360   .     A
C791   H815    1.082   .     S
C791   C806    1.406   .     A
C792   H818    1.111   .     S
C792   H817    1.112   .     S
C792   C982    1.529   .     S
C792   C25     1.527   1_556 S
C793   H819    1.108   .     S
C793   H820    1.110   .     S
C794   C795    1.536   .     S
C794   O854    1.415   .     S
C794   H1014   1.111   .     S
C794   H1015   1.109   .     S
C795   H825    1.111   .     S
C795   H824    1.112   .     S
C795   C796    1.525   .     S
C796   H829    1.111   .     S
C796   H828    1.110   .     S
C796   H827    1.110   .     S
C797   H831    1.115   .     S
C797   C798    1.533   .     S
C797   H830    1.108   .     S
C797   O855    1.416   .     S
C798   H832    1.112   .     S
C798   H833    1.110   .     S
C799   H834    1.111   .     S
C799   H835    1.110   .     S
C799   H836    1.111   .     S
C799   C30     1.527   1_556 S
C800   O856    1.414   .     S
C800   H839    1.114   .     S
C800   C801    1.535   .     S
C800   H1030   1.111   .     S
C801   H840    1.112   .     S
C801   H841    1.110   .     S
C801   C803    1.525   .     S
C802   N852    1.364   .     A
C802   C807    1.409   .     A
C802   H826    1.078   .     S
C803   H842    1.109   .     S
C803   H843    1.111   .     S
C803   H844    1.111   .     S
C804   N851    1.359   .     A
C804   C808    1.423   .     A
C804   H837    1.078   .     S
C805   N852    1.364   .     A
C805   H845    1.077   .     S
C806   O864    1.384   .     S
C807   O854    1.386   .     S
C808   O855    1.396   .     S
Cu813  Cu814   2.675   .     S
Cu813  O860    1.933   .     S
Cu813  O862    1.931   .     S
Cu813  O853    1.954   .     S
Cu813  O858    1.953   .     S
Cu813  N852    2.010   .     S
Cu814  O857    1.954   .     S
Cu814  O863    1.931   .     S
Cu814  O859    1.953   .     S
Cu814  O861    1.933   .     S
Cu814  N851    2.010   .     S
H821   C25     1.111   1_556 S
H822   C986    1.111   1_545 S
H823   C986    1.109   1_545 S
H838   C992    1.111   1_545 S
H850   C982    1.109   .     S
C865   O955    1.294   .     A
C865   O949    1.294   .     A
C865   C882    1.464   .     S
C866   O952    1.383   .     S
C866   C870    1.418   .     A
C866   C901    1.409   .     A
C867   C871    1.407   .     S
C867   O956    1.287   .     A
C867   O959    1.285   .     A
C868   C872    1.407   .     S
C868   O957    1.287   .     A
C868   O958    1.285   .     A
C869   C902    1.424   .     A
C869   C904    1.421   .     A
C869   C1062   1.519   1_545 S
C870   C903    1.421   .     A
C870   C1061   1.519   .     S
C872   C103    1.189   1_556 S
C873   C878    1.392   .     A
C873   C884    1.417   .     A
C873   Cl905   1.767   .     S
C874   Cl906   1.766   .     S
C874   C879    1.393   .     A
C874   C885    1.418   .     A
C875   C885    1.417   .     A
C875   C880    1.392   .     A
C875   Cl907   1.766   .     S
C876   O954    1.293   .     A
C876   O953    1.295   .     A
C876   C883    1.464   .     S
C877   C884    1.417   .     A
C877   C881    1.392   .     A
C877   Cl908   1.766   .     S
C878   C882    1.400   .     A
C878   H942    1.083   .     S
C879   C883    1.399   .     A
C879   H943    1.084   .     S
C880   H944    1.083   .     S
C880   C883    1.400   .     A
C881   C882    1.400   .     A
C881   H945    1.084   .     S
C885   C788    1.510   1_655 S
C886   H912    1.111   .     S
C886   O960    1.411   .     S
C886   C1080   1.529   1_545 S
C886   H1138   1.109   1_545 S
C887   N947    1.360   .     A
C887   H911    1.082   .     S
C887   C902    1.406   .     A
C888   H914    1.111   .     S
C888   H913    1.112   .     S
C888   C1078   1.529   .     S
C888   C121    1.527   1_556 S
C889   H915    1.108   .     S
C889   H916    1.110   .     S
C890   C891    1.536   .     S
C890   O950    1.415   .     S
C890   H1110   1.111   .     S
C890   H1111   1.109   .     S
C891   H921    1.111   .     S
C891   H920    1.112   .     S
C891   C892    1.525   .     S
C892   H925    1.111   .     S
C892   H924    1.110   .     S
C892   H923    1.110   .     S
C893   H927    1.115   .     S
C893   C894    1.533   .     S
C893   H926    1.108   .     S
C893   O951    1.416   .     S
C894   H928    1.112   .     S
C894   H929    1.110   .     S
C895   H930    1.111   .     S
C895   H931    1.110   .     S
C895   H932    1.111   .     S
C895   C126    1.527   1_556 S
C896   O952    1.414   .     S
C896   H935    1.114   .     S
C896   C897    1.535   .     S
C896   H1126   1.111   .     S
C897   H936    1.112   .     S
C897   H937    1.110   .     S
C897   C899    1.525   .     S
C898   N948    1.364   .     A
C898   C903    1.409   .     A
C898   H922    1.078   .     S
C899   H938    1.109   .     S
C899   H939    1.111   .     S
C899   H940    1.111   .     S
C900   N947    1.359   .     A
C900   C904    1.423   .     A
C900   H933    1.078   .     S
C901   N948    1.364   .     A
C901   H941    1.077   .     S
C902   O960    1.384   .     S
C903   O950    1.386   .     S
C904   O951    1.396   .     S
Cu909  Cu910   2.675   .     S
Cu909  O956    1.933   .     S
Cu909  O958    1.931   .     S
Cu909  O949    1.954   .     S
Cu909  O954    1.953   .     S
Cu909  N948    2.010   .     S
Cu910  O953    1.954   .     S
Cu910  O959    1.931   .     S
Cu910  O955    1.953   .     S
Cu910  O957    1.933   .     S
Cu910  N947    2.010   .     S
H917   C121    1.111   1_556 S
H918   C1082   1.111   1_545 S
H919   C1082   1.109   1_545 S
H934   C1088   1.111   1_545 S
H946   C1078   1.109   .     S
C961   O1051   1.294   .     A
C961   O1045   1.294   .     A
C961   C978    1.464   .     S
C962   O1048   1.383   .     S
C962   C966    1.418   .     A
C962   C997    1.409   .     A
C963   C967    1.407   .     S
C963   O1052   1.287   .     A
C963   O1055   1.285   .     A
C964   C968    1.407   .     S
C964   O1053   1.287   .     A
C964   O1054   1.285   .     A
C965   C998    1.424   .     A
C965   C1000   1.421   .     A
C966   C999    1.421   .     A
C966   C773    1.519   1_565 S
C968   C199    1.189   1_556 S
C969   C974    1.392   .     A
C969   C980    1.417   .     A
C969   Cl1001  1.767   .     S
C970   Cl1002  1.766   .     S
C970   C975    1.393   .     A
C970   C981    1.418   .     A
C971   C981    1.417   .     A
C971   C976    1.392   .     A
C971   Cl1003  1.766   .     S
C972   O1050   1.293   .     A
C972   O1049   1.295   .     A
C972   C979    1.464   .     S
C973   C980    1.417   .     A
C973   C977    1.392   .     A
C973   Cl1004  1.766   .     S
C974   C978    1.400   .     A
C974   H1038   1.083   .     S
C975   C979    1.399   .     A
C975   H1039   1.084   .     S
C976   H1040   1.083   .     S
C976   C979    1.400   .     A
C977   C978    1.400   .     A
C977   H1041   1.084   .     S
C980   C1077   1.510   1_455 S
C981   C1076   1.510   .     S
C982   H1008   1.111   .     S
C982   O1056   1.411   .     S
C983   N1043   1.360   .     A
C983   H1007   1.082   .     S
C983   C998    1.406   .     A
C984   H1010   1.111   .     S
C984   H1009   1.112   .     S
C984   C790    1.529   1_565 S
C984   C217    1.527   1_556 S
C985   H1011   1.108   .     S
C985   H1012   1.110   .     S
C986   C987    1.536   .     S
C986   O1046   1.415   .     S
C986   H822    1.111   1_565 S
C986   H823    1.109   1_565 S
C987   H1017   1.111   .     S
C987   H1016   1.112   .     S
C987   C988    1.525   .     S
C988   H1021   1.111   .     S
C988   H1020   1.110   .     S
C988   H1019   1.110   .     S
C989   H1023   1.115   .     S
C989   C990    1.533   .     S
C989   H1022   1.108   .     S
C989   O1047   1.416   .     S
C990   H1024   1.112   .     S
C990   H1025   1.110   .     S
C991   H1026   1.111   .     S
C991   H1027   1.110   .     S
C991   H1028   1.111   .     S
C991   C222    1.527   1_556 S
C992   O1048   1.414   .     S
C992   H1031   1.114   .     S
C992   C993    1.535   .     S
C992   H838    1.111   1_565 S
C993   H1032   1.112   .     S
C993   H1033   1.110   .     S
C993   C995    1.525   .     S
C994   N1044   1.364   .     A
C994   C999    1.409   .     A
C994   H1018   1.078   .     S
C995   H1034   1.109   .     S
C995   H1035   1.111   .     S
C995   H1036   1.111   .     S
C996   N1043   1.359   .     A
C996   C1000   1.423   .     A
C996   H1029   1.078   .     S
C997   N1044   1.364   .     A
C997   H1037   1.077   .     S
C998   O1056   1.384   .     S
C999   O1046   1.386   .     S
C1000  O1047   1.396   .     S
Cu1005 Cu1006  2.675   .     S
Cu1005 O1052   1.933   .     S
Cu1005 O1054   1.931   .     S
Cu1005 O1045   1.954   .     S
Cu1005 O1050   1.953   .     S
Cu1005 N1044   2.010   .     S
Cu1006 O1049   1.954   .     S
Cu1006 O1055   1.931   .     S
Cu1006 O1051   1.953   .     S
Cu1006 O1053   1.933   .     S
Cu1006 N1043   2.010   .     S
H1013  C217    1.111   1_556 S
H1042  C790    1.109   1_565 S
C1057  O1147   1.294   .     A
C1057  O1141   1.294   .     A
C1057  C1074   1.464   .     S
C1058  O1144   1.383   .     S
C1058  C1062   1.418   .     A
C1058  C1093   1.409   .     A
C1059  C1063   1.407   .     S
C1059  O1148   1.287   .     A
C1059  O1151   1.285   .     A
C1060  C1064   1.407   .     S
C1060  O1149   1.287   .     A
C1060  O1150   1.285   .     A
C1061  C1094   1.424   .     A
C1061  C1096   1.421   .     A
C1062  C1095   1.421   .     A
C1062  C869    1.519   1_565 S
C1064  C295    1.189   1_556 S
C1065  C1070   1.392   .     A
C1065  C1076   1.417   .     A
C1065  Cl1097  1.767   .     S
C1066  Cl1098  1.766   .     S
C1066  C1071   1.393   .     A
C1066  C1077   1.418   .     A
C1067  C1077   1.417   .     A
C1067  C1072   1.392   .     A
C1067  Cl1099  1.766   .     S
C1068  O1146   1.293   .     A
C1068  O1145   1.295   .     A
C1068  C1075   1.464   .     S
C1069  C1076   1.417   .     A
C1069  C1073   1.392   .     A
C1069  Cl1100  1.766   .     S
C1070  C1074   1.400   .     A
C1070  H1134   1.083   .     S
C1071  C1075   1.399   .     A
C1071  H1135   1.084   .     S
C1072  H1136   1.083   .     S
C1072  C1075   1.400   .     A
C1073  C1074   1.400   .     A
C1073  H1137   1.084   .     S
C1077  C980    1.510   1_655 S
C1078  H1104   1.111   .     S
C1078  O1152   1.411   .     S
C1079  N1139   1.360   .     A
C1079  H1103   1.082   .     S
C1079  C1094   1.406   .     A
C1080  H1106   1.111   .     S
C1080  H1105   1.112   .     S
C1080  C886    1.529   1_565 S
C1080  C313    1.527   1_556 S
C1081  H1107   1.108   .     S
C1081  H1108   1.110   .     S
C1082  C1083   1.536   .     S
C1082  O1142   1.415   .     S
C1082  H918    1.111   1_565 S
C1082  H919    1.109   1_565 S
C1083  H1113   1.111   .     S
C1083  H1112   1.112   .     S
C1083  C1084   1.525   .     S
C1084  H1117   1.111   .     S
C1084  H1116   1.110   .     S
C1084  H1115   1.110   .     S
C1085  H1119   1.115   .     S
C1085  C1086   1.533   .     S
C1085  H1118   1.108   .     S
C1085  O1143   1.416   .     S
C1086  H1120   1.112   .     S
C1086  H1121   1.110   .     S
C1087  H1122   1.111   .     S
C1087  H1123   1.110   .     S
C1087  H1124   1.111   .     S
C1087  C318    1.527   1_556 S
C1088  O1144   1.414   .     S
C1088  H1127   1.114   .     S
C1088  C1089   1.535   .     S
C1088  H934    1.111   1_565 S
C1089  H1128   1.112   .     S
C1089  H1129   1.110   .     S
C1089  C1091   1.525   .     S
C1090  N1140   1.364   .     A
C1090  C1095   1.409   .     A
C1090  H1114   1.078   .     S
C1091  H1130   1.109   .     S
C1091  H1131   1.111   .     S
C1091  H1132   1.111   .     S
C1092  N1139   1.359   .     A
C1092  C1096   1.423   .     A
C1092  H1125   1.078   .     S
C1093  N1140   1.364   .     A
C1093  H1133   1.077   .     S
C1094  O1152   1.384   .     S
C1095  O1142   1.386   .     S
C1096  O1143   1.396   .     S
Cu1101 Cu1102  2.675   .     S
Cu1101 O1148   1.933   .     S
Cu1101 O1150   1.931   .     S
Cu1101 O1141   1.954   .     S
Cu1101 O1146   1.953   .     S
Cu1101 N1140   2.010   .     S
Cu1102 O1145   1.954   .     S
Cu1102 O1151   1.931   .     S
Cu1102 O1147   1.953   .     S
Cu1102 O1149   1.933   .     S
Cu1102 N1139   2.010   .     S
H1109  C313    1.111   1_556 S
H1138  C886    1.109   1_565 S
