data_str_m2_o1_o18_pcu_sym.166
_audit_creation_date              2020-01-03
_audit_creation_method            'Materials Studio'
_symmetry_space_group_name_H-M    'P1'
_symmetry_Int_Tables_number       1
_symmetry_cell_setting            triclinic
loop_
_symmetry_equiv_pos_as_xyz
  x,y,z
_cell_length_a                    28.6346
_cell_length_b                    32.3772
_cell_length_c                    30.7565
_cell_angle_alpha                 89.8353
_cell_angle_beta                  74.0851
_cell_angle_gamma                 90.3896
loop_
_atom_site_label
_atom_site_type_symbol
_atom_site_fract_x
_atom_site_fract_y
_atom_site_fract_z
_atom_site_U_iso_or_equiv
_atom_site_adp_type
_atom_site_occupancy
C1     C     0.33315   0.08748   0.24998   0.00000  Uiso   1.00
C2     C     0.33332   0.24580   0.25061   0.00000  Uiso   1.00
C3     C     0.19846   0.17731   0.05238   0.00000  Uiso   1.00
C4     C     0.15214   0.21702   0.46029   0.00000  Uiso   1.00
C5     C     0.24709   0.17138   0.02970   0.00000  Uiso   1.00
C6     C     0.10484   0.22705   0.48395   0.00000  Uiso   1.00
C7     C     0.29897   0.02183   0.28437   0.00000  Uiso   1.00
C8     C     0.03404   0.31135   0.21662   0.00000  Uiso   1.00
C9     C     0.29947   0.31186   0.28596   0.00000  Uiso   1.00
C10    C     0.03348   0.02124   0.21505   0.00000  Uiso   1.00
C11    C     0.00018   0.29041   0.25154   0.00000  Uiso   1.00
C12    C     0.33283   0.04277   0.24940   0.00000  Uiso   1.00
C13    C     0.18390   0.13856   0.27557   0.00000  Uiso   1.00
C14    C     0.14955   0.19435   0.22387   0.00000  Uiso   1.00
C15    C     0.13404   0.13879   0.27550   0.00000  Uiso   1.00
C16    C     0.19930   0.19445   0.22437   0.00000  Uiso   1.00
C17    C     0.30583   0.16507   0.33663   0.00000  Uiso   1.00
C18    C     0.02747   0.16868   0.16370   0.00000  Uiso   1.00
C19    C     0.29079   0.16415   0.38716   0.00000  Uiso   1.00
C20    C     0.04337   0.17857   0.11474   0.00000  Uiso   1.00
C21    C     0.31094   0.16102   0.45976   0.00000  Uiso   1.00
C22    C     0.03566   0.22050   0.05073   0.00000  Uiso   1.00
C23    C     0.32505   0.15740   0.41218   0.00000  Uiso   1.00
C24    C     0.01613   0.20591   0.09568   0.00000  Uiso   1.00
C25    C     0.24187   0.17190   0.41089   0.00000  Uiso   1.00
C26    C     0.09077   0.16761   0.08968   0.00000  Uiso   1.00
C27    C     0.22901   0.18036   0.45756   0.00000  Uiso   1.00
C28    C     0.11360   0.18905   0.04946   0.00000  Uiso   1.00
C29    C     0.26270   0.17130   0.48231   0.00000  Uiso   1.00
C30    C     0.08452   0.21237   0.02807   0.00000  Uiso   1.00
C31    C     0.18154   0.19353   0.48114   0.00000  Uiso   1.00
C32    C     0.16415   0.18542   0.02806   0.00000  Uiso   1.00
Cu33   Cu    0.04689   0.16667   0.25000   0.00000  Uiso   1.00
Cu34   Cu    0.28645   0.16666   0.25000   0.00000  Uiso   1.00
H35    H     0.27219   0.16556   0.04968   0.00000  Uiso   1.00
H36    H     0.08395   0.24587   0.46705   0.00000  Uiso   1.00
N37    N     0.11736   0.16668   0.24999   0.00000  Uiso   1.00
N38    N     0.21597   0.16666   0.25001   0.00000  Uiso   1.00
O39    O     0.03958   0.10655   0.25000   0.00000  Uiso   1.00
O40    O     0.29375   0.22678   0.25000   0.00000  Uiso   1.00
O41    O     0.29372   0.10654   0.25001   0.00000  Uiso   1.00
O42    O     0.03961   0.22679   0.25000   0.00000  Uiso   1.00
O43    O     0.01852   0.16668   0.31492   0.00000  Uiso   1.00
O44    O     0.31481   0.16666   0.18509   0.00000  Uiso   1.00
O45    O     0.27267   0.16667   0.31492   0.00000  Uiso   1.00
O46    O     0.06067   0.16667   0.18508   0.00000  Uiso   1.00
O47    O     0.11425   0.13431   0.10215   0.00000  Uiso   1.00
H48    H     0.08982   0.11559   0.12158   0.00000  Uiso   1.00
O49    O     0.20518   0.16583   0.39046   0.00000  Uiso   1.00
H50    H     0.21012   0.13800   0.37669   0.00000  Uiso   1.00
O51    O     0.30500   0.21905   0.12205   0.00000  Uiso   1.00
H52    H     0.29932   0.24749   0.11279   0.00000  Uiso   1.00
O53    O     0.03816   0.14449   0.39139   0.00000  Uiso   1.00
H54    H     0.03518   0.12161   0.37098   0.00000  Uiso   1.00
O55    O     0.00958   0.15312   0.48532   0.00000  Uiso   1.00
H56    H     0.04263   0.14835   0.46542   0.00000  Uiso   1.00
O57    O     0.00847   0.24337   0.02859   0.00000  Uiso   1.00
H58    H     0.30688   0.23780   0.04249   0.00000  Uiso   1.00
F59    F     0.18654   0.17970   0.09818   0.00000  Uiso   1.00
F60    F     0.17054   0.23464   0.41894   0.00000  Uiso   1.00
O61    O     0.26736   0.04488   0.31744   0.00000  Uiso   1.00
H62    H     0.24486   0.02651   0.33939   0.00000  Uiso   1.00
O63    O     0.06562   0.28833   0.18346   0.00000  Uiso   1.00
H64    H     0.08809   0.30671   0.16149   0.00000  Uiso   1.00
O65    O     0.26715   0.29183   0.32176   0.00000  Uiso   1.00
H66    H     0.27851   0.26355   0.32521   0.00000  Uiso   1.00
O67    O     0.06560   0.04125   0.17923   0.00000  Uiso   1.00
H68    H     0.05287   0.06882   0.17512   0.00000  Uiso   1.00
O69    O     0.20100   0.11026   0.30092   0.00000  Uiso   1.00
H70    H     0.17405   0.09207   0.31759   0.00000  Uiso   1.00
O71    O     0.13277   0.22160   0.19717   0.00000  Uiso   1.00
H72    H     0.15992   0.23924   0.17979   0.00000  Uiso   1.00
F73    F     0.10262   0.11070   0.30054   0.00000  Uiso   1.00
F74    F     0.23069   0.22251   0.19930   0.00000  Uiso   1.00
C75    C     0.66649   0.08748   0.24998   0.00000  Uiso   1.00
C76    C     0.66665   0.24580   0.25061   0.00000  Uiso   1.00
C77    C     0.53179   0.17731   0.05238   0.00000  Uiso   1.00
C78    C     0.48547   0.21702   0.46029   0.00000  Uiso   1.00
C79    C     0.58042   0.17138   0.02970   0.00000  Uiso   1.00
C80    C     0.43817   0.22705   0.48395   0.00000  Uiso   1.00
C81    C     0.63230   0.02183   0.28437   0.00000  Uiso   1.00
C82    C     0.36737   0.31135   0.21662   0.00000  Uiso   1.00
C83    C     0.63280   0.31186   0.28596   0.00000  Uiso   1.00
C84    C     0.36681   0.02124   0.21505   0.00000  Uiso   1.00
C85    C     0.33351   0.29041   0.25154   0.00000  Uiso   1.00
C86    C     0.66616   0.04277   0.24940   0.00000  Uiso   1.00
C87    C     0.51724   0.13856   0.27557   0.00000  Uiso   1.00
C88    C     0.48288   0.19435   0.22387   0.00000  Uiso   1.00
C89    C     0.46737   0.13879   0.27550   0.00000  Uiso   1.00
C90    C     0.53263   0.19445   0.22437   0.00000  Uiso   1.00
C91    C     0.63916   0.16507   0.33663   0.00000  Uiso   1.00
C92    C     0.36080   0.16868   0.16370   0.00000  Uiso   1.00
C93    C     0.62413   0.16415   0.38716   0.00000  Uiso   1.00
C94    C     0.37670   0.17857   0.11474   0.00000  Uiso   1.00
C95    C     0.64427   0.16102   0.45976   0.00000  Uiso   1.00
C96    C     0.36899   0.22050   0.05073   0.00000  Uiso   1.00
C97    C     0.65838   0.15740   0.41218   0.00000  Uiso   1.00
C98    C     0.34946   0.20591   0.09568   0.00000  Uiso   1.00
C99    C     0.57520   0.17190   0.41089   0.00000  Uiso   1.00
C100   C     0.42410   0.16761   0.08968   0.00000  Uiso   1.00
C101   C     0.56234   0.18036   0.45756   0.00000  Uiso   1.00
C102   C     0.44694   0.18905   0.04946   0.00000  Uiso   1.00
C103   C     0.59604   0.17130   0.48231   0.00000  Uiso   1.00
C104   C     0.41786   0.21237   0.02807   0.00000  Uiso   1.00
C105   C     0.51487   0.19353   0.48114   0.00000  Uiso   1.00
C106   C     0.49748   0.18542   0.02806   0.00000  Uiso   1.00
Cu107  Cu    0.38022   0.16667   0.25000   0.00000  Uiso   1.00
Cu108  Cu    0.61978   0.16666   0.25000   0.00000  Uiso   1.00
H109   H     0.60552   0.16556   0.04968   0.00000  Uiso   1.00
H110   H     0.41728   0.24587   0.46705   0.00000  Uiso   1.00
N111   N     0.45069   0.16668   0.24999   0.00000  Uiso   1.00
N112   N     0.54931   0.16666   0.25001   0.00000  Uiso   1.00
O113   O     0.37291   0.10655   0.25000   0.00000  Uiso   1.00
O114   O     0.62709   0.22678   0.25000   0.00000  Uiso   1.00
O115   O     0.62706   0.10654   0.25001   0.00000  Uiso   1.00
O116   O     0.37294   0.22679   0.25000   0.00000  Uiso   1.00
O117   O     0.35186   0.16668   0.31492   0.00000  Uiso   1.00
O118   O     0.64814   0.16666   0.18509   0.00000  Uiso   1.00
O119   O     0.60600   0.16667   0.31492   0.00000  Uiso   1.00
O120   O     0.39400   0.16667   0.18508   0.00000  Uiso   1.00
O121   O     0.44759   0.13431   0.10215   0.00000  Uiso   1.00
H122   H     0.42316   0.11559   0.12158   0.00000  Uiso   1.00
O123   O     0.53851   0.16583   0.39046   0.00000  Uiso   1.00
H124   H     0.54346   0.13800   0.37669   0.00000  Uiso   1.00
O125   O     0.63833   0.21905   0.12205   0.00000  Uiso   1.00
H126   H     0.63265   0.24749   0.11279   0.00000  Uiso   1.00
O127   O     0.37150   0.14449   0.39139   0.00000  Uiso   1.00
H128   H     0.36852   0.12161   0.37098   0.00000  Uiso   1.00
O129   O     0.34291   0.15312   0.48532   0.00000  Uiso   1.00
H130   H     0.37596   0.14835   0.46542   0.00000  Uiso   1.00
O131   O     0.34180   0.24337   0.02859   0.00000  Uiso   1.00
H132   H     0.64021   0.23780   0.04249   0.00000  Uiso   1.00
F133   F     0.51987   0.17970   0.09818   0.00000  Uiso   1.00
F134   F     0.50388   0.23464   0.41894   0.00000  Uiso   1.00
O135   O     0.60069   0.04488   0.31744   0.00000  Uiso   1.00
H136   H     0.57820   0.02651   0.33939   0.00000  Uiso   1.00
O137   O     0.39895   0.28833   0.18346   0.00000  Uiso   1.00
H138   H     0.42142   0.30671   0.16149   0.00000  Uiso   1.00
O139   O     0.60048   0.29183   0.32176   0.00000  Uiso   1.00
H140   H     0.61185   0.26355   0.32521   0.00000  Uiso   1.00
O141   O     0.39893   0.04125   0.17923   0.00000  Uiso   1.00
H142   H     0.38620   0.06882   0.17512   0.00000  Uiso   1.00
O143   O     0.53433   0.11026   0.30092   0.00000  Uiso   1.00
H144   H     0.50738   0.09207   0.31759   0.00000  Uiso   1.00
O145   O     0.46610   0.22160   0.19717   0.00000  Uiso   1.00
H146   H     0.49325   0.23924   0.17979   0.00000  Uiso   1.00
F147   F     0.43595   0.11070   0.30054   0.00000  Uiso   1.00
F148   F     0.56403   0.22251   0.19930   0.00000  Uiso   1.00
C149   C     0.99982   0.08748   0.24998   0.00000  Uiso   1.00
C150   C     0.99999   0.24580   0.25061   0.00000  Uiso   1.00
C151   C     0.86513   0.17731   0.05238   0.00000  Uiso   1.00
C152   C     0.81881   0.21702   0.46029   0.00000  Uiso   1.00
C153   C     0.91376   0.17138   0.02970   0.00000  Uiso   1.00
C154   C     0.77151   0.22705   0.48395   0.00000  Uiso   1.00
C155   C     0.96564   0.02183   0.28437   0.00000  Uiso   1.00
C156   C     0.70070   0.31135   0.21662   0.00000  Uiso   1.00
C157   C     0.96613   0.31186   0.28596   0.00000  Uiso   1.00
C158   C     0.70015   0.02124   0.21505   0.00000  Uiso   1.00
C159   C     0.66685   0.29041   0.25154   0.00000  Uiso   1.00
C160   C     0.99950   0.04277   0.24940   0.00000  Uiso   1.00
C161   C     0.85057   0.13856   0.27557   0.00000  Uiso   1.00
C162   C     0.81622   0.19435   0.22387   0.00000  Uiso   1.00
C163   C     0.80070   0.13879   0.27550   0.00000  Uiso   1.00
C164   C     0.86597   0.19445   0.22437   0.00000  Uiso   1.00
C165   C     0.97249   0.16507   0.33663   0.00000  Uiso   1.00
C166   C     0.69414   0.16868   0.16370   0.00000  Uiso   1.00
C167   C     0.95746   0.16415   0.38716   0.00000  Uiso   1.00
C168   C     0.71003   0.17857   0.11474   0.00000  Uiso   1.00
C169   C     0.97760   0.16102   0.45976   0.00000  Uiso   1.00
C170   C     0.70233   0.22050   0.05073   0.00000  Uiso   1.00
C171   C     0.99172   0.15740   0.41218   0.00000  Uiso   1.00
C172   C     0.68279   0.20591   0.09568   0.00000  Uiso   1.00
C173   C     0.90853   0.17190   0.41089   0.00000  Uiso   1.00
C174   C     0.75744   0.16761   0.08968   0.00000  Uiso   1.00
C175   C     0.89567   0.18036   0.45756   0.00000  Uiso   1.00
C176   C     0.78027   0.18905   0.04946   0.00000  Uiso   1.00
C177   C     0.92937   0.17130   0.48231   0.00000  Uiso   1.00
C178   C     0.75119   0.21237   0.02807   0.00000  Uiso   1.00
C179   C     0.84820   0.19353   0.48114   0.00000  Uiso   1.00
C180   C     0.83081   0.18542   0.02806   0.00000  Uiso   1.00
Cu181  Cu    0.71355   0.16667   0.25000   0.00000  Uiso   1.00
Cu182  Cu    0.95311   0.16666   0.25000   0.00000  Uiso   1.00
H183   H     0.93886   0.16556   0.04968   0.00000  Uiso   1.00
H184   H     0.75061   0.24587   0.46705   0.00000  Uiso   1.00
N185   N     0.78403   0.16668   0.24999   0.00000  Uiso   1.00
N186   N     0.88264   0.16666   0.25001   0.00000  Uiso   1.00
O187   O     0.70625   0.10655   0.25000   0.00000  Uiso   1.00
O188   O     0.96042   0.22678   0.25000   0.00000  Uiso   1.00
O189   O     0.96039   0.10654   0.25001   0.00000  Uiso   1.00
O190   O     0.70628   0.22679   0.25000   0.00000  Uiso   1.00
O191   O     0.68519   0.16668   0.31492   0.00000  Uiso   1.00
O192   O     0.98148   0.16666   0.18509   0.00000  Uiso   1.00
O193   O     0.93933   0.16667   0.31492   0.00000  Uiso   1.00
O194   O     0.72733   0.16667   0.18508   0.00000  Uiso   1.00
O195   O     0.78092   0.13431   0.10215   0.00000  Uiso   1.00
H196   H     0.75649   0.11559   0.12158   0.00000  Uiso   1.00
O197   O     0.87184   0.16583   0.39046   0.00000  Uiso   1.00
H198   H     0.87679   0.13800   0.37669   0.00000  Uiso   1.00
O199   O     0.97167   0.21905   0.12205   0.00000  Uiso   1.00
H200   H     0.96599   0.24749   0.11279   0.00000  Uiso   1.00
O201   O     0.70483   0.14449   0.39139   0.00000  Uiso   1.00
H202   H     0.70185   0.12161   0.37098   0.00000  Uiso   1.00
O203   O     0.67625   0.15312   0.48532   0.00000  Uiso   1.00
H204   H     0.70929   0.14835   0.46542   0.00000  Uiso   1.00
O205   O     0.67513   0.24337   0.02859   0.00000  Uiso   1.00
H206   H     0.97354   0.23780   0.04249   0.00000  Uiso   1.00
F207   F     0.85321   0.17970   0.09818   0.00000  Uiso   1.00
F208   F     0.83721   0.23464   0.41894   0.00000  Uiso   1.00
O209   O     0.93402   0.04488   0.31744   0.00000  Uiso   1.00
H210   H     0.91153   0.02651   0.33939   0.00000  Uiso   1.00
O211   O     0.73229   0.28833   0.18346   0.00000  Uiso   1.00
H212   H     0.75476   0.30671   0.16149   0.00000  Uiso   1.00
O213   O     0.93381   0.29183   0.32176   0.00000  Uiso   1.00
H214   H     0.94518   0.26355   0.32521   0.00000  Uiso   1.00
O215   O     0.73227   0.04125   0.17923   0.00000  Uiso   1.00
H216   H     0.71953   0.06882   0.17512   0.00000  Uiso   1.00
O217   O     0.86767   0.11026   0.30092   0.00000  Uiso   1.00
H218   H     0.84071   0.09207   0.31759   0.00000  Uiso   1.00
O219   O     0.79944   0.22160   0.19717   0.00000  Uiso   1.00
H220   H     0.82659   0.23924   0.17979   0.00000  Uiso   1.00
F221   F     0.76928   0.11070   0.30054   0.00000  Uiso   1.00
F222   F     0.89736   0.22251   0.19930   0.00000  Uiso   1.00
C223   C     0.33315   0.42081   0.24998   0.00000  Uiso   1.00
C224   C     0.33332   0.57914   0.25061   0.00000  Uiso   1.00
C225   C     0.19846   0.51064   0.05238   0.00000  Uiso   1.00
C226   C     0.15214   0.55035   0.46029   0.00000  Uiso   1.00
C227   C     0.24709   0.50472   0.02970   0.00000  Uiso   1.00
C228   C     0.10484   0.56038   0.48395   0.00000  Uiso   1.00
C229   C     0.29897   0.35516   0.28437   0.00000  Uiso   1.00
C230   C     0.03404   0.64468   0.21662   0.00000  Uiso   1.00
C231   C     0.29947   0.64520   0.28596   0.00000  Uiso   1.00
C232   C     0.03348   0.35457   0.21505   0.00000  Uiso   1.00
C233   C     0.00018   0.62375   0.25154   0.00000  Uiso   1.00
C234   C     0.33283   0.37610   0.24940   0.00000  Uiso   1.00
C235   C     0.18390   0.47189   0.27557   0.00000  Uiso   1.00
C236   C     0.14955   0.52769   0.22387   0.00000  Uiso   1.00
C237   C     0.13404   0.47213   0.27550   0.00000  Uiso   1.00
C238   C     0.19930   0.52778   0.22437   0.00000  Uiso   1.00
C239   C     0.30583   0.49841   0.33663   0.00000  Uiso   1.00
C240   C     0.02747   0.50201   0.16370   0.00000  Uiso   1.00
C241   C     0.29079   0.49749   0.38716   0.00000  Uiso   1.00
C242   C     0.04337   0.51191   0.11474   0.00000  Uiso   1.00
C243   C     0.31094   0.49435   0.45976   0.00000  Uiso   1.00
C244   C     0.03566   0.55383   0.05073   0.00000  Uiso   1.00
C245   C     0.32505   0.49073   0.41218   0.00000  Uiso   1.00
C246   C     0.01613   0.53924   0.09568   0.00000  Uiso   1.00
C247   C     0.24187   0.50524   0.41089   0.00000  Uiso   1.00
C248   C     0.09077   0.50095   0.08968   0.00000  Uiso   1.00
C249   C     0.22901   0.51369   0.45756   0.00000  Uiso   1.00
C250   C     0.11360   0.52238   0.04946   0.00000  Uiso   1.00
C251   C     0.26270   0.50464   0.48231   0.00000  Uiso   1.00
C252   C     0.08452   0.54571   0.02807   0.00000  Uiso   1.00
C253   C     0.18154   0.52686   0.48114   0.00000  Uiso   1.00
C254   C     0.16415   0.51876   0.02806   0.00000  Uiso   1.00
Cu255  Cu    0.04689   0.50001   0.25000   0.00000  Uiso   1.00
Cu256  Cu    0.28645   0.49999   0.25000   0.00000  Uiso   1.00
H257   H     0.27219   0.49889   0.04968   0.00000  Uiso   1.00
H258   H     0.08395   0.57921   0.46705   0.00000  Uiso   1.00
N259   N     0.11736   0.50001   0.24999   0.00000  Uiso   1.00
N260   N     0.21597   0.49999   0.25001   0.00000  Uiso   1.00
O261   O     0.03958   0.43989   0.25000   0.00000  Uiso   1.00
O262   O     0.29375   0.56011   0.25000   0.00000  Uiso   1.00
O263   O     0.29372   0.43988   0.25001   0.00000  Uiso   1.00
O264   O     0.03961   0.56012   0.25000   0.00000  Uiso   1.00
O265   O     0.01852   0.50001   0.31492   0.00000  Uiso   1.00
O266   O     0.31481   0.49999   0.18509   0.00000  Uiso   1.00
O267   O     0.27267   0.50000   0.31492   0.00000  Uiso   1.00
O268   O     0.06067   0.50000   0.18508   0.00000  Uiso   1.00
O269   O     0.11425   0.46764   0.10215   0.00000  Uiso   1.00
H270   H     0.08982   0.44892   0.12158   0.00000  Uiso   1.00
O271   O     0.20518   0.49916   0.39046   0.00000  Uiso   1.00
H272   H     0.21012   0.47133   0.37669   0.00000  Uiso   1.00
O273   O     0.30500   0.55239   0.12205   0.00000  Uiso   1.00
H274   H     0.29932   0.58082   0.11279   0.00000  Uiso   1.00
O275   O     0.03816   0.47782   0.39139   0.00000  Uiso   1.00
H276   H     0.03518   0.45494   0.37098   0.00000  Uiso   1.00
O277   O     0.00958   0.48646   0.48532   0.00000  Uiso   1.00
H278   H     0.04263   0.48168   0.46542   0.00000  Uiso   1.00
O279   O     0.00847   0.57670   0.02859   0.00000  Uiso   1.00
H280   H     0.30688   0.57113   0.04249   0.00000  Uiso   1.00
F281   F     0.18654   0.51303   0.09818   0.00000  Uiso   1.00
F282   F     0.17054   0.56797   0.41894   0.00000  Uiso   1.00
O283   O     0.26736   0.37822   0.31744   0.00000  Uiso   1.00
H284   H     0.24486   0.35984   0.33939   0.00000  Uiso   1.00
O285   O     0.06562   0.62167   0.18346   0.00000  Uiso   1.00
H286   H     0.08809   0.64004   0.16149   0.00000  Uiso   1.00
O287   O     0.26715   0.62517   0.32176   0.00000  Uiso   1.00
H288   H     0.27851   0.59688   0.32521   0.00000  Uiso   1.00
O289   O     0.06560   0.37458   0.17923   0.00000  Uiso   1.00
H290   H     0.05287   0.40215   0.17512   0.00000  Uiso   1.00
O291   O     0.20100   0.44359   0.30092   0.00000  Uiso   1.00
H292   H     0.17405   0.42540   0.31759   0.00000  Uiso   1.00
O293   O     0.13277   0.55493   0.19717   0.00000  Uiso   1.00
H294   H     0.15992   0.57257   0.17979   0.00000  Uiso   1.00
F295   F     0.10262   0.44403   0.30054   0.00000  Uiso   1.00
F296   F     0.23069   0.55585   0.19930   0.00000  Uiso   1.00
C297   C     0.66649   0.42081   0.24998   0.00000  Uiso   1.00
C298   C     0.66665   0.57914   0.25061   0.00000  Uiso   1.00
C299   C     0.53179   0.51064   0.05238   0.00000  Uiso   1.00
C300   C     0.48547   0.55035   0.46029   0.00000  Uiso   1.00
C301   C     0.58042   0.50472   0.02970   0.00000  Uiso   1.00
C302   C     0.43817   0.56038   0.48395   0.00000  Uiso   1.00
C303   C     0.63230   0.35516   0.28437   0.00000  Uiso   1.00
C304   C     0.36737   0.64468   0.21662   0.00000  Uiso   1.00
C305   C     0.63280   0.64520   0.28596   0.00000  Uiso   1.00
C306   C     0.36681   0.35457   0.21505   0.00000  Uiso   1.00
C307   C     0.33351   0.62375   0.25154   0.00000  Uiso   1.00
C308   C     0.66616   0.37610   0.24940   0.00000  Uiso   1.00
C309   C     0.51724   0.47189   0.27557   0.00000  Uiso   1.00
C310   C     0.48288   0.52769   0.22387   0.00000  Uiso   1.00
C311   C     0.46737   0.47213   0.27550   0.00000  Uiso   1.00
C312   C     0.53263   0.52778   0.22437   0.00000  Uiso   1.00
C313   C     0.63916   0.49841   0.33663   0.00000  Uiso   1.00
C314   C     0.36080   0.50201   0.16370   0.00000  Uiso   1.00
C315   C     0.62413   0.49749   0.38716   0.00000  Uiso   1.00
C316   C     0.37670   0.51191   0.11474   0.00000  Uiso   1.00
C317   C     0.64427   0.49435   0.45976   0.00000  Uiso   1.00
C318   C     0.36899   0.55383   0.05073   0.00000  Uiso   1.00
C319   C     0.65838   0.49073   0.41218   0.00000  Uiso   1.00
C320   C     0.34946   0.53924   0.09568   0.00000  Uiso   1.00
C321   C     0.57520   0.50524   0.41089   0.00000  Uiso   1.00
C322   C     0.42410   0.50095   0.08968   0.00000  Uiso   1.00
C323   C     0.56234   0.51369   0.45756   0.00000  Uiso   1.00
C324   C     0.44694   0.52238   0.04946   0.00000  Uiso   1.00
C325   C     0.59604   0.50464   0.48231   0.00000  Uiso   1.00
C326   C     0.41786   0.54571   0.02807   0.00000  Uiso   1.00
C327   C     0.51487   0.52686   0.48114   0.00000  Uiso   1.00
C328   C     0.49748   0.51876   0.02806   0.00000  Uiso   1.00
Cu329  Cu    0.38022   0.50001   0.25000   0.00000  Uiso   1.00
Cu330  Cu    0.61978   0.49999   0.25000   0.00000  Uiso   1.00
H331   H     0.60552   0.49889   0.04968   0.00000  Uiso   1.00
H332   H     0.41728   0.57921   0.46705   0.00000  Uiso   1.00
N333   N     0.45069   0.50001   0.24999   0.00000  Uiso   1.00
N334   N     0.54931   0.49999   0.25001   0.00000  Uiso   1.00
O335   O     0.37291   0.43989   0.25000   0.00000  Uiso   1.00
O336   O     0.62709   0.56011   0.25000   0.00000  Uiso   1.00
O337   O     0.62706   0.43988   0.25001   0.00000  Uiso   1.00
O338   O     0.37294   0.56012   0.25000   0.00000  Uiso   1.00
O339   O     0.35186   0.50001   0.31492   0.00000  Uiso   1.00
O340   O     0.64814   0.49999   0.18509   0.00000  Uiso   1.00
O341   O     0.60600   0.50000   0.31492   0.00000  Uiso   1.00
O342   O     0.39400   0.50000   0.18508   0.00000  Uiso   1.00
O343   O     0.44759   0.46764   0.10215   0.00000  Uiso   1.00
H344   H     0.42316   0.44892   0.12158   0.00000  Uiso   1.00
O345   O     0.53851   0.49916   0.39046   0.00000  Uiso   1.00
H346   H     0.54346   0.47133   0.37669   0.00000  Uiso   1.00
O347   O     0.63833   0.55239   0.12205   0.00000  Uiso   1.00
H348   H     0.63265   0.58082   0.11279   0.00000  Uiso   1.00
O349   O     0.37150   0.47782   0.39139   0.00000  Uiso   1.00
H350   H     0.36852   0.45494   0.37098   0.00000  Uiso   1.00
O351   O     0.34291   0.48646   0.48532   0.00000  Uiso   1.00
H352   H     0.37596   0.48168   0.46542   0.00000  Uiso   1.00
O353   O     0.34180   0.57670   0.02859   0.00000  Uiso   1.00
H354   H     0.64021   0.57113   0.04249   0.00000  Uiso   1.00
F355   F     0.51987   0.51303   0.09818   0.00000  Uiso   1.00
F356   F     0.50388   0.56797   0.41894   0.00000  Uiso   1.00
O357   O     0.60069   0.37822   0.31744   0.00000  Uiso   1.00
H358   H     0.57820   0.35984   0.33939   0.00000  Uiso   1.00
O359   O     0.39895   0.62167   0.18346   0.00000  Uiso   1.00
H360   H     0.42142   0.64004   0.16149   0.00000  Uiso   1.00
O361   O     0.60048   0.62517   0.32176   0.00000  Uiso   1.00
H362   H     0.61185   0.59688   0.32521   0.00000  Uiso   1.00
O363   O     0.39893   0.37458   0.17923   0.00000  Uiso   1.00
H364   H     0.38620   0.40215   0.17512   0.00000  Uiso   1.00
O365   O     0.53433   0.44359   0.30092   0.00000  Uiso   1.00
H366   H     0.50738   0.42540   0.31759   0.00000  Uiso   1.00
O367   O     0.46610   0.55493   0.19717   0.00000  Uiso   1.00
H368   H     0.49325   0.57257   0.17979   0.00000  Uiso   1.00
F369   F     0.43595   0.44403   0.30054   0.00000  Uiso   1.00
F370   F     0.56403   0.55585   0.19930   0.00000  Uiso   1.00
C371   C     0.99982   0.42081   0.24998   0.00000  Uiso   1.00
C372   C     0.99999   0.57914   0.25061   0.00000  Uiso   1.00
C373   C     0.86513   0.51064   0.05238   0.00000  Uiso   1.00
C374   C     0.81881   0.55035   0.46029   0.00000  Uiso   1.00
C375   C     0.91376   0.50472   0.02970   0.00000  Uiso   1.00
C376   C     0.77151   0.56038   0.48395   0.00000  Uiso   1.00
C377   C     0.96564   0.35516   0.28437   0.00000  Uiso   1.00
C378   C     0.70070   0.64468   0.21662   0.00000  Uiso   1.00
C379   C     0.96613   0.64520   0.28596   0.00000  Uiso   1.00
C380   C     0.70015   0.35457   0.21505   0.00000  Uiso   1.00
C381   C     0.66685   0.62375   0.25154   0.00000  Uiso   1.00
C382   C     0.99950   0.37610   0.24940   0.00000  Uiso   1.00
C383   C     0.85057   0.47189   0.27557   0.00000  Uiso   1.00
C384   C     0.81622   0.52769   0.22387   0.00000  Uiso   1.00
C385   C     0.80070   0.47213   0.27550   0.00000  Uiso   1.00
C386   C     0.86597   0.52778   0.22437   0.00000  Uiso   1.00
C387   C     0.97249   0.49841   0.33663   0.00000  Uiso   1.00
C388   C     0.69414   0.50201   0.16370   0.00000  Uiso   1.00
C389   C     0.95746   0.49749   0.38716   0.00000  Uiso   1.00
C390   C     0.71003   0.51191   0.11474   0.00000  Uiso   1.00
C391   C     0.97760   0.49435   0.45976   0.00000  Uiso   1.00
C392   C     0.70233   0.55383   0.05073   0.00000  Uiso   1.00
C393   C     0.99172   0.49073   0.41218   0.00000  Uiso   1.00
C394   C     0.68279   0.53924   0.09568   0.00000  Uiso   1.00
C395   C     0.90853   0.50524   0.41089   0.00000  Uiso   1.00
C396   C     0.75744   0.50095   0.08968   0.00000  Uiso   1.00
C397   C     0.89567   0.51369   0.45756   0.00000  Uiso   1.00
C398   C     0.78027   0.52238   0.04946   0.00000  Uiso   1.00
C399   C     0.92937   0.50464   0.48231   0.00000  Uiso   1.00
C400   C     0.75119   0.54571   0.02807   0.00000  Uiso   1.00
C401   C     0.84820   0.52686   0.48114   0.00000  Uiso   1.00
C402   C     0.83081   0.51876   0.02806   0.00000  Uiso   1.00
Cu403  Cu    0.71355   0.50001   0.25000   0.00000  Uiso   1.00
Cu404  Cu    0.95311   0.49999   0.25000   0.00000  Uiso   1.00
H405   H     0.93886   0.49889   0.04968   0.00000  Uiso   1.00
H406   H     0.75061   0.57921   0.46705   0.00000  Uiso   1.00
N407   N     0.78403   0.50001   0.24999   0.00000  Uiso   1.00
N408   N     0.88264   0.49999   0.25001   0.00000  Uiso   1.00
O409   O     0.70625   0.43989   0.25000   0.00000  Uiso   1.00
O410   O     0.96042   0.56011   0.25000   0.00000  Uiso   1.00
O411   O     0.96039   0.43988   0.25001   0.00000  Uiso   1.00
O412   O     0.70628   0.56012   0.25000   0.00000  Uiso   1.00
O413   O     0.68519   0.50001   0.31492   0.00000  Uiso   1.00
O414   O     0.98148   0.49999   0.18509   0.00000  Uiso   1.00
O415   O     0.93933   0.50000   0.31492   0.00000  Uiso   1.00
O416   O     0.72733   0.50000   0.18508   0.00000  Uiso   1.00
O417   O     0.78092   0.46764   0.10215   0.00000  Uiso   1.00
H418   H     0.75649   0.44892   0.12158   0.00000  Uiso   1.00
O419   O     0.87184   0.49916   0.39046   0.00000  Uiso   1.00
H420   H     0.87679   0.47133   0.37669   0.00000  Uiso   1.00
O421   O     0.97167   0.55239   0.12205   0.00000  Uiso   1.00
H422   H     0.96599   0.58082   0.11279   0.00000  Uiso   1.00
O423   O     0.70483   0.47782   0.39139   0.00000  Uiso   1.00
H424   H     0.70185   0.45494   0.37098   0.00000  Uiso   1.00
O425   O     0.67625   0.48646   0.48532   0.00000  Uiso   1.00
H426   H     0.70929   0.48168   0.46542   0.00000  Uiso   1.00
O427   O     0.67513   0.57670   0.02859   0.00000  Uiso   1.00
H428   H     0.97354   0.57113   0.04249   0.00000  Uiso   1.00
F429   F     0.85321   0.51303   0.09818   0.00000  Uiso   1.00
F430   F     0.83721   0.56797   0.41894   0.00000  Uiso   1.00
O431   O     0.93402   0.37822   0.31744   0.00000  Uiso   1.00
H432   H     0.91153   0.35984   0.33939   0.00000  Uiso   1.00
O433   O     0.73229   0.62167   0.18346   0.00000  Uiso   1.00
H434   H     0.75476   0.64004   0.16149   0.00000  Uiso   1.00
O435   O     0.93381   0.62517   0.32176   0.00000  Uiso   1.00
H436   H     0.94518   0.59688   0.32521   0.00000  Uiso   1.00
O437   O     0.73227   0.37458   0.17923   0.00000  Uiso   1.00
H438   H     0.71953   0.40215   0.17512   0.00000  Uiso   1.00
O439   O     0.86767   0.44359   0.30092   0.00000  Uiso   1.00
H440   H     0.84071   0.42540   0.31759   0.00000  Uiso   1.00
O441   O     0.79944   0.55493   0.19717   0.00000  Uiso   1.00
H442   H     0.82659   0.57257   0.17979   0.00000  Uiso   1.00
F443   F     0.76928   0.44403   0.30054   0.00000  Uiso   1.00
F444   F     0.89736   0.55585   0.19930   0.00000  Uiso   1.00
C445   C     0.33315   0.75414   0.24998   0.00000  Uiso   1.00
C446   C     0.33332   0.91247   0.25061   0.00000  Uiso   1.00
C447   C     0.19846   0.84398   0.05238   0.00000  Uiso   1.00
C448   C     0.15214   0.88369   0.46029   0.00000  Uiso   1.00
C449   C     0.24709   0.83805   0.02970   0.00000  Uiso   1.00
C450   C     0.10484   0.89371   0.48395   0.00000  Uiso   1.00
C451   C     0.29897   0.68850   0.28437   0.00000  Uiso   1.00
C452   C     0.03404   0.97801   0.21662   0.00000  Uiso   1.00
C453   C     0.29947   0.97853   0.28596   0.00000  Uiso   1.00
C454   C     0.03348   0.68791   0.21505   0.00000  Uiso   1.00
C455   C     0.00018   0.95708   0.25154   0.00000  Uiso   1.00
C456   C     0.33283   0.70943   0.24940   0.00000  Uiso   1.00
C457   C     0.18390   0.80523   0.27557   0.00000  Uiso   1.00
C458   C     0.14955   0.86102   0.22387   0.00000  Uiso   1.00
C459   C     0.13404   0.80546   0.27550   0.00000  Uiso   1.00
C460   C     0.19930   0.86111   0.22437   0.00000  Uiso   1.00
C461   C     0.30583   0.83174   0.33663   0.00000  Uiso   1.00
C462   C     0.02747   0.83535   0.16370   0.00000  Uiso   1.00
C463   C     0.29079   0.83082   0.38716   0.00000  Uiso   1.00
C464   C     0.04337   0.84524   0.11474   0.00000  Uiso   1.00
C465   C     0.31094   0.82768   0.45976   0.00000  Uiso   1.00
C466   C     0.03566   0.88717   0.05073   0.00000  Uiso   1.00
C467   C     0.32505   0.82407   0.41218   0.00000  Uiso   1.00
C468   C     0.01613   0.87257   0.09568   0.00000  Uiso   1.00
C469   C     0.24187   0.83857   0.41089   0.00000  Uiso   1.00
C470   C     0.09077   0.83428   0.08968   0.00000  Uiso   1.00
C471   C     0.22901   0.84702   0.45756   0.00000  Uiso   1.00
C472   C     0.11360   0.85572   0.04946   0.00000  Uiso   1.00
C473   C     0.26270   0.83797   0.48231   0.00000  Uiso   1.00
C474   C     0.08452   0.87904   0.02807   0.00000  Uiso   1.00
C475   C     0.18154   0.86019   0.48114   0.00000  Uiso   1.00
C476   C     0.16415   0.85209   0.02806   0.00000  Uiso   1.00
Cu477  Cu    0.04689   0.83334   0.25000   0.00000  Uiso   1.00
Cu478  Cu    0.28645   0.83333   0.25000   0.00000  Uiso   1.00
H479   H     0.27219   0.83223   0.04968   0.00000  Uiso   1.00
H480   H     0.08395   0.91254   0.46705   0.00000  Uiso   1.00
N481   N     0.11736   0.83334   0.24999   0.00000  Uiso   1.00
N482   N     0.21597   0.83332   0.25001   0.00000  Uiso   1.00
O483   O     0.03958   0.77322   0.25000   0.00000  Uiso   1.00
O484   O     0.29375   0.89345   0.25000   0.00000  Uiso   1.00
O485   O     0.29372   0.77321   0.25001   0.00000  Uiso   1.00
O486   O     0.03961   0.89346   0.25000   0.00000  Uiso   1.00
O487   O     0.01852   0.83334   0.31492   0.00000  Uiso   1.00
O488   O     0.31481   0.83332   0.18509   0.00000  Uiso   1.00
O489   O     0.27267   0.83333   0.31492   0.00000  Uiso   1.00
O490   O     0.06067   0.83333   0.18508   0.00000  Uiso   1.00
O491   O     0.11425   0.80098   0.10215   0.00000  Uiso   1.00
H492   H     0.08982   0.78225   0.12158   0.00000  Uiso   1.00
O493   O     0.20518   0.83249   0.39046   0.00000  Uiso   1.00
H494   H     0.21012   0.80467   0.37669   0.00000  Uiso   1.00
O495   O     0.30500   0.88572   0.12205   0.00000  Uiso   1.00
H496   H     0.29932   0.91415   0.11279   0.00000  Uiso   1.00
O497   O     0.03816   0.81115   0.39139   0.00000  Uiso   1.00
H498   H     0.03518   0.78827   0.37098   0.00000  Uiso   1.00
O499   O     0.00958   0.81979   0.48532   0.00000  Uiso   1.00
H500   H     0.04263   0.81501   0.46542   0.00000  Uiso   1.00
O501   O     0.00847   0.91003   0.02859   0.00000  Uiso   1.00
H502   H     0.30688   0.90446   0.04249   0.00000  Uiso   1.00
F503   F     0.18654   0.84636   0.09818   0.00000  Uiso   1.00
F504   F     0.17054   0.90130   0.41894   0.00000  Uiso   1.00
O505   O     0.26736   0.71155   0.31744   0.00000  Uiso   1.00
H506   H     0.24486   0.69317   0.33939   0.00000  Uiso   1.00
O507   O     0.06562   0.95500   0.18346   0.00000  Uiso   1.00
H508   H     0.08809   0.97338   0.16149   0.00000  Uiso   1.00
O509   O     0.26715   0.95850   0.32176   0.00000  Uiso   1.00
H510   H     0.27851   0.93022   0.32521   0.00000  Uiso   1.00
O511   O     0.06560   0.70791   0.17923   0.00000  Uiso   1.00
H512   H     0.05287   0.73549   0.17512   0.00000  Uiso   1.00
O513   O     0.20100   0.77692   0.30092   0.00000  Uiso   1.00
H514   H     0.17405   0.75873   0.31759   0.00000  Uiso   1.00
O515   O     0.13277   0.88827   0.19717   0.00000  Uiso   1.00
H516   H     0.15992   0.90590   0.17979   0.00000  Uiso   1.00
F517   F     0.10262   0.77737   0.30054   0.00000  Uiso   1.00
F518   F     0.23069   0.88918   0.19930   0.00000  Uiso   1.00
C519   C     0.66649   0.75414   0.24998   0.00000  Uiso   1.00
C520   C     0.66665   0.91247   0.25061   0.00000  Uiso   1.00
C521   C     0.53179   0.84398   0.05238   0.00000  Uiso   1.00
C522   C     0.48547   0.88369   0.46029   0.00000  Uiso   1.00
C523   C     0.58042   0.83805   0.02970   0.00000  Uiso   1.00
C524   C     0.43817   0.89371   0.48395   0.00000  Uiso   1.00
C525   C     0.63230   0.68850   0.28437   0.00000  Uiso   1.00
C526   C     0.36737   0.97801   0.21662   0.00000  Uiso   1.00
C527   C     0.63280   0.97853   0.28596   0.00000  Uiso   1.00
C528   C     0.36681   0.68791   0.21505   0.00000  Uiso   1.00
C529   C     0.33351   0.95708   0.25154   0.00000  Uiso   1.00
C530   C     0.66616   0.70943   0.24940   0.00000  Uiso   1.00
C531   C     0.51724   0.80523   0.27557   0.00000  Uiso   1.00
C532   C     0.48288   0.86102   0.22387   0.00000  Uiso   1.00
C533   C     0.46737   0.80546   0.27550   0.00000  Uiso   1.00
C534   C     0.53263   0.86111   0.22437   0.00000  Uiso   1.00
C535   C     0.63916   0.83174   0.33663   0.00000  Uiso   1.00
C536   C     0.36080   0.83535   0.16370   0.00000  Uiso   1.00
C537   C     0.62413   0.83082   0.38716   0.00000  Uiso   1.00
C538   C     0.37670   0.84524   0.11474   0.00000  Uiso   1.00
C539   C     0.64427   0.82768   0.45976   0.00000  Uiso   1.00
C540   C     0.36899   0.88717   0.05073   0.00000  Uiso   1.00
C541   C     0.65838   0.82407   0.41218   0.00000  Uiso   1.00
C542   C     0.34946   0.87257   0.09568   0.00000  Uiso   1.00
C543   C     0.57520   0.83857   0.41089   0.00000  Uiso   1.00
C544   C     0.42410   0.83428   0.08968   0.00000  Uiso   1.00
C545   C     0.56234   0.84702   0.45756   0.00000  Uiso   1.00
C546   C     0.44694   0.85572   0.04946   0.00000  Uiso   1.00
C547   C     0.59604   0.83797   0.48231   0.00000  Uiso   1.00
C548   C     0.41786   0.87904   0.02807   0.00000  Uiso   1.00
C549   C     0.51487   0.86019   0.48114   0.00000  Uiso   1.00
C550   C     0.49748   0.85209   0.02806   0.00000  Uiso   1.00
Cu551  Cu    0.38022   0.83334   0.25000   0.00000  Uiso   1.00
Cu552  Cu    0.61978   0.83333   0.25000   0.00000  Uiso   1.00
H553   H     0.60552   0.83223   0.04968   0.00000  Uiso   1.00
H554   H     0.41728   0.91254   0.46705   0.00000  Uiso   1.00
N555   N     0.45069   0.83334   0.24999   0.00000  Uiso   1.00
N556   N     0.54931   0.83332   0.25001   0.00000  Uiso   1.00
O557   O     0.37291   0.77322   0.25000   0.00000  Uiso   1.00
O558   O     0.62709   0.89345   0.25000   0.00000  Uiso   1.00
O559   O     0.62706   0.77321   0.25001   0.00000  Uiso   1.00
O560   O     0.37294   0.89346   0.25000   0.00000  Uiso   1.00
O561   O     0.35186   0.83334   0.31492   0.00000  Uiso   1.00
O562   O     0.64814   0.83332   0.18509   0.00000  Uiso   1.00
O563   O     0.60600   0.83333   0.31492   0.00000  Uiso   1.00
O564   O     0.39400   0.83333   0.18508   0.00000  Uiso   1.00
O565   O     0.44759   0.80098   0.10215   0.00000  Uiso   1.00
H566   H     0.42316   0.78225   0.12158   0.00000  Uiso   1.00
O567   O     0.53851   0.83249   0.39046   0.00000  Uiso   1.00
H568   H     0.54346   0.80467   0.37669   0.00000  Uiso   1.00
O569   O     0.63833   0.88572   0.12205   0.00000  Uiso   1.00
H570   H     0.63265   0.91415   0.11279   0.00000  Uiso   1.00
O571   O     0.37150   0.81115   0.39139   0.00000  Uiso   1.00
H572   H     0.36852   0.78827   0.37098   0.00000  Uiso   1.00
O573   O     0.34291   0.81979   0.48532   0.00000  Uiso   1.00
H574   H     0.37596   0.81501   0.46542   0.00000  Uiso   1.00
O575   O     0.34180   0.91003   0.02859   0.00000  Uiso   1.00
H576   H     0.64021   0.90446   0.04249   0.00000  Uiso   1.00
F577   F     0.51987   0.84636   0.09818   0.00000  Uiso   1.00
F578   F     0.50388   0.90130   0.41894   0.00000  Uiso   1.00
O579   O     0.60069   0.71155   0.31744   0.00000  Uiso   1.00
H580   H     0.57820   0.69317   0.33939   0.00000  Uiso   1.00
O581   O     0.39895   0.95500   0.18346   0.00000  Uiso   1.00
H582   H     0.42142   0.97338   0.16149   0.00000  Uiso   1.00
O583   O     0.60048   0.95850   0.32176   0.00000  Uiso   1.00
H584   H     0.61185   0.93022   0.32521   0.00000  Uiso   1.00
O585   O     0.39893   0.70791   0.17923   0.00000  Uiso   1.00
H586   H     0.38620   0.73549   0.17512   0.00000  Uiso   1.00
O587   O     0.53433   0.77692   0.30092   0.00000  Uiso   1.00
H588   H     0.50738   0.75873   0.31759   0.00000  Uiso   1.00
O589   O     0.46610   0.88827   0.19717   0.00000  Uiso   1.00
H590   H     0.49325   0.90590   0.17979   0.00000  Uiso   1.00
F591   F     0.43595   0.77737   0.30054   0.00000  Uiso   1.00
F592   F     0.56403   0.88918   0.19930   0.00000  Uiso   1.00
C593   C     0.99982   0.75414   0.24998   0.00000  Uiso   1.00
C594   C     0.99999   0.91247   0.25061   0.00000  Uiso   1.00
C595   C     0.86513   0.84398   0.05238   0.00000  Uiso   1.00
C596   C     0.81881   0.88369   0.46029   0.00000  Uiso   1.00
C597   C     0.91376   0.83805   0.02970   0.00000  Uiso   1.00
C598   C     0.77151   0.89371   0.48395   0.00000  Uiso   1.00
C599   C     0.96564   0.68850   0.28437   0.00000  Uiso   1.00
C600   C     0.70070   0.97801   0.21662   0.00000  Uiso   1.00
C601   C     0.96613   0.97853   0.28596   0.00000  Uiso   1.00
C602   C     0.70015   0.68791   0.21505   0.00000  Uiso   1.00
C603   C     0.66685   0.95708   0.25154   0.00000  Uiso   1.00
C604   C     0.99950   0.70943   0.24940   0.00000  Uiso   1.00
C605   C     0.85057   0.80523   0.27557   0.00000  Uiso   1.00
C606   C     0.81622   0.86102   0.22387   0.00000  Uiso   1.00
C607   C     0.80070   0.80546   0.27550   0.00000  Uiso   1.00
C608   C     0.86597   0.86111   0.22437   0.00000  Uiso   1.00
C609   C     0.97249   0.83174   0.33663   0.00000  Uiso   1.00
C610   C     0.69414   0.83535   0.16370   0.00000  Uiso   1.00
C611   C     0.95746   0.83082   0.38716   0.00000  Uiso   1.00
C612   C     0.71003   0.84524   0.11474   0.00000  Uiso   1.00
C613   C     0.97760   0.82768   0.45976   0.00000  Uiso   1.00
C614   C     0.70233   0.88717   0.05073   0.00000  Uiso   1.00
C615   C     0.99172   0.82407   0.41218   0.00000  Uiso   1.00
C616   C     0.68279   0.87257   0.09568   0.00000  Uiso   1.00
C617   C     0.90853   0.83857   0.41089   0.00000  Uiso   1.00
C618   C     0.75744   0.83428   0.08968   0.00000  Uiso   1.00
C619   C     0.89567   0.84702   0.45756   0.00000  Uiso   1.00
C620   C     0.78027   0.85572   0.04946   0.00000  Uiso   1.00
C621   C     0.92937   0.83797   0.48231   0.00000  Uiso   1.00
C622   C     0.75119   0.87904   0.02807   0.00000  Uiso   1.00
C623   C     0.84820   0.86019   0.48114   0.00000  Uiso   1.00
C624   C     0.83081   0.85209   0.02806   0.00000  Uiso   1.00
Cu625  Cu    0.71355   0.83334   0.25000   0.00000  Uiso   1.00
Cu626  Cu    0.95311   0.83333   0.25000   0.00000  Uiso   1.00
H627   H     0.93886   0.83223   0.04968   0.00000  Uiso   1.00
H628   H     0.75061   0.91254   0.46705   0.00000  Uiso   1.00
N629   N     0.78403   0.83334   0.24999   0.00000  Uiso   1.00
N630   N     0.88264   0.83332   0.25001   0.00000  Uiso   1.00
O631   O     0.70625   0.77322   0.25000   0.00000  Uiso   1.00
O632   O     0.96042   0.89345   0.25000   0.00000  Uiso   1.00
O633   O     0.96039   0.77321   0.25001   0.00000  Uiso   1.00
O634   O     0.70628   0.89346   0.25000   0.00000  Uiso   1.00
O635   O     0.68519   0.83334   0.31492   0.00000  Uiso   1.00
O636   O     0.98148   0.83332   0.18509   0.00000  Uiso   1.00
O637   O     0.93933   0.83333   0.31492   0.00000  Uiso   1.00
O638   O     0.72733   0.83333   0.18508   0.00000  Uiso   1.00
O639   O     0.78092   0.80098   0.10215   0.00000  Uiso   1.00
H640   H     0.75649   0.78225   0.12158   0.00000  Uiso   1.00
O641   O     0.87184   0.83249   0.39046   0.00000  Uiso   1.00
H642   H     0.87679   0.80467   0.37669   0.00000  Uiso   1.00
O643   O     0.97167   0.88572   0.12205   0.00000  Uiso   1.00
H644   H     0.96599   0.91415   0.11279   0.00000  Uiso   1.00
O645   O     0.70483   0.81115   0.39139   0.00000  Uiso   1.00
H646   H     0.70185   0.78827   0.37098   0.00000  Uiso   1.00
O647   O     0.67625   0.81979   0.48532   0.00000  Uiso   1.00
H648   H     0.70929   0.81501   0.46542   0.00000  Uiso   1.00
O649   O     0.67513   0.91003   0.02859   0.00000  Uiso   1.00
H650   H     0.97354   0.90446   0.04249   0.00000  Uiso   1.00
F651   F     0.85321   0.84636   0.09818   0.00000  Uiso   1.00
F652   F     0.83721   0.90130   0.41894   0.00000  Uiso   1.00
O653   O     0.93402   0.71155   0.31744   0.00000  Uiso   1.00
H654   H     0.91153   0.69317   0.33939   0.00000  Uiso   1.00
O655   O     0.73229   0.95500   0.18346   0.00000  Uiso   1.00
H656   H     0.75476   0.97338   0.16149   0.00000  Uiso   1.00
O657   O     0.93381   0.95850   0.32176   0.00000  Uiso   1.00
H658   H     0.94518   0.93022   0.32521   0.00000  Uiso   1.00
O659   O     0.73227   0.70791   0.17923   0.00000  Uiso   1.00
H660   H     0.71953   0.73549   0.17512   0.00000  Uiso   1.00
O661   O     0.86767   0.77692   0.30092   0.00000  Uiso   1.00
H662   H     0.84071   0.75873   0.31759   0.00000  Uiso   1.00
O663   O     0.79944   0.88827   0.19717   0.00000  Uiso   1.00
H664   H     0.82659   0.90590   0.17979   0.00000  Uiso   1.00
F665   F     0.76928   0.77737   0.30054   0.00000  Uiso   1.00
F666   F     0.89736   0.88918   0.19930   0.00000  Uiso   1.00
C667   C     0.33315   0.08748   0.74998   0.00000  Uiso   1.00
C668   C     0.33332   0.24580   0.75061   0.00000  Uiso   1.00
C669   C     0.19846   0.17731   0.55238   0.00000  Uiso   1.00
C670   C     0.15214   0.21702   0.96029   0.00000  Uiso   1.00
C671   C     0.24709   0.17138   0.52970   0.00000  Uiso   1.00
C672   C     0.10484   0.22705   0.98395   0.00000  Uiso   1.00
C673   C     0.29897   0.02183   0.78437   0.00000  Uiso   1.00
C674   C     0.03404   0.31135   0.71662   0.00000  Uiso   1.00
C675   C     0.29947   0.31186   0.78596   0.00000  Uiso   1.00
C676   C     0.03348   0.02124   0.71505   0.00000  Uiso   1.00
C677   C     0.00018   0.29041   0.75154   0.00000  Uiso   1.00
C678   C     0.33283   0.04277   0.74940   0.00000  Uiso   1.00
C679   C     0.18390   0.13856   0.77557   0.00000  Uiso   1.00
C680   C     0.14955   0.19435   0.72387   0.00000  Uiso   1.00
C681   C     0.13404   0.13879   0.77550   0.00000  Uiso   1.00
C682   C     0.19930   0.19445   0.72437   0.00000  Uiso   1.00
C683   C     0.30583   0.16507   0.83663   0.00000  Uiso   1.00
C684   C     0.02747   0.16868   0.66370   0.00000  Uiso   1.00
C685   C     0.29079   0.16415   0.88716   0.00000  Uiso   1.00
C686   C     0.04337   0.17857   0.61474   0.00000  Uiso   1.00
C687   C     0.31094   0.16102   0.95976   0.00000  Uiso   1.00
C688   C     0.03566   0.22050   0.55073   0.00000  Uiso   1.00
C689   C     0.32505   0.15740   0.91218   0.00000  Uiso   1.00
C690   C     0.01613   0.20591   0.59568   0.00000  Uiso   1.00
C691   C     0.24187   0.17190   0.91089   0.00000  Uiso   1.00
C692   C     0.09077   0.16761   0.58968   0.00000  Uiso   1.00
C693   C     0.22901   0.18036   0.95756   0.00000  Uiso   1.00
C694   C     0.11360   0.18905   0.54946   0.00000  Uiso   1.00
C695   C     0.26270   0.17130   0.98231   0.00000  Uiso   1.00
C696   C     0.08452   0.21237   0.52807   0.00000  Uiso   1.00
C697   C     0.18154   0.19353   0.98114   0.00000  Uiso   1.00
C698   C     0.16415   0.18542   0.52806   0.00000  Uiso   1.00
Cu699  Cu    0.04689   0.16667   0.75000   0.00000  Uiso   1.00
Cu700  Cu    0.28645   0.16666   0.75000   0.00000  Uiso   1.00
H701   H     0.27219   0.16556   0.54968   0.00000  Uiso   1.00
H702   H     0.08395   0.24587   0.96705   0.00000  Uiso   1.00
N703   N     0.11736   0.16668   0.74999   0.00000  Uiso   1.00
N704   N     0.21597   0.16666   0.75001   0.00000  Uiso   1.00
O705   O     0.03958   0.10655   0.75000   0.00000  Uiso   1.00
O706   O     0.29375   0.22678   0.75000   0.00000  Uiso   1.00
O707   O     0.29372   0.10654   0.75001   0.00000  Uiso   1.00
O708   O     0.03961   0.22679   0.75000   0.00000  Uiso   1.00
O709   O     0.01852   0.16668   0.81492   0.00000  Uiso   1.00
O710   O     0.31481   0.16666   0.68509   0.00000  Uiso   1.00
O711   O     0.27267   0.16667   0.81492   0.00000  Uiso   1.00
O712   O     0.06067   0.16667   0.68508   0.00000  Uiso   1.00
O713   O     0.11425   0.13431   0.60215   0.00000  Uiso   1.00
H714   H     0.08982   0.11559   0.62158   0.00000  Uiso   1.00
O715   O     0.20518   0.16583   0.89046   0.00000  Uiso   1.00
H716   H     0.21012   0.13800   0.87669   0.00000  Uiso   1.00
O717   O     0.30500   0.21905   0.62205   0.00000  Uiso   1.00
H718   H     0.29932   0.24749   0.61279   0.00000  Uiso   1.00
O719   O     0.03816   0.14449   0.89139   0.00000  Uiso   1.00
H720   H     0.03518   0.12161   0.87098   0.00000  Uiso   1.00
O721   O     0.00958   0.15312   0.98532   0.00000  Uiso   1.00
H722   H     0.04263   0.14835   0.96542   0.00000  Uiso   1.00
O723   O     0.00847   0.24337   0.52859   0.00000  Uiso   1.00
H724   H     0.30688   0.23780   0.54249   0.00000  Uiso   1.00
F725   F     0.18654   0.17970   0.59818   0.00000  Uiso   1.00
F726   F     0.17054   0.23464   0.91894   0.00000  Uiso   1.00
O727   O     0.26736   0.04488   0.81744   0.00000  Uiso   1.00
H728   H     0.24486   0.02651   0.83939   0.00000  Uiso   1.00
O729   O     0.06562   0.28833   0.68346   0.00000  Uiso   1.00
H730   H     0.08809   0.30671   0.66149   0.00000  Uiso   1.00
O731   O     0.26715   0.29183   0.82176   0.00000  Uiso   1.00
H732   H     0.27851   0.26355   0.82521   0.00000  Uiso   1.00
O733   O     0.06560   0.04125   0.67923   0.00000  Uiso   1.00
H734   H     0.05287   0.06882   0.67512   0.00000  Uiso   1.00
O735   O     0.20100   0.11026   0.80092   0.00000  Uiso   1.00
H736   H     0.17405   0.09207   0.81759   0.00000  Uiso   1.00
O737   O     0.13277   0.22160   0.69717   0.00000  Uiso   1.00
H738   H     0.15992   0.23924   0.67979   0.00000  Uiso   1.00
F739   F     0.10262   0.11070   0.80054   0.00000  Uiso   1.00
F740   F     0.23069   0.22251   0.69930   0.00000  Uiso   1.00
C741   C     0.66649   0.08748   0.74998   0.00000  Uiso   1.00
C742   C     0.66665   0.24580   0.75061   0.00000  Uiso   1.00
C743   C     0.53179   0.17731   0.55238   0.00000  Uiso   1.00
C744   C     0.48547   0.21702   0.96029   0.00000  Uiso   1.00
C745   C     0.58042   0.17138   0.52970   0.00000  Uiso   1.00
C746   C     0.43817   0.22705   0.98395   0.00000  Uiso   1.00
C747   C     0.63230   0.02183   0.78437   0.00000  Uiso   1.00
C748   C     0.36737   0.31135   0.71662   0.00000  Uiso   1.00
C749   C     0.63280   0.31186   0.78596   0.00000  Uiso   1.00
C750   C     0.36681   0.02124   0.71505   0.00000  Uiso   1.00
C751   C     0.33351   0.29041   0.75154   0.00000  Uiso   1.00
C752   C     0.66616   0.04277   0.74940   0.00000  Uiso   1.00
C753   C     0.51724   0.13856   0.77557   0.00000  Uiso   1.00
C754   C     0.48288   0.19435   0.72387   0.00000  Uiso   1.00
C755   C     0.46737   0.13879   0.77550   0.00000  Uiso   1.00
C756   C     0.53263   0.19445   0.72437   0.00000  Uiso   1.00
C757   C     0.63916   0.16507   0.83663   0.00000  Uiso   1.00
C758   C     0.36080   0.16868   0.66370   0.00000  Uiso   1.00
C759   C     0.62413   0.16415   0.88716   0.00000  Uiso   1.00
C760   C     0.37670   0.17857   0.61474   0.00000  Uiso   1.00
C761   C     0.64427   0.16102   0.95976   0.00000  Uiso   1.00
C762   C     0.36899   0.22050   0.55073   0.00000  Uiso   1.00
C763   C     0.65838   0.15740   0.91218   0.00000  Uiso   1.00
C764   C     0.34946   0.20591   0.59568   0.00000  Uiso   1.00
C765   C     0.57520   0.17190   0.91089   0.00000  Uiso   1.00
C766   C     0.42410   0.16761   0.58968   0.00000  Uiso   1.00
C767   C     0.56234   0.18036   0.95756   0.00000  Uiso   1.00
C768   C     0.44694   0.18905   0.54946   0.00000  Uiso   1.00
C769   C     0.59604   0.17130   0.98231   0.00000  Uiso   1.00
C770   C     0.41786   0.21237   0.52807   0.00000  Uiso   1.00
C771   C     0.51487   0.19353   0.98114   0.00000  Uiso   1.00
C772   C     0.49748   0.18542   0.52806   0.00000  Uiso   1.00
Cu773  Cu    0.38022   0.16667   0.75000   0.00000  Uiso   1.00
Cu774  Cu    0.61978   0.16666   0.75000   0.00000  Uiso   1.00
H775   H     0.60552   0.16556   0.54968   0.00000  Uiso   1.00
H776   H     0.41728   0.24587   0.96705   0.00000  Uiso   1.00
N777   N     0.45069   0.16668   0.74999   0.00000  Uiso   1.00
N778   N     0.54931   0.16666   0.75001   0.00000  Uiso   1.00
O779   O     0.37291   0.10655   0.75000   0.00000  Uiso   1.00
O780   O     0.62709   0.22678   0.75000   0.00000  Uiso   1.00
O781   O     0.62706   0.10654   0.75001   0.00000  Uiso   1.00
O782   O     0.37294   0.22679   0.75000   0.00000  Uiso   1.00
O783   O     0.35186   0.16668   0.81492   0.00000  Uiso   1.00
O784   O     0.64814   0.16666   0.68509   0.00000  Uiso   1.00
O785   O     0.60600   0.16667   0.81492   0.00000  Uiso   1.00
O786   O     0.39400   0.16667   0.68508   0.00000  Uiso   1.00
O787   O     0.44759   0.13431   0.60215   0.00000  Uiso   1.00
H788   H     0.42316   0.11559   0.62158   0.00000  Uiso   1.00
O789   O     0.53851   0.16583   0.89046   0.00000  Uiso   1.00
H790   H     0.54346   0.13800   0.87669   0.00000  Uiso   1.00
O791   O     0.63833   0.21905   0.62205   0.00000  Uiso   1.00
H792   H     0.63265   0.24749   0.61279   0.00000  Uiso   1.00
O793   O     0.37150   0.14449   0.89139   0.00000  Uiso   1.00
H794   H     0.36852   0.12161   0.87098   0.00000  Uiso   1.00
O795   O     0.34291   0.15312   0.98532   0.00000  Uiso   1.00
H796   H     0.37596   0.14835   0.96542   0.00000  Uiso   1.00
O797   O     0.34180   0.24337   0.52859   0.00000  Uiso   1.00
H798   H     0.64021   0.23780   0.54249   0.00000  Uiso   1.00
F799   F     0.51987   0.17970   0.59818   0.00000  Uiso   1.00
F800   F     0.50388   0.23464   0.91894   0.00000  Uiso   1.00
O801   O     0.60069   0.04488   0.81744   0.00000  Uiso   1.00
H802   H     0.57820   0.02651   0.83939   0.00000  Uiso   1.00
O803   O     0.39895   0.28833   0.68346   0.00000  Uiso   1.00
H804   H     0.42142   0.30671   0.66149   0.00000  Uiso   1.00
O805   O     0.60048   0.29183   0.82176   0.00000  Uiso   1.00
H806   H     0.61185   0.26355   0.82521   0.00000  Uiso   1.00
O807   O     0.39893   0.04125   0.67923   0.00000  Uiso   1.00
H808   H     0.38620   0.06882   0.67512   0.00000  Uiso   1.00
O809   O     0.53433   0.11026   0.80092   0.00000  Uiso   1.00
H810   H     0.50738   0.09207   0.81759   0.00000  Uiso   1.00
O811   O     0.46610   0.22160   0.69717   0.00000  Uiso   1.00
H812   H     0.49325   0.23924   0.67979   0.00000  Uiso   1.00
F813   F     0.43595   0.11070   0.80054   0.00000  Uiso   1.00
F814   F     0.56403   0.22251   0.69930   0.00000  Uiso   1.00
C815   C     0.99982   0.08748   0.74998   0.00000  Uiso   1.00
C816   C     0.99999   0.24580   0.75061   0.00000  Uiso   1.00
C817   C     0.86513   0.17731   0.55238   0.00000  Uiso   1.00
C818   C     0.81881   0.21702   0.96029   0.00000  Uiso   1.00
C819   C     0.91376   0.17138   0.52970   0.00000  Uiso   1.00
C820   C     0.77151   0.22705   0.98395   0.00000  Uiso   1.00
C821   C     0.96564   0.02183   0.78437   0.00000  Uiso   1.00
C822   C     0.70070   0.31135   0.71662   0.00000  Uiso   1.00
C823   C     0.96613   0.31186   0.78596   0.00000  Uiso   1.00
C824   C     0.70015   0.02124   0.71505   0.00000  Uiso   1.00
C825   C     0.66685   0.29041   0.75154   0.00000  Uiso   1.00
C826   C     0.99950   0.04277   0.74940   0.00000  Uiso   1.00
C827   C     0.85057   0.13856   0.77557   0.00000  Uiso   1.00
C828   C     0.81622   0.19435   0.72387   0.00000  Uiso   1.00
C829   C     0.80070   0.13879   0.77550   0.00000  Uiso   1.00
C830   C     0.86597   0.19445   0.72437   0.00000  Uiso   1.00
C831   C     0.97249   0.16507   0.83663   0.00000  Uiso   1.00
C832   C     0.69414   0.16868   0.66370   0.00000  Uiso   1.00
C833   C     0.95746   0.16415   0.88716   0.00000  Uiso   1.00
C834   C     0.71003   0.17857   0.61474   0.00000  Uiso   1.00
C835   C     0.97760   0.16102   0.95976   0.00000  Uiso   1.00
C836   C     0.70233   0.22050   0.55073   0.00000  Uiso   1.00
C837   C     0.99172   0.15740   0.91218   0.00000  Uiso   1.00
C838   C     0.68279   0.20591   0.59568   0.00000  Uiso   1.00
C839   C     0.90853   0.17190   0.91089   0.00000  Uiso   1.00
C840   C     0.75744   0.16761   0.58968   0.00000  Uiso   1.00
C841   C     0.89567   0.18036   0.95756   0.00000  Uiso   1.00
C842   C     0.78027   0.18905   0.54946   0.00000  Uiso   1.00
C843   C     0.92937   0.17130   0.98231   0.00000  Uiso   1.00
C844   C     0.75119   0.21237   0.52807   0.00000  Uiso   1.00
C845   C     0.84820   0.19353   0.98114   0.00000  Uiso   1.00
C846   C     0.83081   0.18542   0.52806   0.00000  Uiso   1.00
Cu847  Cu    0.71355   0.16667   0.75000   0.00000  Uiso   1.00
Cu848  Cu    0.95311   0.16666   0.75000   0.00000  Uiso   1.00
H849   H     0.93886   0.16556   0.54968   0.00000  Uiso   1.00
H850   H     0.75061   0.24587   0.96705   0.00000  Uiso   1.00
N851   N     0.78403   0.16668   0.74999   0.00000  Uiso   1.00
N852   N     0.88264   0.16666   0.75001   0.00000  Uiso   1.00
O853   O     0.70625   0.10655   0.75000   0.00000  Uiso   1.00
O854   O     0.96042   0.22678   0.75000   0.00000  Uiso   1.00
O855   O     0.96039   0.10654   0.75001   0.00000  Uiso   1.00
O856   O     0.70628   0.22679   0.75000   0.00000  Uiso   1.00
O857   O     0.68519   0.16668   0.81492   0.00000  Uiso   1.00
O858   O     0.98148   0.16666   0.68509   0.00000  Uiso   1.00
O859   O     0.93933   0.16667   0.81492   0.00000  Uiso   1.00
O860   O     0.72733   0.16667   0.68508   0.00000  Uiso   1.00
O861   O     0.78092   0.13431   0.60215   0.00000  Uiso   1.00
H862   H     0.75649   0.11559   0.62158   0.00000  Uiso   1.00
O863   O     0.87184   0.16583   0.89046   0.00000  Uiso   1.00
H864   H     0.87679   0.13800   0.87669   0.00000  Uiso   1.00
O865   O     0.97167   0.21905   0.62205   0.00000  Uiso   1.00
H866   H     0.96599   0.24749   0.61279   0.00000  Uiso   1.00
O867   O     0.70483   0.14449   0.89139   0.00000  Uiso   1.00
H868   H     0.70185   0.12161   0.87098   0.00000  Uiso   1.00
O869   O     0.67625   0.15312   0.98532   0.00000  Uiso   1.00
H870   H     0.70929   0.14835   0.96542   0.00000  Uiso   1.00
O871   O     0.67513   0.24337   0.52859   0.00000  Uiso   1.00
H872   H     0.97354   0.23780   0.54249   0.00000  Uiso   1.00
F873   F     0.85321   0.17970   0.59818   0.00000  Uiso   1.00
F874   F     0.83721   0.23464   0.91894   0.00000  Uiso   1.00
O875   O     0.93402   0.04488   0.81744   0.00000  Uiso   1.00
H876   H     0.91153   0.02651   0.83939   0.00000  Uiso   1.00
O877   O     0.73229   0.28833   0.68346   0.00000  Uiso   1.00
H878   H     0.75476   0.30671   0.66149   0.00000  Uiso   1.00
O879   O     0.93381   0.29183   0.82176   0.00000  Uiso   1.00
H880   H     0.94518   0.26355   0.82521   0.00000  Uiso   1.00
O881   O     0.73227   0.04125   0.67923   0.00000  Uiso   1.00
H882   H     0.71953   0.06882   0.67512   0.00000  Uiso   1.00
O883   O     0.86767   0.11026   0.80092   0.00000  Uiso   1.00
H884   H     0.84071   0.09207   0.81759   0.00000  Uiso   1.00
O885   O     0.79944   0.22160   0.69717   0.00000  Uiso   1.00
H886   H     0.82659   0.23924   0.67979   0.00000  Uiso   1.00
F887   F     0.76928   0.11070   0.80054   0.00000  Uiso   1.00
F888   F     0.89736   0.22251   0.69930   0.00000  Uiso   1.00
C889   C     0.33315   0.42081   0.74998   0.00000  Uiso   1.00
C890   C     0.33332   0.57914   0.75061   0.00000  Uiso   1.00
C891   C     0.19846   0.51064   0.55238   0.00000  Uiso   1.00
C892   C     0.15214   0.55035   0.96029   0.00000  Uiso   1.00
C893   C     0.24709   0.50472   0.52970   0.00000  Uiso   1.00
C894   C     0.10484   0.56038   0.98395   0.00000  Uiso   1.00
C895   C     0.29897   0.35516   0.78437   0.00000  Uiso   1.00
C896   C     0.03404   0.64468   0.71662   0.00000  Uiso   1.00
C897   C     0.29947   0.64520   0.78596   0.00000  Uiso   1.00
C898   C     0.03348   0.35457   0.71505   0.00000  Uiso   1.00
C899   C     0.00018   0.62375   0.75154   0.00000  Uiso   1.00
C900   C     0.33283   0.37610   0.74940   0.00000  Uiso   1.00
C901   C     0.18390   0.47189   0.77557   0.00000  Uiso   1.00
C902   C     0.14955   0.52769   0.72387   0.00000  Uiso   1.00
C903   C     0.13404   0.47213   0.77550   0.00000  Uiso   1.00
C904   C     0.19930   0.52778   0.72437   0.00000  Uiso   1.00
C905   C     0.30583   0.49841   0.83663   0.00000  Uiso   1.00
C906   C     0.02747   0.50201   0.66370   0.00000  Uiso   1.00
C907   C     0.29079   0.49749   0.88716   0.00000  Uiso   1.00
C908   C     0.04337   0.51191   0.61474   0.00000  Uiso   1.00
C909   C     0.31094   0.49435   0.95976   0.00000  Uiso   1.00
C910   C     0.03566   0.55383   0.55073   0.00000  Uiso   1.00
C911   C     0.32505   0.49073   0.91218   0.00000  Uiso   1.00
C912   C     0.01613   0.53924   0.59568   0.00000  Uiso   1.00
C913   C     0.24187   0.50524   0.91089   0.00000  Uiso   1.00
C914   C     0.09077   0.50095   0.58968   0.00000  Uiso   1.00
C915   C     0.22901   0.51369   0.95756   0.00000  Uiso   1.00
C916   C     0.11360   0.52238   0.54946   0.00000  Uiso   1.00
C917   C     0.26270   0.50464   0.98231   0.00000  Uiso   1.00
C918   C     0.08452   0.54571   0.52807   0.00000  Uiso   1.00
C919   C     0.18154   0.52686   0.98114   0.00000  Uiso   1.00
C920   C     0.16415   0.51876   0.52806   0.00000  Uiso   1.00
Cu921  Cu    0.04689   0.50001   0.75000   0.00000  Uiso   1.00
Cu922  Cu    0.28645   0.49999   0.75000   0.00000  Uiso   1.00
H923   H     0.27219   0.49889   0.54968   0.00000  Uiso   1.00
H924   H     0.08395   0.57921   0.96705   0.00000  Uiso   1.00
N925   N     0.11736   0.50001   0.74999   0.00000  Uiso   1.00
N926   N     0.21597   0.49999   0.75001   0.00000  Uiso   1.00
O927   O     0.03958   0.43989   0.75000   0.00000  Uiso   1.00
O928   O     0.29375   0.56011   0.75000   0.00000  Uiso   1.00
O929   O     0.29372   0.43988   0.75001   0.00000  Uiso   1.00
O930   O     0.03961   0.56012   0.75000   0.00000  Uiso   1.00
O931   O     0.01852   0.50001   0.81492   0.00000  Uiso   1.00
O932   O     0.31481   0.49999   0.68509   0.00000  Uiso   1.00
O933   O     0.27267   0.50000   0.81492   0.00000  Uiso   1.00
O934   O     0.06067   0.50000   0.68508   0.00000  Uiso   1.00
O935   O     0.11425   0.46764   0.60215   0.00000  Uiso   1.00
H936   H     0.08982   0.44892   0.62158   0.00000  Uiso   1.00
O937   O     0.20518   0.49916   0.89046   0.00000  Uiso   1.00
H938   H     0.21012   0.47133   0.87669   0.00000  Uiso   1.00
O939   O     0.30500   0.55239   0.62205   0.00000  Uiso   1.00
H940   H     0.29932   0.58082   0.61279   0.00000  Uiso   1.00
O941   O     0.03816   0.47782   0.89139   0.00000  Uiso   1.00
H942   H     0.03518   0.45494   0.87098   0.00000  Uiso   1.00
O943   O     0.00958   0.48646   0.98532   0.00000  Uiso   1.00
H944   H     0.04263   0.48168   0.96542   0.00000  Uiso   1.00
O945   O     0.00847   0.57670   0.52859   0.00000  Uiso   1.00
H946   H     0.30688   0.57113   0.54249   0.00000  Uiso   1.00
F947   F     0.18654   0.51303   0.59818   0.00000  Uiso   1.00
F948   F     0.17054   0.56797   0.91894   0.00000  Uiso   1.00
O949   O     0.26736   0.37822   0.81744   0.00000  Uiso   1.00
H950   H     0.24486   0.35984   0.83939   0.00000  Uiso   1.00
O951   O     0.06562   0.62167   0.68346   0.00000  Uiso   1.00
H952   H     0.08809   0.64004   0.66149   0.00000  Uiso   1.00
O953   O     0.26715   0.62517   0.82176   0.00000  Uiso   1.00
H954   H     0.27851   0.59688   0.82521   0.00000  Uiso   1.00
O955   O     0.06560   0.37458   0.67923   0.00000  Uiso   1.00
H956   H     0.05287   0.40215   0.67512   0.00000  Uiso   1.00
O957   O     0.20100   0.44359   0.80092   0.00000  Uiso   1.00
H958   H     0.17405   0.42540   0.81759   0.00000  Uiso   1.00
O959   O     0.13277   0.55493   0.69717   0.00000  Uiso   1.00
H960   H     0.15992   0.57257   0.67979   0.00000  Uiso   1.00
F961   F     0.10262   0.44403   0.80054   0.00000  Uiso   1.00
F962   F     0.23069   0.55585   0.69930   0.00000  Uiso   1.00
C963   C     0.66649   0.42081   0.74998   0.00000  Uiso   1.00
C964   C     0.66665   0.57914   0.75061   0.00000  Uiso   1.00
C965   C     0.53179   0.51064   0.55238   0.00000  Uiso   1.00
C966   C     0.48547   0.55035   0.96029   0.00000  Uiso   1.00
C967   C     0.58042   0.50472   0.52970   0.00000  Uiso   1.00
C968   C     0.43817   0.56038   0.98395   0.00000  Uiso   1.00
C969   C     0.63230   0.35516   0.78437   0.00000  Uiso   1.00
C970   C     0.36737   0.64468   0.71662   0.00000  Uiso   1.00
C971   C     0.63280   0.64520   0.78596   0.00000  Uiso   1.00
C972   C     0.36681   0.35457   0.71505   0.00000  Uiso   1.00
C973   C     0.33351   0.62375   0.75154   0.00000  Uiso   1.00
C974   C     0.66616   0.37610   0.74940   0.00000  Uiso   1.00
C975   C     0.51724   0.47189   0.77557   0.00000  Uiso   1.00
C976   C     0.48288   0.52769   0.72387   0.00000  Uiso   1.00
C977   C     0.46737   0.47213   0.77550   0.00000  Uiso   1.00
C978   C     0.53263   0.52778   0.72437   0.00000  Uiso   1.00
C979   C     0.63916   0.49841   0.83663   0.00000  Uiso   1.00
C980   C     0.36080   0.50201   0.66370   0.00000  Uiso   1.00
C981   C     0.62413   0.49749   0.88716   0.00000  Uiso   1.00
C982   C     0.37670   0.51191   0.61474   0.00000  Uiso   1.00
C983   C     0.64427   0.49435   0.95976   0.00000  Uiso   1.00
C984   C     0.36899   0.55383   0.55073   0.00000  Uiso   1.00
C985   C     0.65838   0.49073   0.91218   0.00000  Uiso   1.00
C986   C     0.34946   0.53924   0.59568   0.00000  Uiso   1.00
C987   C     0.57520   0.50524   0.91089   0.00000  Uiso   1.00
C988   C     0.42410   0.50095   0.58968   0.00000  Uiso   1.00
C989   C     0.56234   0.51369   0.95756   0.00000  Uiso   1.00
C990   C     0.44694   0.52238   0.54946   0.00000  Uiso   1.00
C991   C     0.59604   0.50464   0.98231   0.00000  Uiso   1.00
C992   C     0.41786   0.54571   0.52807   0.00000  Uiso   1.00
C993   C     0.51487   0.52686   0.98114   0.00000  Uiso   1.00
C994   C     0.49748   0.51876   0.52806   0.00000  Uiso   1.00
Cu995  Cu    0.38022   0.50001   0.75000   0.00000  Uiso   1.00
Cu996  Cu    0.61978   0.49999   0.75000   0.00000  Uiso   1.00
H997   H     0.60552   0.49889   0.54968   0.00000  Uiso   1.00
H998   H     0.41728   0.57921   0.96705   0.00000  Uiso   1.00
N999   N     0.45069   0.50001   0.74999   0.00000  Uiso   1.00
N1000  N     0.54931   0.49999   0.75001   0.00000  Uiso   1.00
O1001  O     0.37291   0.43989   0.75000   0.00000  Uiso   1.00
O1002  O     0.62709   0.56011   0.75000   0.00000  Uiso   1.00
O1003  O     0.62706   0.43988   0.75001   0.00000  Uiso   1.00
O1004  O     0.37294   0.56012   0.75000   0.00000  Uiso   1.00
O1005  O     0.35186   0.50001   0.81492   0.00000  Uiso   1.00
O1006  O     0.64814   0.49999   0.68509   0.00000  Uiso   1.00
O1007  O     0.60600   0.50000   0.81492   0.00000  Uiso   1.00
O1008  O     0.39400   0.50000   0.68508   0.00000  Uiso   1.00
O1009  O     0.44759   0.46764   0.60215   0.00000  Uiso   1.00
H1010  H     0.42316   0.44892   0.62158   0.00000  Uiso   1.00
O1011  O     0.53851   0.49916   0.89046   0.00000  Uiso   1.00
H1012  H     0.54346   0.47133   0.87669   0.00000  Uiso   1.00
O1013  O     0.63833   0.55239   0.62205   0.00000  Uiso   1.00
H1014  H     0.63265   0.58082   0.61279   0.00000  Uiso   1.00
O1015  O     0.37150   0.47782   0.89139   0.00000  Uiso   1.00
H1016  H     0.36852   0.45494   0.87098   0.00000  Uiso   1.00
O1017  O     0.34291   0.48646   0.98532   0.00000  Uiso   1.00
H1018  H     0.37596   0.48168   0.96542   0.00000  Uiso   1.00
O1019  O     0.34180   0.57670   0.52859   0.00000  Uiso   1.00
H1020  H     0.64021   0.57113   0.54249   0.00000  Uiso   1.00
F1021  F     0.51987   0.51303   0.59818   0.00000  Uiso   1.00
F1022  F     0.50388   0.56797   0.91894   0.00000  Uiso   1.00
O1023  O     0.60069   0.37822   0.81744   0.00000  Uiso   1.00
H1024  H     0.57820   0.35984   0.83939   0.00000  Uiso   1.00
O1025  O     0.39895   0.62167   0.68346   0.00000  Uiso   1.00
H1026  H     0.42142   0.64004   0.66149   0.00000  Uiso   1.00
O1027  O     0.60048   0.62517   0.82176   0.00000  Uiso   1.00
H1028  H     0.61185   0.59688   0.82521   0.00000  Uiso   1.00
O1029  O     0.39893   0.37458   0.67923   0.00000  Uiso   1.00
H1030  H     0.38620   0.40215   0.67512   0.00000  Uiso   1.00
O1031  O     0.53433   0.44359   0.80092   0.00000  Uiso   1.00
H1032  H     0.50738   0.42540   0.81759   0.00000  Uiso   1.00
O1033  O     0.46610   0.55493   0.69717   0.00000  Uiso   1.00
H1034  H     0.49325   0.57257   0.67979   0.00000  Uiso   1.00
F1035  F     0.43595   0.44403   0.80054   0.00000  Uiso   1.00
F1036  F     0.56403   0.55585   0.69930   0.00000  Uiso   1.00
C1037  C     0.99982   0.42081   0.74998   0.00000  Uiso   1.00
C1038  C     0.99999   0.57914   0.75061   0.00000  Uiso   1.00
C1039  C     0.86513   0.51064   0.55238   0.00000  Uiso   1.00
C1040  C     0.81881   0.55035   0.96029   0.00000  Uiso   1.00
C1041  C     0.91376   0.50472   0.52970   0.00000  Uiso   1.00
C1042  C     0.77151   0.56038   0.98395   0.00000  Uiso   1.00
C1043  C     0.96564   0.35516   0.78437   0.00000  Uiso   1.00
C1044  C     0.70070   0.64468   0.71662   0.00000  Uiso   1.00
C1045  C     0.96613   0.64520   0.78596   0.00000  Uiso   1.00
C1046  C     0.70015   0.35457   0.71505   0.00000  Uiso   1.00
C1047  C     0.66685   0.62375   0.75154   0.00000  Uiso   1.00
C1048  C     0.99950   0.37610   0.74940   0.00000  Uiso   1.00
C1049  C     0.85057   0.47189   0.77557   0.00000  Uiso   1.00
C1050  C     0.81622   0.52769   0.72387   0.00000  Uiso   1.00
C1051  C     0.80070   0.47213   0.77550   0.00000  Uiso   1.00
C1052  C     0.86597   0.52778   0.72437   0.00000  Uiso   1.00
C1053  C     0.97249   0.49841   0.83663   0.00000  Uiso   1.00
C1054  C     0.69414   0.50201   0.66370   0.00000  Uiso   1.00
C1055  C     0.95746   0.49749   0.88716   0.00000  Uiso   1.00
C1056  C     0.71003   0.51191   0.61474   0.00000  Uiso   1.00
C1057  C     0.97760   0.49435   0.95976   0.00000  Uiso   1.00
C1058  C     0.70233   0.55383   0.55073   0.00000  Uiso   1.00
C1059  C     0.99172   0.49073   0.91218   0.00000  Uiso   1.00
C1060  C     0.68279   0.53924   0.59568   0.00000  Uiso   1.00
C1061  C     0.90853   0.50524   0.91089   0.00000  Uiso   1.00
C1062  C     0.75744   0.50095   0.58968   0.00000  Uiso   1.00
C1063  C     0.89567   0.51369   0.95756   0.00000  Uiso   1.00
C1064  C     0.78027   0.52238   0.54946   0.00000  Uiso   1.00
C1065  C     0.92937   0.50464   0.98231   0.00000  Uiso   1.00
C1066  C     0.75119   0.54571   0.52807   0.00000  Uiso   1.00
C1067  C     0.84820   0.52686   0.98114   0.00000  Uiso   1.00
C1068  C     0.83081   0.51876   0.52806   0.00000  Uiso   1.00
Cu1069 Cu    0.71355   0.50001   0.75000   0.00000  Uiso   1.00
Cu1070 Cu    0.95311   0.49999   0.75000   0.00000  Uiso   1.00
H1071  H     0.93886   0.49889   0.54968   0.00000  Uiso   1.00
H1072  H     0.75061   0.57921   0.96705   0.00000  Uiso   1.00
N1073  N     0.78403   0.50001   0.74999   0.00000  Uiso   1.00
N1074  N     0.88264   0.49999   0.75001   0.00000  Uiso   1.00
O1075  O     0.70625   0.43989   0.75000   0.00000  Uiso   1.00
O1076  O     0.96042   0.56011   0.75000   0.00000  Uiso   1.00
O1077  O     0.96039   0.43988   0.75001   0.00000  Uiso   1.00
O1078  O     0.70628   0.56012   0.75000   0.00000  Uiso   1.00
O1079  O     0.68519   0.50001   0.81492   0.00000  Uiso   1.00
O1080  O     0.98148   0.49999   0.68509   0.00000  Uiso   1.00
O1081  O     0.93933   0.50000   0.81492   0.00000  Uiso   1.00
O1082  O     0.72733   0.50000   0.68508   0.00000  Uiso   1.00
O1083  O     0.78092   0.46764   0.60215   0.00000  Uiso   1.00
H1084  H     0.75649   0.44892   0.62158   0.00000  Uiso   1.00
O1085  O     0.87184   0.49916   0.89046   0.00000  Uiso   1.00
H1086  H     0.87679   0.47133   0.87669   0.00000  Uiso   1.00
O1087  O     0.97167   0.55239   0.62205   0.00000  Uiso   1.00
H1088  H     0.96599   0.58082   0.61279   0.00000  Uiso   1.00
O1089  O     0.70483   0.47782   0.89139   0.00000  Uiso   1.00
H1090  H     0.70185   0.45494   0.87098   0.00000  Uiso   1.00
O1091  O     0.67625   0.48646   0.98532   0.00000  Uiso   1.00
H1092  H     0.70929   0.48168   0.96542   0.00000  Uiso   1.00
O1093  O     0.67513   0.57670   0.52859   0.00000  Uiso   1.00
H1094  H     0.97354   0.57113   0.54249   0.00000  Uiso   1.00
F1095  F     0.85321   0.51303   0.59818   0.00000  Uiso   1.00
F1096  F     0.83721   0.56797   0.91894   0.00000  Uiso   1.00
O1097  O     0.93402   0.37822   0.81744   0.00000  Uiso   1.00
H1098  H     0.91153   0.35984   0.83939   0.00000  Uiso   1.00
O1099  O     0.73229   0.62167   0.68346   0.00000  Uiso   1.00
H1100  H     0.75476   0.64004   0.66149   0.00000  Uiso   1.00
O1101  O     0.93381   0.62517   0.82176   0.00000  Uiso   1.00
H1102  H     0.94518   0.59688   0.82521   0.00000  Uiso   1.00
O1103  O     0.73227   0.37458   0.67923   0.00000  Uiso   1.00
H1104  H     0.71953   0.40215   0.67512   0.00000  Uiso   1.00
O1105  O     0.86767   0.44359   0.80092   0.00000  Uiso   1.00
H1106  H     0.84071   0.42540   0.81759   0.00000  Uiso   1.00
O1107  O     0.79944   0.55493   0.69717   0.00000  Uiso   1.00
H1108  H     0.82659   0.57257   0.67979   0.00000  Uiso   1.00
F1109  F     0.76928   0.44403   0.80054   0.00000  Uiso   1.00
F1110  F     0.89736   0.55585   0.69930   0.00000  Uiso   1.00
C1111  C     0.33315   0.75414   0.74998   0.00000  Uiso   1.00
C1112  C     0.33332   0.91247   0.75061   0.00000  Uiso   1.00
C1113  C     0.19846   0.84398   0.55238   0.00000  Uiso   1.00
C1114  C     0.15214   0.88369   0.96029   0.00000  Uiso   1.00
C1115  C     0.24709   0.83805   0.52970   0.00000  Uiso   1.00
C1116  C     0.10484   0.89371   0.98395   0.00000  Uiso   1.00
C1117  C     0.29897   0.68850   0.78437   0.00000  Uiso   1.00
C1118  C     0.03404   0.97801   0.71662   0.00000  Uiso   1.00
C1119  C     0.29947   0.97853   0.78596   0.00000  Uiso   1.00
C1120  C     0.03348   0.68791   0.71505   0.00000  Uiso   1.00
C1121  C     0.00018   0.95708   0.75154   0.00000  Uiso   1.00
C1122  C     0.33283   0.70943   0.74940   0.00000  Uiso   1.00
C1123  C     0.18390   0.80523   0.77557   0.00000  Uiso   1.00
C1124  C     0.14955   0.86102   0.72387   0.00000  Uiso   1.00
C1125  C     0.13404   0.80546   0.77550   0.00000  Uiso   1.00
C1126  C     0.19930   0.86111   0.72437   0.00000  Uiso   1.00
C1127  C     0.30583   0.83174   0.83663   0.00000  Uiso   1.00
C1128  C     0.02747   0.83535   0.66370   0.00000  Uiso   1.00
C1129  C     0.29079   0.83082   0.88716   0.00000  Uiso   1.00
C1130  C     0.04337   0.84524   0.61474   0.00000  Uiso   1.00
C1131  C     0.31094   0.82768   0.95976   0.00000  Uiso   1.00
C1132  C     0.03566   0.88717   0.55073   0.00000  Uiso   1.00
C1133  C     0.32505   0.82407   0.91218   0.00000  Uiso   1.00
C1134  C     0.01613   0.87257   0.59568   0.00000  Uiso   1.00
C1135  C     0.24187   0.83857   0.91089   0.00000  Uiso   1.00
C1136  C     0.09077   0.83428   0.58968   0.00000  Uiso   1.00
C1137  C     0.22901   0.84702   0.95756   0.00000  Uiso   1.00
C1138  C     0.11360   0.85572   0.54946   0.00000  Uiso   1.00
C1139  C     0.26270   0.83797   0.98231   0.00000  Uiso   1.00
C1140  C     0.08452   0.87904   0.52807   0.00000  Uiso   1.00
C1141  C     0.18154   0.86019   0.98114   0.00000  Uiso   1.00
C1142  C     0.16415   0.85209   0.52806   0.00000  Uiso   1.00
Cu1143 Cu    0.04689   0.83334   0.75000   0.00000  Uiso   1.00
Cu1144 Cu    0.28645   0.83333   0.75000   0.00000  Uiso   1.00
H1145  H     0.27219   0.83223   0.54968   0.00000  Uiso   1.00
H1146  H     0.08395   0.91254   0.96705   0.00000  Uiso   1.00
N1147  N     0.11736   0.83334   0.74999   0.00000  Uiso   1.00
N1148  N     0.21597   0.83332   0.75001   0.00000  Uiso   1.00
O1149  O     0.03958   0.77322   0.75000   0.00000  Uiso   1.00
O1150  O     0.29375   0.89345   0.75000   0.00000  Uiso   1.00
O1151  O     0.29372   0.77321   0.75001   0.00000  Uiso   1.00
O1152  O     0.03961   0.89346   0.75000   0.00000  Uiso   1.00
O1153  O     0.01852   0.83334   0.81492   0.00000  Uiso   1.00
O1154  O     0.31481   0.83332   0.68509   0.00000  Uiso   1.00
O1155  O     0.27267   0.83333   0.81492   0.00000  Uiso   1.00
O1156  O     0.06067   0.83333   0.68508   0.00000  Uiso   1.00
O1157  O     0.11425   0.80098   0.60215   0.00000  Uiso   1.00
H1158  H     0.08982   0.78225   0.62158   0.00000  Uiso   1.00
O1159  O     0.20518   0.83249   0.89046   0.00000  Uiso   1.00
H1160  H     0.21012   0.80467   0.87669   0.00000  Uiso   1.00
O1161  O     0.30500   0.88572   0.62205   0.00000  Uiso   1.00
H1162  H     0.29932   0.91415   0.61279   0.00000  Uiso   1.00
O1163  O     0.03816   0.81115   0.89139   0.00000  Uiso   1.00
H1164  H     0.03518   0.78827   0.87098   0.00000  Uiso   1.00
O1165  O     0.00958   0.81979   0.98532   0.00000  Uiso   1.00
H1166  H     0.04263   0.81501   0.96542   0.00000  Uiso   1.00
O1167  O     0.00847   0.91003   0.52859   0.00000  Uiso   1.00
H1168  H     0.30688   0.90446   0.54249   0.00000  Uiso   1.00
F1169  F     0.18654   0.84636   0.59818   0.00000  Uiso   1.00
F1170  F     0.17054   0.90130   0.91894   0.00000  Uiso   1.00
O1171  O     0.26736   0.71155   0.81744   0.00000  Uiso   1.00
H1172  H     0.24486   0.69317   0.83939   0.00000  Uiso   1.00
O1173  O     0.06562   0.95500   0.68346   0.00000  Uiso   1.00
H1174  H     0.08809   0.97338   0.66149   0.00000  Uiso   1.00
O1175  O     0.26715   0.95850   0.82176   0.00000  Uiso   1.00
H1176  H     0.27851   0.93022   0.82521   0.00000  Uiso   1.00
O1177  O     0.06560   0.70791   0.67923   0.00000  Uiso   1.00
H1178  H     0.05287   0.73549   0.67512   0.00000  Uiso   1.00
O1179  O     0.20100   0.77692   0.80092   0.00000  Uiso   1.00
H1180  H     0.17405   0.75873   0.81759   0.00000  Uiso   1.00
O1181  O     0.13277   0.88827   0.69717   0.00000  Uiso   1.00
H1182  H     0.15992   0.90590   0.67979   0.00000  Uiso   1.00
F1183  F     0.10262   0.77737   0.80054   0.00000  Uiso   1.00
F1184  F     0.23069   0.88918   0.69930   0.00000  Uiso   1.00
C1185  C     0.66649   0.75414   0.74998   0.00000  Uiso   1.00
C1186  C     0.66665   0.91247   0.75061   0.00000  Uiso   1.00
C1187  C     0.53179   0.84398   0.55238   0.00000  Uiso   1.00
C1188  C     0.48547   0.88369   0.96029   0.00000  Uiso   1.00
C1189  C     0.58042   0.83805   0.52970   0.00000  Uiso   1.00
C1190  C     0.43817   0.89371   0.98395   0.00000  Uiso   1.00
C1191  C     0.63230   0.68850   0.78437   0.00000  Uiso   1.00
C1192  C     0.36737   0.97801   0.71662   0.00000  Uiso   1.00
C1193  C     0.63280   0.97853   0.78596   0.00000  Uiso   1.00
C1194  C     0.36681   0.68791   0.71505   0.00000  Uiso   1.00
C1195  C     0.33351   0.95708   0.75154   0.00000  Uiso   1.00
C1196  C     0.66616   0.70943   0.74940   0.00000  Uiso   1.00
C1197  C     0.51724   0.80523   0.77557   0.00000  Uiso   1.00
C1198  C     0.48288   0.86102   0.72387   0.00000  Uiso   1.00
C1199  C     0.46737   0.80546   0.77550   0.00000  Uiso   1.00
C1200  C     0.53263   0.86111   0.72437   0.00000  Uiso   1.00
C1201  C     0.63916   0.83174   0.83663   0.00000  Uiso   1.00
C1202  C     0.36080   0.83535   0.66370   0.00000  Uiso   1.00
C1203  C     0.62413   0.83082   0.88716   0.00000  Uiso   1.00
C1204  C     0.37670   0.84524   0.61474   0.00000  Uiso   1.00
C1205  C     0.64427   0.82768   0.95976   0.00000  Uiso   1.00
C1206  C     0.36899   0.88717   0.55073   0.00000  Uiso   1.00
C1207  C     0.65838   0.82407   0.91218   0.00000  Uiso   1.00
C1208  C     0.34946   0.87257   0.59568   0.00000  Uiso   1.00
C1209  C     0.57520   0.83857   0.91089   0.00000  Uiso   1.00
C1210  C     0.42410   0.83428   0.58968   0.00000  Uiso   1.00
C1211  C     0.56234   0.84702   0.95756   0.00000  Uiso   1.00
C1212  C     0.44694   0.85572   0.54946   0.00000  Uiso   1.00
C1213  C     0.59604   0.83797   0.98231   0.00000  Uiso   1.00
C1214  C     0.41786   0.87904   0.52807   0.00000  Uiso   1.00
C1215  C     0.51487   0.86019   0.98114   0.00000  Uiso   1.00
C1216  C     0.49748   0.85209   0.52806   0.00000  Uiso   1.00
Cu1217 Cu    0.38022   0.83334   0.75000   0.00000  Uiso   1.00
Cu1218 Cu    0.61978   0.83333   0.75000   0.00000  Uiso   1.00
H1219  H     0.60552   0.83223   0.54968   0.00000  Uiso   1.00
H1220  H     0.41728   0.91254   0.96705   0.00000  Uiso   1.00
N1221  N     0.45069   0.83334   0.74999   0.00000  Uiso   1.00
N1222  N     0.54931   0.83332   0.75001   0.00000  Uiso   1.00
O1223  O     0.37291   0.77322   0.75000   0.00000  Uiso   1.00
O1224  O     0.62709   0.89345   0.75000   0.00000  Uiso   1.00
O1225  O     0.62706   0.77321   0.75001   0.00000  Uiso   1.00
O1226  O     0.37294   0.89346   0.75000   0.00000  Uiso   1.00
O1227  O     0.35186   0.83334   0.81492   0.00000  Uiso   1.00
O1228  O     0.64814   0.83332   0.68509   0.00000  Uiso   1.00
O1229  O     0.60600   0.83333   0.81492   0.00000  Uiso   1.00
O1230  O     0.39400   0.83333   0.68508   0.00000  Uiso   1.00
O1231  O     0.44759   0.80098   0.60215   0.00000  Uiso   1.00
H1232  H     0.42316   0.78225   0.62158   0.00000  Uiso   1.00
O1233  O     0.53851   0.83249   0.89046   0.00000  Uiso   1.00
H1234  H     0.54346   0.80467   0.87669   0.00000  Uiso   1.00
O1235  O     0.63833   0.88572   0.62205   0.00000  Uiso   1.00
H1236  H     0.63265   0.91415   0.61279   0.00000  Uiso   1.00
O1237  O     0.37150   0.81115   0.89139   0.00000  Uiso   1.00
H1238  H     0.36852   0.78827   0.87098   0.00000  Uiso   1.00
O1239  O     0.34291   0.81979   0.98532   0.00000  Uiso   1.00
H1240  H     0.37596   0.81501   0.96542   0.00000  Uiso   1.00
O1241  O     0.34180   0.91003   0.52859   0.00000  Uiso   1.00
H1242  H     0.64021   0.90446   0.54249   0.00000  Uiso   1.00
F1243  F     0.51987   0.84636   0.59818   0.00000  Uiso   1.00
F1244  F     0.50388   0.90130   0.91894   0.00000  Uiso   1.00
O1245  O     0.60069   0.71155   0.81744   0.00000  Uiso   1.00
H1246  H     0.57820   0.69317   0.83939   0.00000  Uiso   1.00
O1247  O     0.39895   0.95500   0.68346   0.00000  Uiso   1.00
H1248  H     0.42142   0.97338   0.66149   0.00000  Uiso   1.00
O1249  O     0.60048   0.95850   0.82176   0.00000  Uiso   1.00
H1250  H     0.61185   0.93022   0.82521   0.00000  Uiso   1.00
O1251  O     0.39893   0.70791   0.67923   0.00000  Uiso   1.00
H1252  H     0.38620   0.73549   0.67512   0.00000  Uiso   1.00
O1253  O     0.53433   0.77692   0.80092   0.00000  Uiso   1.00
H1254  H     0.50738   0.75873   0.81759   0.00000  Uiso   1.00
O1255  O     0.46610   0.88827   0.69717   0.00000  Uiso   1.00
H1256  H     0.49325   0.90590   0.67979   0.00000  Uiso   1.00
F1257  F     0.43595   0.77737   0.80054   0.00000  Uiso   1.00
F1258  F     0.56403   0.88918   0.69930   0.00000  Uiso   1.00
C1259  C     0.99982   0.75414   0.74998   0.00000  Uiso   1.00
C1260  C     0.99999   0.91247   0.75061   0.00000  Uiso   1.00
C1261  C     0.86513   0.84398   0.55238   0.00000  Uiso   1.00
C1262  C     0.81881   0.88369   0.96029   0.00000  Uiso   1.00
C1263  C     0.91376   0.83805   0.52970   0.00000  Uiso   1.00
C1264  C     0.77151   0.89371   0.98395   0.00000  Uiso   1.00
C1265  C     0.96564   0.68850   0.78437   0.00000  Uiso   1.00
C1266  C     0.70070   0.97801   0.71662   0.00000  Uiso   1.00
C1267  C     0.96613   0.97853   0.78596   0.00000  Uiso   1.00
C1268  C     0.70015   0.68791   0.71505   0.00000  Uiso   1.00
C1269  C     0.66685   0.95708   0.75154   0.00000  Uiso   1.00
C1270  C     0.99950   0.70943   0.74940   0.00000  Uiso   1.00
C1271  C     0.85057   0.80523   0.77557   0.00000  Uiso   1.00
C1272  C     0.81622   0.86102   0.72387   0.00000  Uiso   1.00
C1273  C     0.80070   0.80546   0.77550   0.00000  Uiso   1.00
C1274  C     0.86597   0.86111   0.72437   0.00000  Uiso   1.00
C1275  C     0.97249   0.83174   0.83663   0.00000  Uiso   1.00
C1276  C     0.69414   0.83535   0.66370   0.00000  Uiso   1.00
C1277  C     0.95746   0.83082   0.88716   0.00000  Uiso   1.00
C1278  C     0.71003   0.84524   0.61474   0.00000  Uiso   1.00
C1279  C     0.97760   0.82768   0.95976   0.00000  Uiso   1.00
C1280  C     0.70233   0.88717   0.55073   0.00000  Uiso   1.00
C1281  C     0.99172   0.82407   0.91218   0.00000  Uiso   1.00
C1282  C     0.68279   0.87257   0.59568   0.00000  Uiso   1.00
C1283  C     0.90853   0.83857   0.91089   0.00000  Uiso   1.00
C1284  C     0.75744   0.83428   0.58968   0.00000  Uiso   1.00
C1285  C     0.89567   0.84702   0.95756   0.00000  Uiso   1.00
C1286  C     0.78027   0.85572   0.54946   0.00000  Uiso   1.00
C1287  C     0.92937   0.83797   0.98231   0.00000  Uiso   1.00
C1288  C     0.75119   0.87904   0.52807   0.00000  Uiso   1.00
C1289  C     0.84820   0.86019   0.98114   0.00000  Uiso   1.00
C1290  C     0.83081   0.85209   0.52806   0.00000  Uiso   1.00
Cu1291 Cu    0.71355   0.83334   0.75000   0.00000  Uiso   1.00
Cu1292 Cu    0.95311   0.83333   0.75000   0.00000  Uiso   1.00
H1293  H     0.93886   0.83223   0.54968   0.00000  Uiso   1.00
H1294  H     0.75061   0.91254   0.96705   0.00000  Uiso   1.00
N1295  N     0.78403   0.83334   0.74999   0.00000  Uiso   1.00
N1296  N     0.88264   0.83332   0.75001   0.00000  Uiso   1.00
O1297  O     0.70625   0.77322   0.75000   0.00000  Uiso   1.00
O1298  O     0.96042   0.89345   0.75000   0.00000  Uiso   1.00
O1299  O     0.96039   0.77321   0.75001   0.00000  Uiso   1.00
O1300  O     0.70628   0.89346   0.75000   0.00000  Uiso   1.00
O1301  O     0.68519   0.83334   0.81492   0.00000  Uiso   1.00
O1302  O     0.98148   0.83332   0.68509   0.00000  Uiso   1.00
O1303  O     0.93933   0.83333   0.81492   0.00000  Uiso   1.00
O1304  O     0.72733   0.83333   0.68508   0.00000  Uiso   1.00
O1305  O     0.78092   0.80098   0.60215   0.00000  Uiso   1.00
H1306  H     0.75649   0.78225   0.62158   0.00000  Uiso   1.00
O1307  O     0.87184   0.83249   0.89046   0.00000  Uiso   1.00
H1308  H     0.87679   0.80467   0.87669   0.00000  Uiso   1.00
O1309  O     0.97167   0.88572   0.62205   0.00000  Uiso   1.00
H1310  H     0.96599   0.91415   0.61279   0.00000  Uiso   1.00
O1311  O     0.70483   0.81115   0.89139   0.00000  Uiso   1.00
H1312  H     0.70185   0.78827   0.87098   0.00000  Uiso   1.00
O1313  O     0.67625   0.81979   0.98532   0.00000  Uiso   1.00
H1314  H     0.70929   0.81501   0.96542   0.00000  Uiso   1.00
O1315  O     0.67513   0.91003   0.52859   0.00000  Uiso   1.00
H1316  H     0.97354   0.90446   0.54249   0.00000  Uiso   1.00
F1317  F     0.85321   0.84636   0.59818   0.00000  Uiso   1.00
F1318  F     0.83721   0.90130   0.91894   0.00000  Uiso   1.00
O1319  O     0.93402   0.71155   0.81744   0.00000  Uiso   1.00
H1320  H     0.91153   0.69317   0.83939   0.00000  Uiso   1.00
O1321  O     0.73229   0.95500   0.68346   0.00000  Uiso   1.00
H1322  H     0.75476   0.97338   0.66149   0.00000  Uiso   1.00
O1323  O     0.93381   0.95850   0.82176   0.00000  Uiso   1.00
H1324  H     0.94518   0.93022   0.82521   0.00000  Uiso   1.00
O1325  O     0.73227   0.70791   0.67923   0.00000  Uiso   1.00
H1326  H     0.71953   0.73549   0.67512   0.00000  Uiso   1.00
O1327  O     0.86767   0.77692   0.80092   0.00000  Uiso   1.00
H1328  H     0.84071   0.75873   0.81759   0.00000  Uiso   1.00
O1329  O     0.79944   0.88827   0.69717   0.00000  Uiso   1.00
H1330  H     0.82659   0.90590   0.67979   0.00000  Uiso   1.00
F1331  F     0.76928   0.77737   0.80054   0.00000  Uiso   1.00
F1332  F     0.89736   0.88918   0.69930   0.00000  Uiso   1.00
loop_
_geom_bond_atom_site_label_1
_geom_bond_atom_site_label_2
_geom_bond_distance
_geom_bond_site_symmetry_2
_ccdc_geom_bond_type
C1     C12     1.448   .     S
C1     O41     1.290   .     A
C1     O113    1.292   .     S
C2     O40     1.291   .     A
C2     C85     1.445   .     S
C2     O116    1.290   .     S
C3     C5      1.391   .     A
C3     C32     1.414   .     A
C3     F59     1.358   .     S
C4     C6      1.391   .     A
C4     F60     1.358   .     S
C4     C31     1.414   .     A
C5     H35     1.083   .     S
C5     C695    1.402   1_554 S
C6     H36     1.083   .     S
C6     C696    1.402   .     S
C7     O61     1.385   .     S
C7     C12     1.404   .     A
C7     C453    1.403   1_545 S
C8     C11     1.403   .     A
C8     O63     1.386   .     S
C8     C232    1.401   .     S
C9     O65     1.385   .     S
C9     C229    1.403   .     S
C9     C85     1.415   .     S
C10    O67     1.383   .     S
C10    C452    1.401   1_545 S
C10    C160    1.414   1_455 S
C11    C150    1.445   1_455 S
C11    C157    1.415   1_455 S
C12    C84     1.414   .     S
C13    O69     1.378   .     S
C13    N38     1.370   .     A
C13    C15     1.428   .     A
C14    O71     1.379   .     S
C14    C16     1.429   .     A
C14    N37     1.370   .     A
C15    N37     1.366   .     A
C15    F73     1.354   .     S
C16    F74     1.354   .     S
C16    N38     1.367   .     A
C17    O45     1.303   .     A
C17    C19     1.495   .     S
C17    O117    1.305   .     S
C18    C20     1.482   .     S
C18    O46     1.298   .     A
C18    O192    1.302   1_455 S
C19    C23     1.421   .     A
C19    C25     1.416   .     A
C20    C24     1.412   .     A
C20    C26     1.413   .     A
C21    C29     1.408   .     A
C21    C23     1.413   .     A
C21    O129    1.385   .     S
C22    O57     1.383   .     S
C22    C30     1.409   .     A
C22    C24     1.420   .     A
C23    O127    1.377   .     S
C24    O199    1.379   1_455 S
C25    C27     1.409   .     A
C25    O49     1.377   .     S
C26    O47     1.382   .     S
C26    C28     1.409   .     A
C27    C29     1.415   .     A
C27    C31     1.423   .     A
C28    C32     1.422   .     A
C28    C30     1.415   .     A
C29    C671    1.402   .     S
C30    C672    1.402   1_554 S
C31    C698    1.415   .     S
C32    C697    1.415   1_554 S
Cu33   O39     1.956   .     S
Cu33   O42     1.959   .     S
Cu33   O46     1.926   .     S
Cu33   O43     1.938   .     S
Cu33   N37     2.018   .     S
Cu33   Cu182   2.685   1_455 S
Cu34   O41     1.959   .     S
Cu34   O44     1.938   .     S
Cu34   O45     1.926   .     S
Cu34   N38     2.018   .     S
Cu34   O40     1.956   .     S
Cu34   Cu107   2.685   .     S
O39    C149    1.292   1_455 S
O42    C150    1.290   1_455 S
O43    C165    1.305   1_455 S
O44    C92     1.302   .     S
O47    H48     0.988   .     S
O49    H50     0.991   .     S
O51    H52     0.990   .     S
O51    C98     1.379   .     S
O53    H54     0.991   .     S
O53    C171    1.377   1_455 S
O55    H56     0.989   .     S
O55    C169    1.385   1_455 S
O57    H206    0.989   1_455 S
H58    O131    0.989   .     S
O61    H62     0.989   .     S
O63    H64     0.989   .     S
O65    H66     0.989   .     S
O67    H68     0.987   .     S
O69    H70     0.990   .     S
O71    H72     0.990   .     S
C75    C86     1.448   .     S
C75    O115    1.290   .     A
C75    O187    1.292   .     S
C76    O114    1.291   .     A
C76    C159    1.445   .     S
C76    O190    1.290   .     S
C77    C79     1.391   .     A
C77    C106    1.414   .     A
C77    F133    1.358   .     S
C78    C80     1.391   .     A
C78    F134    1.358   .     S
C78    C105    1.414   .     A
C79    H109    1.083   .     S
C79    C769    1.402   1_554 S
C80    H110    1.083   .     S
C80    C770    1.402   .     S
C81    O135    1.385   .     S
C81    C86     1.404   .     A
C81    C527    1.403   1_545 S
C82    C85     1.403   .     A
C82    O137    1.386   .     S
C82    C306    1.401   .     S
C83    O139    1.385   .     S
C83    C303    1.403   .     S
C83    C159    1.415   .     S
C84    O141    1.383   .     S
C84    C526    1.401   1_545 S
C86    C158    1.414   .     S
C87    O143    1.378   .     S
C87    N112    1.370   .     A
C87    C89     1.428   .     A
C88    O145    1.379   .     S
C88    C90     1.429   .     A
C88    N111    1.370   .     A
C89    N111    1.366   .     A
C89    F147    1.354   .     S
C90    F148    1.354   .     S
C90    N112    1.367   .     A
C91    O119    1.303   .     A
C91    C93     1.495   .     S
C91    O191    1.305   .     S
C92    C94     1.482   .     S
C92    O120    1.298   .     A
C93    C97     1.421   .     A
C93    C99     1.416   .     A
C94    C98     1.412   .     A
C94    C100    1.413   .     A
C95    C103    1.408   .     A
C95    C97     1.413   .     A
C95    O203    1.385   .     S
C96    O131    1.383   .     S
C96    C104    1.409   .     A
C96    C98     1.420   .     A
C97    O201    1.377   .     S
C99    C101    1.409   .     A
C99    O123    1.377   .     S
C100   O121    1.382   .     S
C100   C102    1.409   .     A
C101   C103    1.415   .     A
C101   C105    1.423   .     A
C102   C106    1.422   .     A
C102   C104    1.415   .     A
C103   C745    1.402   .     S
C104   C746    1.402   1_554 S
C105   C772    1.415   .     S
C106   C771    1.415   1_554 S
Cu107  O113    1.956   .     S
Cu107  O116    1.959   .     S
Cu107  O120    1.926   .     S
Cu107  O117    1.938   .     S
Cu107  N111    2.018   .     S
Cu108  O115    1.959   .     S
Cu108  O118    1.938   .     S
Cu108  O119    1.926   .     S
Cu108  N112    2.018   .     S
Cu108  O114    1.956   .     S
Cu108  Cu181   2.685   .     S
O118   C166    1.302   .     S
O121   H122    0.988   .     S
O123   H124    0.991   .     S
O125   H126    0.990   .     S
O125   C172    1.379   .     S
O127   H128    0.991   .     S
O129   H130    0.989   .     S
H132   O205    0.989   .     S
O135   H136    0.989   .     S
O137   H138    0.989   .     S
O139   H140    0.989   .     S
O141   H142    0.987   .     S
O143   H144    0.990   .     S
O145   H146    0.990   .     S
C149   C160    1.448   .     S
C149   O189    1.290   .     A
C149   O39     1.292   1_655 S
C150   O188    1.291   .     A
C150   C11     1.445   1_655 S
C150   O42     1.290   1_655 S
C151   C153    1.391   .     A
C151   C180    1.414   .     A
C151   F207    1.358   .     S
C152   C154    1.391   .     A
C152   F208    1.358   .     S
C152   C179    1.414   .     A
C153   H183    1.083   .     S
C153   C843    1.402   1_554 S
C154   H184    1.083   .     S
C154   C844    1.402   .     S
C155   O209    1.385   .     S
C155   C160    1.404   .     A
C155   C601    1.403   1_545 S
C156   C159    1.403   .     A
C156   O211    1.386   .     S
C156   C380    1.401   .     S
C157   O213    1.385   .     S
C157   C377    1.403   .     S
C157   C11     1.415   1_655 S
C158   O215    1.383   .     S
C158   C600    1.401   1_545 S
C160   C10     1.414   1_655 S
C161   O217    1.378   .     S
C161   N186    1.370   .     A
C161   C163    1.428   .     A
C162   O219    1.379   .     S
C162   C164    1.429   .     A
C162   N185    1.370   .     A
C163   N185    1.366   .     A
C163   F221    1.354   .     S
C164   F222    1.354   .     S
C164   N186    1.367   .     A
C165   O193    1.303   .     A
C165   C167    1.495   .     S
C165   O43     1.305   1_655 S
C166   C168    1.482   .     S
C166   O194    1.298   .     A
C167   C171    1.421   .     A
C167   C173    1.416   .     A
C168   C172    1.412   .     A
C168   C174    1.413   .     A
C169   C177    1.408   .     A
C169   C171    1.413   .     A
C169   O55     1.385   1_655 S
C170   O205    1.383   .     S
C170   C178    1.409   .     A
C170   C172    1.420   .     A
C171   O53     1.377   1_655 S
C173   C175    1.409   .     A
C173   O197    1.377   .     S
C174   O195    1.382   .     S
C174   C176    1.409   .     A
C175   C177    1.415   .     A
C175   C179    1.423   .     A
C176   C180    1.422   .     A
C176   C178    1.415   .     A
C177   C819    1.402   .     S
C178   C820    1.402   1_554 S
C179   C846    1.415   .     S
C180   C845    1.415   1_554 S
Cu181  O187    1.956   .     S
Cu181  O190    1.959   .     S
Cu181  O194    1.926   .     S
Cu181  O191    1.938   .     S
Cu181  N185    2.018   .     S
Cu182  O189    1.959   .     S
Cu182  O192    1.938   .     S
Cu182  O193    1.926   .     S
Cu182  N186    2.018   .     S
Cu182  O188    1.956   .     S
Cu182  Cu33    2.685   1_655 S
O192   C18     1.302   1_655 S
O195   H196    0.988   .     S
O197   H198    0.991   .     S
O199   H200    0.990   .     S
O199   C24     1.379   1_655 S
O201   H202    0.991   .     S
O203   H204    0.989   .     S
H206   O57     0.989   1_655 S
O209   H210    0.989   .     S
O211   H212    0.989   .     S
O213   H214    0.989   .     S
O215   H216    0.987   .     S
O217   H218    0.990   .     S
O219   H220    0.990   .     S
C223   C234    1.448   .     S
C223   O263    1.290   .     A
C223   O335    1.292   .     S
C224   O262    1.291   .     A
C224   C307    1.445   .     S
C224   O338    1.290   .     S
C225   C227    1.391   .     A
C225   C254    1.414   .     A
C225   F281    1.358   .     S
C226   C228    1.391   .     A
C226   F282    1.358   .     S
C226   C253    1.414   .     A
C227   H257    1.083   .     S
C227   C917    1.402   1_554 S
C228   H258    1.083   .     S
C228   C918    1.402   .     S
C229   O283    1.385   .     S
C229   C234    1.404   .     A
C230   C233    1.403   .     A
C230   O285    1.386   .     S
C230   C454    1.401   .     S
C231   O287    1.385   .     S
C231   C451    1.403   .     S
C231   C307    1.415   .     S
C232   O289    1.383   .     S
C232   C382    1.414   1_455 S
C233   C372    1.445   1_455 S
C233   C379    1.415   1_455 S
C234   C306    1.414   .     S
C235   O291    1.378   .     S
C235   N260    1.370   .     A
C235   C237    1.428   .     A
C236   O293    1.379   .     S
C236   C238    1.429   .     A
C236   N259    1.370   .     A
C237   N259    1.366   .     A
C237   F295    1.354   .     S
C238   F296    1.354   .     S
C238   N260    1.367   .     A
C239   O267    1.303   .     A
C239   C241    1.495   .     S
C239   O339    1.305   .     S
C240   C242    1.482   .     S
C240   O268    1.298   .     A
C240   O414    1.302   1_455 S
C241   C245    1.421   .     A
C241   C247    1.416   .     A
C242   C246    1.412   .     A
C242   C248    1.413   .     A
C243   C251    1.408   .     A
C243   C245    1.413   .     A
C243   O351    1.385   .     S
C244   O279    1.383   .     S
C244   C252    1.409   .     A
C244   C246    1.420   .     A
C245   O349    1.377   .     S
C246   O421    1.379   1_455 S
C247   C249    1.409   .     A
C247   O271    1.377   .     S
C248   O269    1.382   .     S
C248   C250    1.409   .     A
C249   C251    1.415   .     A
C249   C253    1.423   .     A
C250   C254    1.422   .     A
C250   C252    1.415   .     A
C251   C893    1.402   .     S
C252   C894    1.402   1_554 S
C253   C920    1.415   .     S
C254   C919    1.415   1_554 S
Cu255  O261    1.956   .     S
Cu255  O264    1.959   .     S
Cu255  O268    1.926   .     S
Cu255  O265    1.938   .     S
Cu255  N259    2.018   .     S
Cu255  Cu404   2.685   1_455 S
Cu256  O263    1.959   .     S
Cu256  O266    1.938   .     S
Cu256  O267    1.926   .     S
Cu256  N260    2.018   .     S
Cu256  O262    1.956   .     S
Cu256  Cu329   2.685   .     S
O261   C371    1.292   1_455 S
O264   C372    1.290   1_455 S
O265   C387    1.305   1_455 S
O266   C314    1.302   .     S
O269   H270    0.988   .     S
O271   H272    0.991   .     S
O273   H274    0.990   .     S
O273   C320    1.379   .     S
O275   H276    0.991   .     S
O275   C393    1.377   1_455 S
O277   H278    0.989   .     S
O277   C391    1.385   1_455 S
O279   H428    0.989   1_455 S
H280   O353    0.989   .     S
O283   H284    0.989   .     S
O285   H286    0.989   .     S
O287   H288    0.989   .     S
O289   H290    0.987   .     S
O291   H292    0.990   .     S
O293   H294    0.990   .     S
C297   C308    1.448   .     S
C297   O337    1.290   .     A
C297   O409    1.292   .     S
C298   O336    1.291   .     A
C298   C381    1.445   .     S
C298   O412    1.290   .     S
C299   C301    1.391   .     A
C299   C328    1.414   .     A
C299   F355    1.358   .     S
C300   C302    1.391   .     A
C300   F356    1.358   .     S
C300   C327    1.414   .     A
C301   H331    1.083   .     S
C301   C991    1.402   1_554 S
C302   H332    1.083   .     S
C302   C992    1.402   .     S
C303   O357    1.385   .     S
C303   C308    1.404   .     A
C304   C307    1.403   .     A
C304   O359    1.386   .     S
C304   C528    1.401   .     S
C305   O361    1.385   .     S
C305   C525    1.403   .     S
C305   C381    1.415   .     S
C306   O363    1.383   .     S
C308   C380    1.414   .     S
C309   O365    1.378   .     S
C309   N334    1.370   .     A
C309   C311    1.428   .     A
C310   O367    1.379   .     S
C310   C312    1.429   .     A
C310   N333    1.370   .     A
C311   N333    1.366   .     A
C311   F369    1.354   .     S
C312   F370    1.354   .     S
C312   N334    1.367   .     A
C313   O341    1.303   .     A
C313   C315    1.495   .     S
C313   O413    1.305   .     S
C314   C316    1.482   .     S
C314   O342    1.298   .     A
C315   C319    1.421   .     A
C315   C321    1.416   .     A
C316   C320    1.412   .     A
C316   C322    1.413   .     A
C317   C325    1.408   .     A
C317   C319    1.413   .     A
C317   O425    1.385   .     S
C318   O353    1.383   .     S
C318   C326    1.409   .     A
C318   C320    1.420   .     A
C319   O423    1.377   .     S
C321   C323    1.409   .     A
C321   O345    1.377   .     S
C322   O343    1.382   .     S
C322   C324    1.409   .     A
C323   C325    1.415   .     A
C323   C327    1.423   .     A
C324   C328    1.422   .     A
C324   C326    1.415   .     A
C325   C967    1.402   .     S
C326   C968    1.402   1_554 S
C327   C994    1.415   .     S
C328   C993    1.415   1_554 S
Cu329  O335    1.956   .     S
Cu329  O338    1.959   .     S
Cu329  O342    1.926   .     S
Cu329  O339    1.938   .     S
Cu329  N333    2.018   .     S
Cu330  O337    1.959   .     S
Cu330  O340    1.938   .     S
Cu330  O341    1.926   .     S
Cu330  N334    2.018   .     S
Cu330  O336    1.956   .     S
Cu330  Cu403   2.685   .     S
O340   C388    1.302   .     S
O343   H344    0.988   .     S
O345   H346    0.991   .     S
O347   H348    0.990   .     S
O347   C394    1.379   .     S
O349   H350    0.991   .     S
O351   H352    0.989   .     S
H354   O427    0.989   .     S
O357   H358    0.989   .     S
O359   H360    0.989   .     S
O361   H362    0.989   .     S
O363   H364    0.987   .     S
O365   H366    0.990   .     S
O367   H368    0.990   .     S
C371   C382    1.448   .     S
C371   O411    1.290   .     A
C371   O261    1.292   1_655 S
C372   O410    1.291   .     A
C372   C233    1.445   1_655 S
C372   O264    1.290   1_655 S
C373   C375    1.391   .     A
C373   C402    1.414   .     A
C373   F429    1.358   .     S
C374   C376    1.391   .     A
C374   F430    1.358   .     S
C374   C401    1.414   .     A
C375   H405    1.083   .     S
C375   C1065   1.402   1_554 S
C376   H406    1.083   .     S
C376   C1066   1.402   .     S
C377   O431    1.385   .     S
C377   C382    1.404   .     A
C378   C381    1.403   .     A
C378   O433    1.386   .     S
C378   C602    1.401   .     S
C379   O435    1.385   .     S
C379   C599    1.403   .     S
C379   C233    1.415   1_655 S
C380   O437    1.383   .     S
C382   C232    1.414   1_655 S
C383   O439    1.378   .     S
C383   N408    1.370   .     A
C383   C385    1.428   .     A
C384   O441    1.379   .     S
C384   C386    1.429   .     A
C384   N407    1.370   .     A
C385   N407    1.366   .     A
C385   F443    1.354   .     S
C386   F444    1.354   .     S
C386   N408    1.367   .     A
C387   O415    1.303   .     A
C387   C389    1.495   .     S
C387   O265    1.305   1_655 S
C388   C390    1.482   .     S
C388   O416    1.298   .     A
C389   C393    1.421   .     A
C389   C395    1.416   .     A
C390   C394    1.412   .     A
C390   C396    1.413   .     A
C391   C399    1.408   .     A
C391   C393    1.413   .     A
C391   O277    1.385   1_655 S
C392   O427    1.383   .     S
C392   C400    1.409   .     A
C392   C394    1.420   .     A
C393   O275    1.377   1_655 S
C395   C397    1.409   .     A
C395   O419    1.377   .     S
C396   O417    1.382   .     S
C396   C398    1.409   .     A
C397   C399    1.415   .     A
C397   C401    1.423   .     A
C398   C402    1.422   .     A
C398   C400    1.415   .     A
C399   C1041   1.402   .     S
C400   C1042   1.402   1_554 S
C401   C1068   1.415   .     S
C402   C1067   1.415   1_554 S
Cu403  O409    1.956   .     S
Cu403  O412    1.959   .     S
Cu403  O416    1.926   .     S
Cu403  O413    1.938   .     S
Cu403  N407    2.018   .     S
Cu404  O411    1.959   .     S
Cu404  O414    1.938   .     S
Cu404  O415    1.926   .     S
Cu404  N408    2.018   .     S
Cu404  O410    1.956   .     S
Cu404  Cu255   2.685   1_655 S
O414   C240    1.302   1_655 S
O417   H418    0.988   .     S
O419   H420    0.991   .     S
O421   H422    0.990   .     S
O421   C246    1.379   1_655 S
O423   H424    0.991   .     S
O425   H426    0.989   .     S
H428   O279    0.989   1_655 S
O431   H432    0.989   .     S
O433   H434    0.989   .     S
O435   H436    0.989   .     S
O437   H438    0.987   .     S
O439   H440    0.990   .     S
O441   H442    0.990   .     S
C445   C456    1.448   .     S
C445   O485    1.290   .     A
C445   O557    1.292   .     S
C446   O484    1.291   .     A
C446   C529    1.445   .     S
C446   O560    1.290   .     S
C447   C449    1.391   .     A
C447   C476    1.414   .     A
C447   F503    1.358   .     S
C448   C450    1.391   .     A
C448   F504    1.358   .     S
C448   C475    1.414   .     A
C449   H479    1.083   .     S
C449   C1139   1.402   1_554 S
C450   H480    1.083   .     S
C450   C1140   1.402   .     S
C451   O505    1.385   .     S
C451   C456    1.404   .     A
C452   C455    1.403   .     A
C452   O507    1.386   .     S
C452   C10     1.401   1_565 S
C453   O509    1.385   .     S
C453   C7      1.403   1_565 S
C453   C529    1.415   .     S
C454   O511    1.383   .     S
C454   C604    1.414   1_455 S
C455   C594    1.445   1_455 S
C455   C601    1.415   1_455 S
C456   C528    1.414   .     S
C457   O513    1.378   .     S
C457   N482    1.370   .     A
C457   C459    1.428   .     A
C458   O515    1.379   .     S
C458   C460    1.429   .     A
C458   N481    1.370   .     A
C459   N481    1.366   .     A
C459   F517    1.354   .     S
C460   F518    1.354   .     S
C460   N482    1.367   .     A
C461   O489    1.303   .     A
C461   C463    1.495   .     S
C461   O561    1.305   .     S
C462   C464    1.482   .     S
C462   O490    1.298   .     A
C462   O636    1.302   1_455 S
C463   C467    1.421   .     A
C463   C469    1.416   .     A
C464   C468    1.412   .     A
C464   C470    1.413   .     A
C465   C473    1.408   .     A
C465   C467    1.413   .     A
C465   O573    1.385   .     S
C466   O501    1.383   .     S
C466   C474    1.409   .     A
C466   C468    1.420   .     A
C467   O571    1.377   .     S
C468   O643    1.379   1_455 S
C469   C471    1.409   .     A
C469   O493    1.377   .     S
C470   O491    1.382   .     S
C470   C472    1.409   .     A
C471   C473    1.415   .     A
C471   C475    1.423   .     A
C472   C476    1.422   .     A
C472   C474    1.415   .     A
C473   C1115   1.402   .     S
C474   C1116   1.402   1_554 S
C475   C1142   1.415   .     S
C476   C1141   1.415   1_554 S
Cu477  O483    1.956   .     S
Cu477  O486    1.959   .     S
Cu477  O490    1.926   .     S
Cu477  O487    1.938   .     S
Cu477  N481    2.018   .     S
Cu477  Cu626   2.685   1_455 S
Cu478  O485    1.959   .     S
Cu478  O488    1.938   .     S
Cu478  O489    1.926   .     S
Cu478  N482    2.018   .     S
Cu478  O484    1.956   .     S
Cu478  Cu551   2.685   .     S
O483   C593    1.292   1_455 S
O486   C594    1.290   1_455 S
O487   C609    1.305   1_455 S
O488   C536    1.302   .     S
O491   H492    0.988   .     S
O493   H494    0.991   .     S
O495   H496    0.990   .     S
O495   C542    1.379   .     S
O497   H498    0.991   .     S
O497   C615    1.377   1_455 S
O499   H500    0.989   .     S
O499   C613    1.385   1_455 S
O501   H650    0.989   1_455 S
H502   O575    0.989   .     S
O505   H506    0.989   .     S
O507   H508    0.989   .     S
O509   H510    0.989   .     S
O511   H512    0.987   .     S
O513   H514    0.990   .     S
O515   H516    0.990   .     S
C519   C530    1.448   .     S
C519   O559    1.290   .     A
C519   O631    1.292   .     S
C520   O558    1.291   .     A
C520   C603    1.445   .     S
C520   O634    1.290   .     S
C521   C523    1.391   .     A
C521   C550    1.414   .     A
C521   F577    1.358   .     S
C522   C524    1.391   .     A
C522   F578    1.358   .     S
C522   C549    1.414   .     A
C523   H553    1.083   .     S
C523   C1213   1.402   1_554 S
C524   H554    1.083   .     S
C524   C1214   1.402   .     S
C525   O579    1.385   .     S
C525   C530    1.404   .     A
C526   C529    1.403   .     A
C526   O581    1.386   .     S
C526   C84     1.401   1_565 S
C527   O583    1.385   .     S
C527   C81     1.403   1_565 S
C527   C603    1.415   .     S
C528   O585    1.383   .     S
C530   C602    1.414   .     S
C531   O587    1.378   .     S
C531   N556    1.370   .     A
C531   C533    1.428   .     A
C532   O589    1.379   .     S
C532   C534    1.429   .     A
C532   N555    1.370   .     A
C533   N555    1.366   .     A
C533   F591    1.354   .     S
C534   F592    1.354   .     S
C534   N556    1.367   .     A
C535   O563    1.303   .     A
C535   C537    1.495   .     S
C535   O635    1.305   .     S
C536   C538    1.482   .     S
C536   O564    1.298   .     A
C537   C541    1.421   .     A
C537   C543    1.416   .     A
C538   C542    1.412   .     A
C538   C544    1.413   .     A
C539   C547    1.408   .     A
C539   C541    1.413   .     A
C539   O647    1.385   .     S
C540   O575    1.383   .     S
C540   C548    1.409   .     A
C540   C542    1.420   .     A
C541   O645    1.377   .     S
C543   C545    1.409   .     A
C543   O567    1.377   .     S
C544   O565    1.382   .     S
C544   C546    1.409   .     A
C545   C547    1.415   .     A
C545   C549    1.423   .     A
C546   C550    1.422   .     A
C546   C548    1.415   .     A
C547   C1189   1.402   .     S
C548   C1190   1.402   1_554 S
C549   C1216   1.415   .     S
C550   C1215   1.415   1_554 S
Cu551  O557    1.956   .     S
Cu551  O560    1.959   .     S
Cu551  O564    1.926   .     S
Cu551  O561    1.938   .     S
Cu551  N555    2.018   .     S
Cu552  O559    1.959   .     S
Cu552  O562    1.938   .     S
Cu552  O563    1.926   .     S
Cu552  N556    2.018   .     S
Cu552  O558    1.956   .     S
Cu552  Cu625   2.685   .     S
O562   C610    1.302   .     S
O565   H566    0.988   .     S
O567   H568    0.991   .     S
O569   H570    0.990   .     S
O569   C616    1.379   .     S
O571   H572    0.991   .     S
O573   H574    0.989   .     S
H576   O649    0.989   .     S
O579   H580    0.989   .     S
O581   H582    0.989   .     S
O583   H584    0.989   .     S
O585   H586    0.987   .     S
O587   H588    0.990   .     S
O589   H590    0.990   .     S
C593   C604    1.448   .     S
C593   O633    1.290   .     A
C593   O483    1.292   1_655 S
C594   O632    1.291   .     A
C594   C455    1.445   1_655 S
C594   O486    1.290   1_655 S
C595   C597    1.391   .     A
C595   C624    1.414   .     A
C595   F651    1.358   .     S
C596   C598    1.391   .     A
C596   F652    1.358   .     S
C596   C623    1.414   .     A
C597   H627    1.083   .     S
C597   C1287   1.402   1_554 S
C598   H628    1.083   .     S
C598   C1288   1.402   .     S
C599   O653    1.385   .     S
C599   C604    1.404   .     A
C600   C603    1.403   .     A
C600   O655    1.386   .     S
C600   C158    1.401   1_565 S
C601   O657    1.385   .     S
C601   C155    1.403   1_565 S
C601   C455    1.415   1_655 S
C602   O659    1.383   .     S
C604   C454    1.414   1_655 S
C605   O661    1.378   .     S
C605   N630    1.370   .     A
C605   C607    1.428   .     A
C606   O663    1.379   .     S
C606   C608    1.429   .     A
C606   N629    1.370   .     A
C607   N629    1.366   .     A
C607   F665    1.354   .     S
C608   F666    1.354   .     S
C608   N630    1.367   .     A
C609   O637    1.303   .     A
C609   C611    1.495   .     S
C609   O487    1.305   1_655 S
C610   C612    1.482   .     S
C610   O638    1.298   .     A
C611   C615    1.421   .     A
C611   C617    1.416   .     A
C612   C616    1.412   .     A
C612   C618    1.413   .     A
C613   C621    1.408   .     A
C613   C615    1.413   .     A
C613   O499    1.385   1_655 S
C614   O649    1.383   .     S
C614   C622    1.409   .     A
C614   C616    1.420   .     A
C615   O497    1.377   1_655 S
C617   C619    1.409   .     A
C617   O641    1.377   .     S
C618   O639    1.382   .     S
C618   C620    1.409   .     A
C619   C621    1.415   .     A
C619   C623    1.423   .     A
C620   C624    1.422   .     A
C620   C622    1.415   .     A
C621   C1263   1.402   .     S
C622   C1264   1.402   1_554 S
C623   C1290   1.415   .     S
C624   C1289   1.415   1_554 S
Cu625  O631    1.956   .     S
Cu625  O634    1.959   .     S
Cu625  O638    1.926   .     S
Cu625  O635    1.938   .     S
Cu625  N629    2.018   .     S
Cu626  O633    1.959   .     S
Cu626  O636    1.938   .     S
Cu626  O637    1.926   .     S
Cu626  N630    2.018   .     S
Cu626  O632    1.956   .     S
Cu626  Cu477   2.685   1_655 S
O636   C462    1.302   1_655 S
O639   H640    0.988   .     S
O641   H642    0.991   .     S
O643   H644    0.990   .     S
O643   C468    1.379   1_655 S
O645   H646    0.991   .     S
O647   H648    0.989   .     S
H650   O501    0.989   1_655 S
O653   H654    0.989   .     S
O655   H656    0.989   .     S
O657   H658    0.989   .     S
O659   H660    0.987   .     S
O661   H662    0.990   .     S
O663   H664    0.990   .     S
C667   C678    1.448   .     S
C667   O707    1.290   .     A
C667   O779    1.292   .     S
C668   O706    1.291   .     A
C668   C751    1.445   .     S
C668   O782    1.290   .     S
C669   C671    1.391   .     A
C669   C698    1.414   .     A
C669   F725    1.358   .     S
C670   C672    1.391   .     A
C670   F726    1.358   .     S
C670   C697    1.414   .     A
C671   H701    1.083   .     S
C672   H702    1.083   .     S
C672   C30     1.402   1_556 S
C673   O727    1.385   .     S
C673   C678    1.404   .     A
C673   C1119   1.403   1_545 S
C674   C677    1.403   .     A
C674   O729    1.386   .     S
C674   C898    1.401   .     S
C675   O731    1.385   .     S
C675   C895    1.403   .     S
C675   C751    1.415   .     S
C676   O733    1.383   .     S
C676   C1118   1.401   1_545 S
C676   C826    1.414   1_455 S
C677   C816    1.445   1_455 S
C677   C823    1.415   1_455 S
C678   C750    1.414   .     S
C679   O735    1.378   .     S
C679   N704    1.370   .     A
C679   C681    1.428   .     A
C680   O737    1.379   .     S
C680   C682    1.429   .     A
C680   N703    1.370   .     A
C681   N703    1.366   .     A
C681   F739    1.354   .     S
C682   F740    1.354   .     S
C682   N704    1.367   .     A
C683   O711    1.303   .     A
C683   C685    1.495   .     S
C683   O783    1.305   .     S
C684   C686    1.482   .     S
C684   O712    1.298   .     A
C684   O858    1.302   1_455 S
C685   C689    1.421   .     A
C685   C691    1.416   .     A
C686   C690    1.412   .     A
C686   C692    1.413   .     A
C687   C695    1.408   .     A
C687   C689    1.413   .     A
C687   O795    1.385   .     S
C688   O723    1.383   .     S
C688   C696    1.409   .     A
C688   C690    1.420   .     A
C689   O793    1.377   .     S
C690   O865    1.379   1_455 S
C691   C693    1.409   .     A
C691   O715    1.377   .     S
C692   O713    1.382   .     S
C692   C694    1.409   .     A
C693   C695    1.415   .     A
C693   C697    1.423   .     A
C694   C698    1.422   .     A
C694   C696    1.415   .     A
C695   C5      1.402   1_556 S
C697   C32     1.415   1_556 S
Cu699  O705    1.956   .     S
Cu699  O708    1.959   .     S
Cu699  O712    1.926   .     S
Cu699  O709    1.938   .     S
Cu699  N703    2.018   .     S
Cu699  Cu848   2.685   1_455 S
Cu700  O707    1.959   .     S
Cu700  O710    1.938   .     S
Cu700  O711    1.926   .     S
Cu700  N704    2.018   .     S
Cu700  O706    1.956   .     S
Cu700  Cu773   2.685   .     S
O705   C815    1.292   1_455 S
O708   C816    1.290   1_455 S
O709   C831    1.305   1_455 S
O710   C758    1.302   .     S
O713   H714    0.988   .     S
O715   H716    0.991   .     S
O717   H718    0.990   .     S
O717   C764    1.379   .     S
O719   H720    0.991   .     S
O719   C837    1.377   1_455 S
O721   H722    0.989   .     S
O721   C835    1.385   1_455 S
O723   H872    0.989   1_455 S
H724   O797    0.989   .     S
O727   H728    0.989   .     S
O729   H730    0.989   .     S
O731   H732    0.989   .     S
O733   H734    0.987   .     S
O735   H736    0.990   .     S
O737   H738    0.990   .     S
C741   C752    1.448   .     S
C741   O781    1.290   .     A
C741   O853    1.292   .     S
C742   O780    1.291   .     A
C742   C825    1.445   .     S
C742   O856    1.290   .     S
C743   C745    1.391   .     A
C743   C772    1.414   .     A
C743   F799    1.358   .     S
C744   C746    1.391   .     A
C744   F800    1.358   .     S
C744   C771    1.414   .     A
C745   H775    1.083   .     S
C746   H776    1.083   .     S
C746   C104    1.402   1_556 S
C747   O801    1.385   .     S
C747   C752    1.404   .     A
C747   C1193   1.403   1_545 S
C748   C751    1.403   .     A
C748   O803    1.386   .     S
C748   C972    1.401   .     S
C749   O805    1.385   .     S
C749   C969    1.403   .     S
C749   C825    1.415   .     S
C750   O807    1.383   .     S
C750   C1192   1.401   1_545 S
C752   C824    1.414   .     S
C753   O809    1.378   .     S
C753   N778    1.370   .     A
C753   C755    1.428   .     A
C754   O811    1.379   .     S
C754   C756    1.429   .     A
C754   N777    1.370   .     A
C755   N777    1.366   .     A
C755   F813    1.354   .     S
C756   F814    1.354   .     S
C756   N778    1.367   .     A
C757   O785    1.303   .     A
C757   C759    1.495   .     S
C757   O857    1.305   .     S
C758   C760    1.482   .     S
C758   O786    1.298   .     A
C759   C763    1.421   .     A
C759   C765    1.416   .     A
C760   C764    1.412   .     A
C760   C766    1.413   .     A
C761   C769    1.408   .     A
C761   C763    1.413   .     A
C761   O869    1.385   .     S
C762   O797    1.383   .     S
C762   C770    1.409   .     A
C762   C764    1.420   .     A
C763   O867    1.377   .     S
C765   C767    1.409   .     A
C765   O789    1.377   .     S
C766   O787    1.382   .     S
C766   C768    1.409   .     A
C767   C769    1.415   .     A
C767   C771    1.423   .     A
C768   C772    1.422   .     A
C768   C770    1.415   .     A
C769   C79     1.402   1_556 S
C771   C106    1.415   1_556 S
Cu773  O779    1.956   .     S
Cu773  O782    1.959   .     S
Cu773  O786    1.926   .     S
Cu773  O783    1.938   .     S
Cu773  N777    2.018   .     S
Cu774  O781    1.959   .     S
Cu774  O784    1.938   .     S
Cu774  O785    1.926   .     S
Cu774  N778    2.018   .     S
Cu774  O780    1.956   .     S
Cu774  Cu847   2.685   .     S
O784   C832    1.302   .     S
O787   H788    0.988   .     S
O789   H790    0.991   .     S
O791   H792    0.990   .     S
O791   C838    1.379   .     S
O793   H794    0.991   .     S
O795   H796    0.989   .     S
H798   O871    0.989   .     S
O801   H802    0.989   .     S
O803   H804    0.989   .     S
O805   H806    0.989   .     S
O807   H808    0.987   .     S
O809   H810    0.990   .     S
O811   H812    0.990   .     S
C815   C826    1.448   .     S
C815   O855    1.290   .     A
C815   O705    1.292   1_655 S
C816   O854    1.291   .     A
C816   C677    1.445   1_655 S
C816   O708    1.290   1_655 S
C817   C819    1.391   .     A
C817   C846    1.414   .     A
C817   F873    1.358   .     S
C818   C820    1.391   .     A
C818   F874    1.358   .     S
C818   C845    1.414   .     A
C819   H849    1.083   .     S
C820   H850    1.083   .     S
C820   C178    1.402   1_556 S
C821   O875    1.385   .     S
C821   C826    1.404   .     A
C821   C1267   1.403   1_545 S
C822   C825    1.403   .     A
C822   O877    1.386   .     S
C822   C1046   1.401   .     S
C823   O879    1.385   .     S
C823   C1043   1.403   .     S
C823   C677    1.415   1_655 S
C824   O881    1.383   .     S
C824   C1266   1.401   1_545 S
C826   C676    1.414   1_655 S
C827   O883    1.378   .     S
C827   N852    1.370   .     A
C827   C829    1.428   .     A
C828   O885    1.379   .     S
C828   C830    1.429   .     A
C828   N851    1.370   .     A
C829   N851    1.366   .     A
C829   F887    1.354   .     S
C830   F888    1.354   .     S
C830   N852    1.367   .     A
C831   O859    1.303   .     A
C831   C833    1.495   .     S
C831   O709    1.305   1_655 S
C832   C834    1.482   .     S
C832   O860    1.298   .     A
C833   C837    1.421   .     A
C833   C839    1.416   .     A
C834   C838    1.412   .     A
C834   C840    1.413   .     A
C835   C843    1.408   .     A
C835   C837    1.413   .     A
C835   O721    1.385   1_655 S
C836   O871    1.383   .     S
C836   C844    1.409   .     A
C836   C838    1.420   .     A
C837   O719    1.377   1_655 S
C839   C841    1.409   .     A
C839   O863    1.377   .     S
C840   O861    1.382   .     S
C840   C842    1.409   .     A
C841   C843    1.415   .     A
C841   C845    1.423   .     A
C842   C846    1.422   .     A
C842   C844    1.415   .     A
C843   C153    1.402   1_556 S
C845   C180    1.415   1_556 S
Cu847  O853    1.956   .     S
Cu847  O856    1.959   .     S
Cu847  O860    1.926   .     S
Cu847  O857    1.938   .     S
Cu847  N851    2.018   .     S
Cu848  O855    1.959   .     S
Cu848  O858    1.938   .     S
Cu848  O859    1.926   .     S
Cu848  N852    2.018   .     S
Cu848  O854    1.956   .     S
Cu848  Cu699   2.685   1_655 S
O858   C684    1.302   1_655 S
O861   H862    0.988   .     S
O863   H864    0.991   .     S
O865   H866    0.990   .     S
O865   C690    1.379   1_655 S
O867   H868    0.991   .     S
O869   H870    0.989   .     S
H872   O723    0.989   1_655 S
O875   H876    0.989   .     S
O877   H878    0.989   .     S
O879   H880    0.989   .     S
O881   H882    0.987   .     S
O883   H884    0.990   .     S
O885   H886    0.990   .     S
C889   C900    1.448   .     S
C889   O929    1.290   .     A
C889   O1001   1.292   .     S
C890   O928    1.291   .     A
C890   C973    1.445   .     S
C890   O1004   1.290   .     S
C891   C893    1.391   .     A
C891   C920    1.414   .     A
C891   F947    1.358   .     S
C892   C894    1.391   .     A
C892   F948    1.358   .     S
C892   C919    1.414   .     A
C893   H923    1.083   .     S
C894   H924    1.083   .     S
C894   C252    1.402   1_556 S
C895   O949    1.385   .     S
C895   C900    1.404   .     A
C896   C899    1.403   .     A
C896   O951    1.386   .     S
C896   C1120   1.401   .     S
C897   O953    1.385   .     S
C897   C1117   1.403   .     S
C897   C973    1.415   .     S
C898   O955    1.383   .     S
C898   C1048   1.414   1_455 S
C899   C1038   1.445   1_455 S
C899   C1045   1.415   1_455 S
C900   C972    1.414   .     S
C901   O957    1.378   .     S
C901   N926    1.370   .     A
C901   C903    1.428   .     A
C902   O959    1.379   .     S
C902   C904    1.429   .     A
C902   N925    1.370   .     A
C903   N925    1.366   .     A
C903   F961    1.354   .     S
C904   F962    1.354   .     S
C904   N926    1.367   .     A
C905   O933    1.303   .     A
C905   C907    1.495   .     S
C905   O1005   1.305   .     S
C906   C908    1.482   .     S
C906   O934    1.298   .     A
C906   O1080   1.302   1_455 S
C907   C911    1.421   .     A
C907   C913    1.416   .     A
C908   C912    1.412   .     A
C908   C914    1.413   .     A
C909   C917    1.408   .     A
C909   C911    1.413   .     A
C909   O1017   1.385   .     S
C910   O945    1.383   .     S
C910   C918    1.409   .     A
C910   C912    1.420   .     A
C911   O1015   1.377   .     S
C912   O1087   1.379   1_455 S
C913   C915    1.409   .     A
C913   O937    1.377   .     S
C914   O935    1.382   .     S
C914   C916    1.409   .     A
C915   C917    1.415   .     A
C915   C919    1.423   .     A
C916   C920    1.422   .     A
C916   C918    1.415   .     A
C917   C227    1.402   1_556 S
C919   C254    1.415   1_556 S
Cu921  O927    1.956   .     S
Cu921  O930    1.959   .     S
Cu921  O934    1.926   .     S
Cu921  O931    1.938   .     S
Cu921  N925    2.018   .     S
Cu921  Cu1070  2.685   1_455 S
Cu922  O929    1.959   .     S
Cu922  O932    1.938   .     S
Cu922  O933    1.926   .     S
Cu922  N926    2.018   .     S
Cu922  O928    1.956   .     S
Cu922  Cu995   2.685   .     S
O927   C1037   1.292   1_455 S
O930   C1038   1.290   1_455 S
O931   C1053   1.305   1_455 S
O932   C980    1.302   .     S
O935   H936    0.988   .     S
O937   H938    0.991   .     S
O939   H940    0.990   .     S
O939   C986    1.379   .     S
O941   H942    0.991   .     S
O941   C1059   1.377   1_455 S
O943   H944    0.989   .     S
O943   C1057   1.385   1_455 S
O945   H1094   0.989   1_455 S
H946   O1019   0.989   .     S
O949   H950    0.989   .     S
O951   H952    0.989   .     S
O953   H954    0.989   .     S
O955   H956    0.987   .     S
O957   H958    0.990   .     S
O959   H960    0.990   .     S
C963   C974    1.448   .     S
C963   O1003   1.290   .     A
C963   O1075   1.292   .     S
C964   O1002   1.291   .     A
C964   C1047   1.445   .     S
C964   O1078   1.290   .     S
C965   C967    1.391   .     A
C965   C994    1.414   .     A
C965   F1021   1.358   .     S
C966   C968    1.391   .     A
C966   F1022   1.358   .     S
C966   C993    1.414   .     A
C967   H997    1.083   .     S
C968   H998    1.083   .     S
C968   C326    1.402   1_556 S
C969   O1023   1.385   .     S
C969   C974    1.404   .     A
C970   C973    1.403   .     A
C970   O1025   1.386   .     S
C970   C1194   1.401   .     S
C971   O1027   1.385   .     S
C971   C1191   1.403   .     S
C971   C1047   1.415   .     S
C972   O1029   1.383   .     S
C974   C1046   1.414   .     S
C975   O1031   1.378   .     S
C975   N1000   1.370   .     A
C975   C977    1.428   .     A
C976   O1033   1.379   .     S
C976   C978    1.429   .     A
C976   N999    1.370   .     A
C977   N999    1.366   .     A
C977   F1035   1.354   .     S
C978   F1036   1.354   .     S
C978   N1000   1.367   .     A
C979   O1007   1.303   .     A
C979   C981    1.495   .     S
C979   O1079   1.305   .     S
C980   C982    1.482   .     S
C980   O1008   1.298   .     A
C981   C985    1.421   .     A
C981   C987    1.416   .     A
C982   C986    1.412   .     A
C982   C988    1.413   .     A
C983   C991    1.408   .     A
C983   C985    1.413   .     A
C983   O1091   1.385   .     S
C984   O1019   1.383   .     S
C984   C992    1.409   .     A
C984   C986    1.420   .     A
C985   O1089   1.377   .     S
C987   C989    1.409   .     A
C987   O1011   1.377   .     S
C988   O1009   1.382   .     S
C988   C990    1.409   .     A
C989   C991    1.415   .     A
C989   C993    1.423   .     A
C990   C994    1.422   .     A
C990   C992    1.415   .     A
C991   C301    1.402   1_556 S
C993   C328    1.415   1_556 S
Cu995  O1001   1.956   .     S
Cu995  O1004   1.959   .     S
Cu995  O1008   1.926   .     S
Cu995  O1005   1.938   .     S
Cu995  N999    2.018   .     S
Cu996  O1003   1.959   .     S
Cu996  O1006   1.938   .     S
Cu996  O1007   1.926   .     S
Cu996  N1000   2.018   .     S
Cu996  O1002   1.956   .     S
Cu996  Cu1069  2.685   .     S
O1006  C1054   1.302   .     S
O1009  H1010   0.988   .     S
O1011  H1012   0.991   .     S
O1013  H1014   0.990   .     S
O1013  C1060   1.379   .     S
O1015  H1016   0.991   .     S
O1017  H1018   0.989   .     S
H1020  O1093   0.989   .     S
O1023  H1024   0.989   .     S
O1025  H1026   0.989   .     S
O1027  H1028   0.989   .     S
O1029  H1030   0.987   .     S
O1031  H1032   0.990   .     S
O1033  H1034   0.990   .     S
C1037  C1048   1.448   .     S
C1037  O1077   1.290   .     A
C1037  O927    1.292   1_655 S
C1038  O1076   1.291   .     A
C1038  C899    1.445   1_655 S
C1038  O930    1.290   1_655 S
C1039  C1041   1.391   .     A
C1039  C1068   1.414   .     A
C1039  F1095   1.358   .     S
C1040  C1042   1.391   .     A
C1040  F1096   1.358   .     S
C1040  C1067   1.414   .     A
C1041  H1071   1.083   .     S
C1042  H1072   1.083   .     S
C1042  C400    1.402   1_556 S
C1043  O1097   1.385   .     S
C1043  C1048   1.404   .     A
C1044  C1047   1.403   .     A
C1044  O1099   1.386   .     S
C1044  C1268   1.401   .     S
C1045  O1101   1.385   .     S
C1045  C1265   1.403   .     S
C1045  C899    1.415   1_655 S
C1046  O1103   1.383   .     S
C1048  C898    1.414   1_655 S
C1049  O1105   1.378   .     S
C1049  N1074   1.370   .     A
C1049  C1051   1.428   .     A
C1050  O1107   1.379   .     S
C1050  C1052   1.429   .     A
C1050  N1073   1.370   .     A
C1051  N1073   1.366   .     A
C1051  F1109   1.354   .     S
C1052  F1110   1.354   .     S
C1052  N1074   1.367   .     A
C1053  O1081   1.303   .     A
C1053  C1055   1.495   .     S
C1053  O931    1.305   1_655 S
C1054  C1056   1.482   .     S
C1054  O1082   1.298   .     A
C1055  C1059   1.421   .     A
C1055  C1061   1.416   .     A
C1056  C1060   1.412   .     A
C1056  C1062   1.413   .     A
C1057  C1065   1.408   .     A
C1057  C1059   1.413   .     A
C1057  O943    1.385   1_655 S
C1058  O1093   1.383   .     S
C1058  C1066   1.409   .     A
C1058  C1060   1.420   .     A
C1059  O941    1.377   1_655 S
C1061  C1063   1.409   .     A
C1061  O1085   1.377   .     S
C1062  O1083   1.382   .     S
C1062  C1064   1.409   .     A
C1063  C1065   1.415   .     A
C1063  C1067   1.423   .     A
C1064  C1068   1.422   .     A
C1064  C1066   1.415   .     A
C1065  C375    1.402   1_556 S
C1067  C402    1.415   1_556 S
Cu1069 O1075   1.956   .     S
Cu1069 O1078   1.959   .     S
Cu1069 O1082   1.926   .     S
Cu1069 O1079   1.938   .     S
Cu1069 N1073   2.018   .     S
Cu1070 O1077   1.959   .     S
Cu1070 O1080   1.938   .     S
Cu1070 O1081   1.926   .     S
Cu1070 N1074   2.018   .     S
Cu1070 O1076   1.956   .     S
Cu1070 Cu921   2.685   1_655 S
O1080  C906    1.302   1_655 S
O1083  H1084   0.988   .     S
O1085  H1086   0.991   .     S
O1087  H1088   0.990   .     S
O1087  C912    1.379   1_655 S
O1089  H1090   0.991   .     S
O1091  H1092   0.989   .     S
H1094  O945    0.989   1_655 S
O1097  H1098   0.989   .     S
O1099  H1100   0.989   .     S
O1101  H1102   0.989   .     S
O1103  H1104   0.987   .     S
O1105  H1106   0.990   .     S
O1107  H1108   0.990   .     S
C1111  C1122   1.448   .     S
C1111  O1151   1.290   .     A
C1111  O1223   1.292   .     S
C1112  O1150   1.291   .     A
C1112  C1195   1.445   .     S
C1112  O1226   1.290   .     S
C1113  C1115   1.391   .     A
C1113  C1142   1.414   .     A
C1113  F1169   1.358   .     S
C1114  C1116   1.391   .     A
C1114  F1170   1.358   .     S
C1114  C1141   1.414   .     A
C1115  H1145   1.083   .     S
C1116  H1146   1.083   .     S
C1116  C474    1.402   1_556 S
C1117  O1171   1.385   .     S
C1117  C1122   1.404   .     A
C1118  C1121   1.403   .     A
C1118  O1173   1.386   .     S
C1118  C676    1.401   1_565 S
C1119  O1175   1.385   .     S
C1119  C673    1.403   1_565 S
C1119  C1195   1.415   .     S
C1120  O1177   1.383   .     S
C1120  C1270   1.414   1_455 S
C1121  C1260   1.445   1_455 S
C1121  C1267   1.415   1_455 S
C1122  C1194   1.414   .     S
C1123  O1179   1.378   .     S
C1123  N1148   1.370   .     A
C1123  C1125   1.428   .     A
C1124  O1181   1.379   .     S
C1124  C1126   1.429   .     A
C1124  N1147   1.370   .     A
C1125  N1147   1.366   .     A
C1125  F1183   1.354   .     S
C1126  F1184   1.354   .     S
C1126  N1148   1.367   .     A
C1127  O1155   1.303   .     A
C1127  C1129   1.495   .     S
C1127  O1227   1.305   .     S
C1128  C1130   1.482   .     S
C1128  O1156   1.298   .     A
C1128  O1302   1.302   1_455 S
C1129  C1133   1.421   .     A
C1129  C1135   1.416   .     A
C1130  C1134   1.412   .     A
C1130  C1136   1.413   .     A
C1131  C1139   1.408   .     A
C1131  C1133   1.413   .     A
C1131  O1239   1.385   .     S
C1132  O1167   1.383   .     S
C1132  C1140   1.409   .     A
C1132  C1134   1.420   .     A
C1133  O1237   1.377   .     S
C1134  O1309   1.379   1_455 S
C1135  C1137   1.409   .     A
C1135  O1159   1.377   .     S
C1136  O1157   1.382   .     S
C1136  C1138   1.409   .     A
C1137  C1139   1.415   .     A
C1137  C1141   1.423   .     A
C1138  C1142   1.422   .     A
C1138  C1140   1.415   .     A
C1139  C449    1.402   1_556 S
C1141  C476    1.415   1_556 S
Cu1143 O1149   1.956   .     S
Cu1143 O1152   1.959   .     S
Cu1143 O1156   1.926   .     S
Cu1143 O1153   1.938   .     S
Cu1143 N1147   2.018   .     S
Cu1143 Cu1292  2.685   1_455 S
Cu1144 O1151   1.959   .     S
Cu1144 O1154   1.938   .     S
Cu1144 O1155   1.926   .     S
Cu1144 N1148   2.018   .     S
Cu1144 O1150   1.956   .     S
Cu1144 Cu1217  2.685   .     S
O1149  C1259   1.292   1_455 S
O1152  C1260   1.290   1_455 S
O1153  C1275   1.305   1_455 S
O1154  C1202   1.302   .     S
O1157  H1158   0.988   .     S
O1159  H1160   0.991   .     S
O1161  H1162   0.990   .     S
O1161  C1208   1.379   .     S
O1163  H1164   0.991   .     S
O1163  C1281   1.377   1_455 S
O1165  H1166   0.989   .     S
O1165  C1279   1.385   1_455 S
O1167  H1316   0.989   1_455 S
H1168  O1241   0.989   .     S
O1171  H1172   0.989   .     S
O1173  H1174   0.989   .     S
O1175  H1176   0.989   .     S
O1177  H1178   0.987   .     S
O1179  H1180   0.990   .     S
O1181  H1182   0.990   .     S
C1185  C1196   1.448   .     S
C1185  O1225   1.290   .     A
C1185  O1297   1.292   .     S
C1186  O1224   1.291   .     A
C1186  C1269   1.445   .     S
C1186  O1300   1.290   .     S
C1187  C1189   1.391   .     A
C1187  C1216   1.414   .     A
C1187  F1243   1.358   .     S
C1188  C1190   1.391   .     A
C1188  F1244   1.358   .     S
C1188  C1215   1.414   .     A
C1189  H1219   1.083   .     S
C1190  H1220   1.083   .     S
C1190  C548    1.402   1_556 S
C1191  O1245   1.385   .     S
C1191  C1196   1.404   .     A
C1192  C1195   1.403   .     A
C1192  O1247   1.386   .     S
C1192  C750    1.401   1_565 S
C1193  O1249   1.385   .     S
C1193  C747    1.403   1_565 S
C1193  C1269   1.415   .     S
C1194  O1251   1.383   .     S
C1196  C1268   1.414   .     S
C1197  O1253   1.378   .     S
C1197  N1222   1.370   .     A
C1197  C1199   1.428   .     A
C1198  O1255   1.379   .     S
C1198  C1200   1.429   .     A
C1198  N1221   1.370   .     A
C1199  N1221   1.366   .     A
C1199  F1257   1.354   .     S
C1200  F1258   1.354   .     S
C1200  N1222   1.367   .     A
C1201  O1229   1.303   .     A
C1201  C1203   1.495   .     S
C1201  O1301   1.305   .     S
C1202  C1204   1.482   .     S
C1202  O1230   1.298   .     A
C1203  C1207   1.421   .     A
C1203  C1209   1.416   .     A
C1204  C1208   1.412   .     A
C1204  C1210   1.413   .     A
C1205  C1213   1.408   .     A
C1205  C1207   1.413   .     A
C1205  O1313   1.385   .     S
C1206  O1241   1.383   .     S
C1206  C1214   1.409   .     A
C1206  C1208   1.420   .     A
C1207  O1311   1.377   .     S
C1209  C1211   1.409   .     A
C1209  O1233   1.377   .     S
C1210  O1231   1.382   .     S
C1210  C1212   1.409   .     A
C1211  C1213   1.415   .     A
C1211  C1215   1.423   .     A
C1212  C1216   1.422   .     A
C1212  C1214   1.415   .     A
C1213  C523    1.402   1_556 S
C1215  C550    1.415   1_556 S
Cu1217 O1223   1.956   .     S
Cu1217 O1226   1.959   .     S
Cu1217 O1230   1.926   .     S
Cu1217 O1227   1.938   .     S
Cu1217 N1221   2.018   .     S
Cu1218 O1225   1.959   .     S
Cu1218 O1228   1.938   .     S
Cu1218 O1229   1.926   .     S
Cu1218 N1222   2.018   .     S
Cu1218 O1224   1.956   .     S
Cu1218 Cu1291  2.685   .     S
O1228  C1276   1.302   .     S
O1231  H1232   0.988   .     S
O1233  H1234   0.991   .     S
O1235  H1236   0.990   .     S
O1235  C1282   1.379   .     S
O1237  H1238   0.991   .     S
O1239  H1240   0.989   .     S
H1242  O1315   0.989   .     S
O1245  H1246   0.989   .     S
O1247  H1248   0.989   .     S
O1249  H1250   0.989   .     S
O1251  H1252   0.987   .     S
O1253  H1254   0.990   .     S
O1255  H1256   0.990   .     S
C1259  C1270   1.448   .     S
C1259  O1299   1.290   .     A
C1259  O1149   1.292   1_655 S
C1260  O1298   1.291   .     A
C1260  C1121   1.445   1_655 S
C1260  O1152   1.290   1_655 S
C1261  C1263   1.391   .     A
C1261  C1290   1.414   .     A
C1261  F1317   1.358   .     S
C1262  C1264   1.391   .     A
C1262  F1318   1.358   .     S
C1262  C1289   1.414   .     A
C1263  H1293   1.083   .     S
C1264  H1294   1.083   .     S
C1264  C622    1.402   1_556 S
C1265  O1319   1.385   .     S
C1265  C1270   1.404   .     A
C1266  C1269   1.403   .     A
C1266  O1321   1.386   .     S
C1266  C824    1.401   1_565 S
C1267  O1323   1.385   .     S
C1267  C821    1.403   1_565 S
C1267  C1121   1.415   1_655 S
C1268  O1325   1.383   .     S
C1270  C1120   1.414   1_655 S
C1271  O1327   1.378   .     S
C1271  N1296   1.370   .     A
C1271  C1273   1.428   .     A
C1272  O1329   1.379   .     S
C1272  C1274   1.429   .     A
C1272  N1295   1.370   .     A
C1273  N1295   1.366   .     A
C1273  F1331   1.354   .     S
C1274  F1332   1.354   .     S
C1274  N1296   1.367   .     A
C1275  O1303   1.303   .     A
C1275  C1277   1.495   .     S
C1275  O1153   1.305   1_655 S
C1276  C1278   1.482   .     S
C1276  O1304   1.298   .     A
C1277  C1281   1.421   .     A
C1277  C1283   1.416   .     A
C1278  C1282   1.412   .     A
C1278  C1284   1.413   .     A
C1279  C1287   1.408   .     A
C1279  C1281   1.413   .     A
C1279  O1165   1.385   1_655 S
C1280  O1315   1.383   .     S
C1280  C1288   1.409   .     A
C1280  C1282   1.420   .     A
C1281  O1163   1.377   1_655 S
C1283  C1285   1.409   .     A
C1283  O1307   1.377   .     S
C1284  O1305   1.382   .     S
C1284  C1286   1.409   .     A
C1285  C1287   1.415   .     A
C1285  C1289   1.423   .     A
C1286  C1290   1.422   .     A
C1286  C1288   1.415   .     A
C1287  C597    1.402   1_556 S
C1289  C624    1.415   1_556 S
Cu1291 O1297   1.956   .     S
Cu1291 O1300   1.959   .     S
Cu1291 O1304   1.926   .     S
Cu1291 O1301   1.938   .     S
Cu1291 N1295   2.018   .     S
Cu1292 O1299   1.959   .     S
Cu1292 O1302   1.938   .     S
Cu1292 O1303   1.926   .     S
Cu1292 N1296   2.018   .     S
Cu1292 O1298   1.956   .     S
Cu1292 Cu1143  2.685   1_655 S
O1302  C1128   1.302   1_655 S
O1305  H1306   0.988   .     S
O1307  H1308   0.991   .     S
O1309  H1310   0.990   .     S
O1309  C1134   1.379   1_655 S
O1311  H1312   0.991   .     S
O1313  H1314   0.989   .     S
H1316  O1167   0.989   1_655 S
O1319  H1320   0.989   .     S
O1321  H1322   0.989   .     S
O1323  H1324   0.989   .     S
O1325  H1326   0.987   .     S
O1327  H1328   0.990   .     S
O1329  H1330   0.990   .     S
