data_str_m2_o1_o10_pcu_sym.208
_audit_creation_date              2020-01-03
_audit_creation_method            'Materials Studio'
_symmetry_space_group_name_H-M    'P1'
_symmetry_Int_Tables_number       1
_symmetry_cell_setting            triclinic
loop_
_symmetry_equiv_pos_as_xyz
  x,y,z
_cell_length_a                    26.1726
_cell_length_b                    32.3541
_cell_length_c                    28.7450
_cell_angle_alpha                 91.0814
_cell_angle_beta                  98.2707
_cell_angle_gamma                 90.3991
loop_
_atom_site_label
_atom_site_type_symbol
_atom_site_fract_x
_atom_site_fract_y
_atom_site_fract_z
_atom_site_U_iso_or_equiv
_atom_site_adp_type
_atom_site_occupancy
O1     O     0.16666   0.10655   0.20625   0.00000  Uiso   1.00
O2     O     0.16667   0.22678   0.12709   0.00000  Uiso   1.00
O3     O     0.16666   0.10654   0.12706   0.00000  Uiso   1.00
O4     O     0.16667   0.22679   0.20628   0.00000  Uiso   1.00
C5     C     0.16785   0.08751   0.16649   0.00000  Uiso   1.00
C6     C     0.16548   0.24582   0.16685   0.00000  Uiso   1.00
O7     O     0.09161   0.16667   0.19712   0.00000  Uiso   1.00
O8     O     0.24172   0.16666   0.13621   0.00000  Uiso   1.00
O9     O     0.09161   0.16666   0.11793   0.00000  Uiso   1.00
O10    O     0.24172   0.16667   0.21540   0.00000  Uiso   1.00
C11    C     0.06795   0.16652   0.15454   0.00000  Uiso   1.00
C12    C     0.26539   0.16681   0.17879   0.00000  Uiso   1.00
Cu13   Cu    0.16667   0.16667   0.21355   0.00000  Uiso   1.00
Cu14   Cu    0.16667   0.16666   0.11978   0.00000  Uiso   1.00
N15    N     0.16668   0.16668   0.28403   0.00000  Uiso   1.00
N16    N     0.16665   0.16666   0.04931   0.00000  Uiso   1.00
C17    C     0.01254   0.16657   0.14797   0.00000  Uiso   1.00
C18    C     0.32079   0.16676   0.18537   0.00000  Uiso   1.00
C19    C     0.13310   0.02151   0.13370   0.00000  Uiso   1.00
C20    C     0.20023   0.31182   0.19964   0.00000  Uiso   1.00
H21    H     0.10565   0.03849   0.10965   0.00000  Uiso   1.00
H22    H     0.22768   0.29485   0.22369   0.00000  Uiso   1.00
C23    C     0.12985   0.31192   0.13394   0.00000  Uiso   1.00
C24    C     0.20348   0.02141   0.19939   0.00000  Uiso   1.00
C25    C     0.16410   0.29047   0.16725   0.00000  Uiso   1.00
C26    C     0.16923   0.04287   0.16608   0.00000  Uiso   1.00
C27    C     0.14162   0.13606   0.02021   0.00000  Uiso   1.00
C28    C     0.19172   0.19727   0.31313   0.00000  Uiso   1.00
C29    C     0.14190   0.13630   0.30426   0.00000  Uiso   1.00
C30    C     0.19143   0.19703   0.02907   0.00000  Uiso   1.00
H31    H     0.12173   0.11212   0.28224   0.00000  Uiso   1.00
H32    H     0.21160   0.22121   0.05109   0.00000  Uiso   1.00
H33    H     0.32567   0.16651   0.11217   0.00000  Uiso   1.00
H34    H     0.00766   0.16682   0.22117   0.00000  Uiso   1.00
N35    N     0.09061   0.29096   0.10162   0.00000  Uiso   1.00
O36    O     0.06476   0.26015   0.11547   0.00000  Uiso   1.00
O37    O     0.07576   0.30607   0.06026   0.00000  Uiso   1.00
N38    N     0.24271   0.04238   0.23173   0.00000  Uiso   1.00
O39    O     0.26859   0.07317   0.21787   0.00000  Uiso   1.00
O40    O     0.25751   0.02729   0.27310   0.00000  Uiso   1.00
N41    N     0.11518   0.10282   0.03872   0.00000  Uiso   1.00
O42    O     0.12829   0.06510   0.02977   0.00000  Uiso   1.00
O43    O     0.06988   0.10921   0.05084   0.00000  Uiso   1.00
N44    N     0.21815   0.23052   0.29461   0.00000  Uiso   1.00
O45    O     0.20504   0.26824   0.30356   0.00000  Uiso   1.00
O46    O     0.26344   0.22412   0.28249   0.00000  Uiso   1.00
O47    O     0.50000   0.10655   0.20625   0.00000  Uiso   1.00
O48    O     0.50000   0.22678   0.12709   0.00000  Uiso   1.00
O49    O     0.50000   0.10654   0.12706   0.00000  Uiso   1.00
O50    O     0.50000   0.22679   0.20628   0.00000  Uiso   1.00
C51    C     0.50119   0.08751   0.16649   0.00000  Uiso   1.00
C52    C     0.49881   0.24582   0.16685   0.00000  Uiso   1.00
O53    O     0.42495   0.16667   0.19712   0.00000  Uiso   1.00
O54    O     0.57505   0.16666   0.13621   0.00000  Uiso   1.00
O55    O     0.42494   0.16666   0.11793   0.00000  Uiso   1.00
O56    O     0.57506   0.16667   0.21540   0.00000  Uiso   1.00
C57    C     0.40128   0.16652   0.15454   0.00000  Uiso   1.00
C58    C     0.59872   0.16681   0.17879   0.00000  Uiso   1.00
Cu59   Cu    0.50000   0.16667   0.21355   0.00000  Uiso   1.00
Cu60   Cu    0.50000   0.16666   0.11978   0.00000  Uiso   1.00
N61    N     0.50001   0.16668   0.28403   0.00000  Uiso   1.00
N62    N     0.49999   0.16666   0.04931   0.00000  Uiso   1.00
C63    C     0.34587   0.16657   0.14797   0.00000  Uiso   1.00
C64    C     0.65413   0.16676   0.18537   0.00000  Uiso   1.00
C65    C     0.46643   0.02151   0.13370   0.00000  Uiso   1.00
C66    C     0.53356   0.31182   0.19964   0.00000  Uiso   1.00
H67    H     0.43898   0.03849   0.10965   0.00000  Uiso   1.00
H68    H     0.56101   0.29485   0.22369   0.00000  Uiso   1.00
C69    C     0.46318   0.31192   0.13394   0.00000  Uiso   1.00
C70    C     0.53681   0.02141   0.19939   0.00000  Uiso   1.00
C71    C     0.49744   0.29047   0.16725   0.00000  Uiso   1.00
C72    C     0.50256   0.04287   0.16608   0.00000  Uiso   1.00
C73    C     0.47495   0.13606   0.02021   0.00000  Uiso   1.00
C74    C     0.52505   0.19727   0.31313   0.00000  Uiso   1.00
C75    C     0.47523   0.13630   0.30426   0.00000  Uiso   1.00
C76    C     0.52477   0.19703   0.02907   0.00000  Uiso   1.00
H77    H     0.45507   0.11212   0.28224   0.00000  Uiso   1.00
H78    H     0.54493   0.22121   0.05109   0.00000  Uiso   1.00
H79    H     0.65900   0.16651   0.11217   0.00000  Uiso   1.00
H80    H     0.34100   0.16682   0.22117   0.00000  Uiso   1.00
N81    N     0.42394   0.29096   0.10162   0.00000  Uiso   1.00
O82    O     0.39809   0.26015   0.11547   0.00000  Uiso   1.00
O83    O     0.40909   0.30607   0.06026   0.00000  Uiso   1.00
N84    N     0.57604   0.04238   0.23173   0.00000  Uiso   1.00
O85    O     0.60192   0.07317   0.21787   0.00000  Uiso   1.00
O86    O     0.59084   0.02729   0.27310   0.00000  Uiso   1.00
N87    N     0.44852   0.10282   0.03872   0.00000  Uiso   1.00
O88    O     0.46162   0.06510   0.02977   0.00000  Uiso   1.00
O89    O     0.40322   0.10921   0.05084   0.00000  Uiso   1.00
N90    N     0.55148   0.23052   0.29461   0.00000  Uiso   1.00
O91    O     0.53838   0.26824   0.30356   0.00000  Uiso   1.00
O92    O     0.59678   0.22412   0.28249   0.00000  Uiso   1.00
O93    O     0.83333   0.10655   0.20625   0.00000  Uiso   1.00
O94    O     0.83334   0.22678   0.12709   0.00000  Uiso   1.00
O95    O     0.83333   0.10654   0.12706   0.00000  Uiso   1.00
O96    O     0.83334   0.22679   0.20628   0.00000  Uiso   1.00
C97    C     0.83452   0.08751   0.16649   0.00000  Uiso   1.00
C98    C     0.83215   0.24582   0.16685   0.00000  Uiso   1.00
O99    O     0.75828   0.16667   0.19712   0.00000  Uiso   1.00
O100   O     0.90839   0.16666   0.13621   0.00000  Uiso   1.00
O101   O     0.75828   0.16666   0.11793   0.00000  Uiso   1.00
O102   O     0.90839   0.16667   0.21540   0.00000  Uiso   1.00
C103   C     0.73461   0.16652   0.15454   0.00000  Uiso   1.00
C104   C     0.93205   0.16681   0.17879   0.00000  Uiso   1.00
Cu105  Cu    0.83333   0.16667   0.21355   0.00000  Uiso   1.00
Cu106  Cu    0.83333   0.16666   0.11978   0.00000  Uiso   1.00
N107   N     0.83335   0.16668   0.28403   0.00000  Uiso   1.00
N108   N     0.83332   0.16666   0.04931   0.00000  Uiso   1.00
C109   C     0.67921   0.16657   0.14797   0.00000  Uiso   1.00
C110   C     0.98746   0.16676   0.18537   0.00000  Uiso   1.00
C111   C     0.79976   0.02151   0.13370   0.00000  Uiso   1.00
C112   C     0.86690   0.31182   0.19964   0.00000  Uiso   1.00
H113   H     0.77231   0.03849   0.10965   0.00000  Uiso   1.00
H114   H     0.89435   0.29485   0.22369   0.00000  Uiso   1.00
C115   C     0.79652   0.31192   0.13394   0.00000  Uiso   1.00
C116   C     0.87014   0.02141   0.19939   0.00000  Uiso   1.00
C117   C     0.83077   0.29047   0.16725   0.00000  Uiso   1.00
C118   C     0.83589   0.04287   0.16608   0.00000  Uiso   1.00
C119   C     0.80828   0.13606   0.02021   0.00000  Uiso   1.00
C120   C     0.85838   0.19727   0.31313   0.00000  Uiso   1.00
C121   C     0.80857   0.13630   0.30426   0.00000  Uiso   1.00
C122   C     0.85810   0.19703   0.02907   0.00000  Uiso   1.00
H123   H     0.78840   0.11212   0.28224   0.00000  Uiso   1.00
H124   H     0.87827   0.22121   0.05109   0.00000  Uiso   1.00
H125   H     0.99234   0.16651   0.11217   0.00000  Uiso   1.00
H126   H     0.67433   0.16682   0.22117   0.00000  Uiso   1.00
N127   N     0.75727   0.29096   0.10162   0.00000  Uiso   1.00
O128   O     0.73142   0.26015   0.11547   0.00000  Uiso   1.00
O129   O     0.74243   0.30607   0.06026   0.00000  Uiso   1.00
N130   N     0.90938   0.04238   0.23173   0.00000  Uiso   1.00
O131   O     0.93525   0.07317   0.21787   0.00000  Uiso   1.00
O132   O     0.92418   0.02729   0.27310   0.00000  Uiso   1.00
N133   N     0.78185   0.10282   0.03872   0.00000  Uiso   1.00
O134   O     0.79495   0.06510   0.02977   0.00000  Uiso   1.00
O135   O     0.73655   0.10921   0.05084   0.00000  Uiso   1.00
N136   N     0.88481   0.23052   0.29461   0.00000  Uiso   1.00
O137   O     0.87171   0.26824   0.30356   0.00000  Uiso   1.00
O138   O     0.93011   0.22412   0.28249   0.00000  Uiso   1.00
O139   O     0.16666   0.43989   0.20625   0.00000  Uiso   1.00
O140   O     0.16667   0.56011   0.12709   0.00000  Uiso   1.00
O141   O     0.16666   0.43988   0.12706   0.00000  Uiso   1.00
O142   O     0.16667   0.56012   0.20628   0.00000  Uiso   1.00
C143   C     0.16785   0.42084   0.16649   0.00000  Uiso   1.00
C144   C     0.16548   0.57916   0.16685   0.00000  Uiso   1.00
O145   O     0.09161   0.50000   0.19712   0.00000  Uiso   1.00
O146   O     0.24172   0.50000   0.13621   0.00000  Uiso   1.00
O147   O     0.09161   0.49999   0.11793   0.00000  Uiso   1.00
O148   O     0.24172   0.50001   0.21540   0.00000  Uiso   1.00
C149   C     0.06795   0.49986   0.15454   0.00000  Uiso   1.00
C150   C     0.26539   0.50014   0.17879   0.00000  Uiso   1.00
Cu151  Cu    0.16667   0.50001   0.21355   0.00000  Uiso   1.00
Cu152  Cu    0.16667   0.49999   0.11978   0.00000  Uiso   1.00
N153   N     0.16668   0.50001   0.28403   0.00000  Uiso   1.00
N154   N     0.16665   0.49999   0.04931   0.00000  Uiso   1.00
C155   C     0.01254   0.49990   0.14797   0.00000  Uiso   1.00
C156   C     0.32079   0.50009   0.18537   0.00000  Uiso   1.00
C157   C     0.13310   0.35485   0.13370   0.00000  Uiso   1.00
C158   C     0.20023   0.64515   0.19964   0.00000  Uiso   1.00
H159   H     0.10565   0.37182   0.10965   0.00000  Uiso   1.00
H160   H     0.22768   0.62818   0.22369   0.00000  Uiso   1.00
C161   C     0.12985   0.64526   0.13394   0.00000  Uiso   1.00
C162   C     0.20348   0.35474   0.19939   0.00000  Uiso   1.00
C163   C     0.16410   0.62380   0.16725   0.00000  Uiso   1.00
C164   C     0.16923   0.37620   0.16608   0.00000  Uiso   1.00
C165   C     0.14162   0.46939   0.02021   0.00000  Uiso   1.00
C166   C     0.19172   0.53061   0.31313   0.00000  Uiso   1.00
C167   C     0.14190   0.46963   0.30426   0.00000  Uiso   1.00
C168   C     0.19143   0.53036   0.02907   0.00000  Uiso   1.00
H169   H     0.12173   0.44545   0.28224   0.00000  Uiso   1.00
H170   H     0.21160   0.55455   0.05109   0.00000  Uiso   1.00
H171   H     0.32567   0.49985   0.11217   0.00000  Uiso   1.00
H172   H     0.00766   0.50015   0.22117   0.00000  Uiso   1.00
N173   N     0.09061   0.62429   0.10162   0.00000  Uiso   1.00
O174   O     0.06476   0.59348   0.11547   0.00000  Uiso   1.00
O175   O     0.07576   0.63940   0.06026   0.00000  Uiso   1.00
N176   N     0.24271   0.37571   0.23173   0.00000  Uiso   1.00
O177   O     0.26859   0.40650   0.21787   0.00000  Uiso   1.00
O178   O     0.25751   0.36062   0.27310   0.00000  Uiso   1.00
N179   N     0.11518   0.43615   0.03872   0.00000  Uiso   1.00
O180   O     0.12829   0.39843   0.02977   0.00000  Uiso   1.00
O181   O     0.06988   0.44255   0.05084   0.00000  Uiso   1.00
N182   N     0.21815   0.56385   0.29461   0.00000  Uiso   1.00
O183   O     0.20504   0.60157   0.30356   0.00000  Uiso   1.00
O184   O     0.26344   0.55746   0.28249   0.00000  Uiso   1.00
O185   O     0.50000   0.43989   0.20625   0.00000  Uiso   1.00
O186   O     0.50000   0.56011   0.12709   0.00000  Uiso   1.00
O187   O     0.50000   0.43988   0.12706   0.00000  Uiso   1.00
O188   O     0.50000   0.56012   0.20628   0.00000  Uiso   1.00
C189   C     0.50119   0.42084   0.16649   0.00000  Uiso   1.00
C190   C     0.49881   0.57916   0.16685   0.00000  Uiso   1.00
O191   O     0.42495   0.50000   0.19712   0.00000  Uiso   1.00
O192   O     0.57505   0.50000   0.13621   0.00000  Uiso   1.00
O193   O     0.42494   0.49999   0.11793   0.00000  Uiso   1.00
O194   O     0.57506   0.50001   0.21540   0.00000  Uiso   1.00
C195   C     0.40128   0.49986   0.15454   0.00000  Uiso   1.00
C196   C     0.59872   0.50014   0.17879   0.00000  Uiso   1.00
Cu197  Cu    0.50000   0.50001   0.21355   0.00000  Uiso   1.00
Cu198  Cu    0.50000   0.49999   0.11978   0.00000  Uiso   1.00
N199   N     0.50001   0.50001   0.28403   0.00000  Uiso   1.00
N200   N     0.49999   0.49999   0.04931   0.00000  Uiso   1.00
C201   C     0.34587   0.49990   0.14797   0.00000  Uiso   1.00
C202   C     0.65413   0.50009   0.18537   0.00000  Uiso   1.00
C203   C     0.46643   0.35485   0.13370   0.00000  Uiso   1.00
C204   C     0.53356   0.64515   0.19964   0.00000  Uiso   1.00
H205   H     0.43898   0.37182   0.10965   0.00000  Uiso   1.00
H206   H     0.56101   0.62818   0.22369   0.00000  Uiso   1.00
C207   C     0.46318   0.64526   0.13394   0.00000  Uiso   1.00
C208   C     0.53681   0.35474   0.19939   0.00000  Uiso   1.00
C209   C     0.49744   0.62380   0.16725   0.00000  Uiso   1.00
C210   C     0.50256   0.37620   0.16608   0.00000  Uiso   1.00
C211   C     0.47495   0.46939   0.02021   0.00000  Uiso   1.00
C212   C     0.52505   0.53061   0.31313   0.00000  Uiso   1.00
C213   C     0.47523   0.46963   0.30426   0.00000  Uiso   1.00
C214   C     0.52477   0.53036   0.02907   0.00000  Uiso   1.00
H215   H     0.45507   0.44545   0.28224   0.00000  Uiso   1.00
H216   H     0.54493   0.55455   0.05109   0.00000  Uiso   1.00
H217   H     0.65900   0.49985   0.11217   0.00000  Uiso   1.00
H218   H     0.34100   0.50015   0.22117   0.00000  Uiso   1.00
N219   N     0.42394   0.62429   0.10162   0.00000  Uiso   1.00
O220   O     0.39809   0.59348   0.11547   0.00000  Uiso   1.00
O221   O     0.40909   0.63940   0.06026   0.00000  Uiso   1.00
N222   N     0.57604   0.37571   0.23173   0.00000  Uiso   1.00
O223   O     0.60192   0.40650   0.21787   0.00000  Uiso   1.00
O224   O     0.59084   0.36062   0.27310   0.00000  Uiso   1.00
N225   N     0.44852   0.43615   0.03872   0.00000  Uiso   1.00
O226   O     0.46162   0.39843   0.02977   0.00000  Uiso   1.00
O227   O     0.40322   0.44255   0.05084   0.00000  Uiso   1.00
N228   N     0.55148   0.56385   0.29461   0.00000  Uiso   1.00
O229   O     0.53838   0.60157   0.30356   0.00000  Uiso   1.00
O230   O     0.59678   0.55746   0.28249   0.00000  Uiso   1.00
O231   O     0.83333   0.43989   0.20625   0.00000  Uiso   1.00
O232   O     0.83334   0.56011   0.12709   0.00000  Uiso   1.00
O233   O     0.83333   0.43988   0.12706   0.00000  Uiso   1.00
O234   O     0.83334   0.56012   0.20628   0.00000  Uiso   1.00
C235   C     0.83452   0.42084   0.16649   0.00000  Uiso   1.00
C236   C     0.83215   0.57916   0.16685   0.00000  Uiso   1.00
O237   O     0.75828   0.50000   0.19712   0.00000  Uiso   1.00
O238   O     0.90839   0.50000   0.13621   0.00000  Uiso   1.00
O239   O     0.75828   0.49999   0.11793   0.00000  Uiso   1.00
O240   O     0.90839   0.50001   0.21540   0.00000  Uiso   1.00
C241   C     0.73461   0.49986   0.15454   0.00000  Uiso   1.00
C242   C     0.93205   0.50014   0.17879   0.00000  Uiso   1.00
Cu243  Cu    0.83333   0.50001   0.21355   0.00000  Uiso   1.00
Cu244  Cu    0.83333   0.49999   0.11978   0.00000  Uiso   1.00
N245   N     0.83335   0.50001   0.28403   0.00000  Uiso   1.00
N246   N     0.83332   0.49999   0.04931   0.00000  Uiso   1.00
C247   C     0.67921   0.49990   0.14797   0.00000  Uiso   1.00
C248   C     0.98746   0.50009   0.18537   0.00000  Uiso   1.00
C249   C     0.79976   0.35485   0.13370   0.00000  Uiso   1.00
C250   C     0.86690   0.64515   0.19964   0.00000  Uiso   1.00
H251   H     0.77231   0.37182   0.10965   0.00000  Uiso   1.00
H252   H     0.89435   0.62818   0.22369   0.00000  Uiso   1.00
C253   C     0.79652   0.64526   0.13394   0.00000  Uiso   1.00
C254   C     0.87014   0.35474   0.19939   0.00000  Uiso   1.00
C255   C     0.83077   0.62380   0.16725   0.00000  Uiso   1.00
C256   C     0.83589   0.37620   0.16608   0.00000  Uiso   1.00
C257   C     0.80828   0.46939   0.02021   0.00000  Uiso   1.00
C258   C     0.85838   0.53061   0.31313   0.00000  Uiso   1.00
C259   C     0.80857   0.46963   0.30426   0.00000  Uiso   1.00
C260   C     0.85810   0.53036   0.02907   0.00000  Uiso   1.00
H261   H     0.78840   0.44545   0.28224   0.00000  Uiso   1.00
H262   H     0.87827   0.55455   0.05109   0.00000  Uiso   1.00
H263   H     0.99234   0.49985   0.11217   0.00000  Uiso   1.00
H264   H     0.67433   0.50015   0.22117   0.00000  Uiso   1.00
N265   N     0.75727   0.62429   0.10162   0.00000  Uiso   1.00
O266   O     0.73142   0.59348   0.11547   0.00000  Uiso   1.00
O267   O     0.74243   0.63940   0.06026   0.00000  Uiso   1.00
N268   N     0.90938   0.37571   0.23173   0.00000  Uiso   1.00
O269   O     0.93525   0.40650   0.21787   0.00000  Uiso   1.00
O270   O     0.92418   0.36062   0.27310   0.00000  Uiso   1.00
N271   N     0.78185   0.43615   0.03872   0.00000  Uiso   1.00
O272   O     0.79495   0.39843   0.02977   0.00000  Uiso   1.00
O273   O     0.73655   0.44255   0.05084   0.00000  Uiso   1.00
N274   N     0.88481   0.56385   0.29461   0.00000  Uiso   1.00
O275   O     0.87171   0.60157   0.30356   0.00000  Uiso   1.00
O276   O     0.93011   0.55746   0.28249   0.00000  Uiso   1.00
O277   O     0.16666   0.77322   0.20625   0.00000  Uiso   1.00
O278   O     0.16667   0.89345   0.12709   0.00000  Uiso   1.00
O279   O     0.16666   0.77321   0.12706   0.00000  Uiso   1.00
O280   O     0.16667   0.89346   0.20628   0.00000  Uiso   1.00
C281   C     0.16785   0.75418   0.16649   0.00000  Uiso   1.00
C282   C     0.16548   0.91249   0.16685   0.00000  Uiso   1.00
O283   O     0.09161   0.83334   0.19712   0.00000  Uiso   1.00
O284   O     0.24172   0.83333   0.13621   0.00000  Uiso   1.00
O285   O     0.09161   0.83333   0.11793   0.00000  Uiso   1.00
O286   O     0.24172   0.83334   0.21540   0.00000  Uiso   1.00
C287   C     0.06795   0.83319   0.15454   0.00000  Uiso   1.00
C288   C     0.26539   0.83347   0.17879   0.00000  Uiso   1.00
Cu289  Cu    0.16667   0.83334   0.21355   0.00000  Uiso   1.00
Cu290  Cu    0.16667   0.83333   0.11978   0.00000  Uiso   1.00
N291   N     0.16668   0.83334   0.28403   0.00000  Uiso   1.00
N292   N     0.16665   0.83332   0.04931   0.00000  Uiso   1.00
C293   C     0.01254   0.83324   0.14797   0.00000  Uiso   1.00
C294   C     0.32079   0.83343   0.18537   0.00000  Uiso   1.00
C295   C     0.13310   0.68818   0.13370   0.00000  Uiso   1.00
C296   C     0.20023   0.97849   0.19964   0.00000  Uiso   1.00
H297   H     0.10565   0.70515   0.10965   0.00000  Uiso   1.00
H298   H     0.22768   0.96152   0.22369   0.00000  Uiso   1.00
C299   C     0.12985   0.97859   0.13394   0.00000  Uiso   1.00
C300   C     0.20348   0.68808   0.19939   0.00000  Uiso   1.00
C301   C     0.16410   0.95713   0.16725   0.00000  Uiso   1.00
C302   C     0.16923   0.70953   0.16608   0.00000  Uiso   1.00
C303   C     0.14162   0.80273   0.02021   0.00000  Uiso   1.00
C304   C     0.19172   0.86394   0.31313   0.00000  Uiso   1.00
C305   C     0.14190   0.80297   0.30426   0.00000  Uiso   1.00
C306   C     0.19143   0.86370   0.02907   0.00000  Uiso   1.00
H307   H     0.12173   0.77879   0.28224   0.00000  Uiso   1.00
H308   H     0.21160   0.88788   0.05109   0.00000  Uiso   1.00
H309   H     0.32567   0.83318   0.11217   0.00000  Uiso   1.00
H310   H     0.00766   0.83349   0.22117   0.00000  Uiso   1.00
N311   N     0.09061   0.95762   0.10162   0.00000  Uiso   1.00
O312   O     0.06476   0.92681   0.11547   0.00000  Uiso   1.00
O313   O     0.07576   0.97274   0.06026   0.00000  Uiso   1.00
N314   N     0.24271   0.70905   0.23173   0.00000  Uiso   1.00
O315   O     0.26859   0.73984   0.21787   0.00000  Uiso   1.00
O316   O     0.25751   0.69395   0.27310   0.00000  Uiso   1.00
N317   N     0.11518   0.76949   0.03872   0.00000  Uiso   1.00
O318   O     0.12829   0.73176   0.02977   0.00000  Uiso   1.00
O319   O     0.06988   0.77588   0.05084   0.00000  Uiso   1.00
N320   N     0.21815   0.89718   0.29461   0.00000  Uiso   1.00
O321   O     0.20504   0.93490   0.30356   0.00000  Uiso   1.00
O322   O     0.26344   0.89079   0.28249   0.00000  Uiso   1.00
O323   O     0.50000   0.77322   0.20625   0.00000  Uiso   1.00
O324   O     0.50000   0.89345   0.12709   0.00000  Uiso   1.00
O325   O     0.50000   0.77321   0.12706   0.00000  Uiso   1.00
O326   O     0.50000   0.89346   0.20628   0.00000  Uiso   1.00
C327   C     0.50119   0.75418   0.16649   0.00000  Uiso   1.00
C328   C     0.49881   0.91249   0.16685   0.00000  Uiso   1.00
O329   O     0.42495   0.83334   0.19712   0.00000  Uiso   1.00
O330   O     0.57505   0.83333   0.13621   0.00000  Uiso   1.00
O331   O     0.42494   0.83333   0.11793   0.00000  Uiso   1.00
O332   O     0.57506   0.83334   0.21540   0.00000  Uiso   1.00
C333   C     0.40128   0.83319   0.15454   0.00000  Uiso   1.00
C334   C     0.59872   0.83347   0.17879   0.00000  Uiso   1.00
Cu335  Cu    0.50000   0.83334   0.21355   0.00000  Uiso   1.00
Cu336  Cu    0.50000   0.83333   0.11978   0.00000  Uiso   1.00
N337   N     0.50001   0.83334   0.28403   0.00000  Uiso   1.00
N338   N     0.49999   0.83332   0.04931   0.00000  Uiso   1.00
C339   C     0.34587   0.83324   0.14797   0.00000  Uiso   1.00
C340   C     0.65413   0.83343   0.18537   0.00000  Uiso   1.00
C341   C     0.46643   0.68818   0.13370   0.00000  Uiso   1.00
C342   C     0.53356   0.97849   0.19964   0.00000  Uiso   1.00
H343   H     0.43898   0.70515   0.10965   0.00000  Uiso   1.00
H344   H     0.56101   0.96152   0.22369   0.00000  Uiso   1.00
C345   C     0.46318   0.97859   0.13394   0.00000  Uiso   1.00
C346   C     0.53681   0.68808   0.19939   0.00000  Uiso   1.00
C347   C     0.49744   0.95713   0.16725   0.00000  Uiso   1.00
C348   C     0.50256   0.70953   0.16608   0.00000  Uiso   1.00
C349   C     0.47495   0.80273   0.02021   0.00000  Uiso   1.00
C350   C     0.52505   0.86394   0.31313   0.00000  Uiso   1.00
C351   C     0.47523   0.80297   0.30426   0.00000  Uiso   1.00
C352   C     0.52477   0.86370   0.02907   0.00000  Uiso   1.00
H353   H     0.45507   0.77879   0.28224   0.00000  Uiso   1.00
H354   H     0.54493   0.88788   0.05109   0.00000  Uiso   1.00
H355   H     0.65900   0.83318   0.11217   0.00000  Uiso   1.00
H356   H     0.34100   0.83349   0.22117   0.00000  Uiso   1.00
N357   N     0.42394   0.95762   0.10162   0.00000  Uiso   1.00
O358   O     0.39809   0.92681   0.11547   0.00000  Uiso   1.00
O359   O     0.40909   0.97274   0.06026   0.00000  Uiso   1.00
N360   N     0.57604   0.70905   0.23173   0.00000  Uiso   1.00
O361   O     0.60192   0.73984   0.21787   0.00000  Uiso   1.00
O362   O     0.59084   0.69395   0.27310   0.00000  Uiso   1.00
N363   N     0.44852   0.76949   0.03872   0.00000  Uiso   1.00
O364   O     0.46162   0.73176   0.02977   0.00000  Uiso   1.00
O365   O     0.40322   0.77588   0.05084   0.00000  Uiso   1.00
N366   N     0.55148   0.89718   0.29461   0.00000  Uiso   1.00
O367   O     0.53838   0.93490   0.30356   0.00000  Uiso   1.00
O368   O     0.59678   0.89079   0.28249   0.00000  Uiso   1.00
O369   O     0.83333   0.77322   0.20625   0.00000  Uiso   1.00
O370   O     0.83334   0.89345   0.12709   0.00000  Uiso   1.00
O371   O     0.83333   0.77321   0.12706   0.00000  Uiso   1.00
O372   O     0.83334   0.89346   0.20628   0.00000  Uiso   1.00
C373   C     0.83452   0.75418   0.16649   0.00000  Uiso   1.00
C374   C     0.83215   0.91249   0.16685   0.00000  Uiso   1.00
O375   O     0.75828   0.83334   0.19712   0.00000  Uiso   1.00
O376   O     0.90839   0.83333   0.13621   0.00000  Uiso   1.00
O377   O     0.75828   0.83333   0.11793   0.00000  Uiso   1.00
O378   O     0.90839   0.83334   0.21540   0.00000  Uiso   1.00
C379   C     0.73461   0.83319   0.15454   0.00000  Uiso   1.00
C380   C     0.93205   0.83347   0.17879   0.00000  Uiso   1.00
Cu381  Cu    0.83333   0.83334   0.21355   0.00000  Uiso   1.00
Cu382  Cu    0.83333   0.83333   0.11978   0.00000  Uiso   1.00
N383   N     0.83335   0.83334   0.28403   0.00000  Uiso   1.00
N384   N     0.83332   0.83332   0.04931   0.00000  Uiso   1.00
C385   C     0.67921   0.83324   0.14797   0.00000  Uiso   1.00
C386   C     0.98746   0.83343   0.18537   0.00000  Uiso   1.00
C387   C     0.79976   0.68818   0.13370   0.00000  Uiso   1.00
C388   C     0.86690   0.97849   0.19964   0.00000  Uiso   1.00
H389   H     0.77231   0.70515   0.10965   0.00000  Uiso   1.00
H390   H     0.89435   0.96152   0.22369   0.00000  Uiso   1.00
C391   C     0.79652   0.97859   0.13394   0.00000  Uiso   1.00
C392   C     0.87014   0.68808   0.19939   0.00000  Uiso   1.00
C393   C     0.83077   0.95713   0.16725   0.00000  Uiso   1.00
C394   C     0.83589   0.70953   0.16608   0.00000  Uiso   1.00
C395   C     0.80828   0.80273   0.02021   0.00000  Uiso   1.00
C396   C     0.85838   0.86394   0.31313   0.00000  Uiso   1.00
C397   C     0.80857   0.80297   0.30426   0.00000  Uiso   1.00
C398   C     0.85810   0.86370   0.02907   0.00000  Uiso   1.00
H399   H     0.78840   0.77879   0.28224   0.00000  Uiso   1.00
H400   H     0.87827   0.88788   0.05109   0.00000  Uiso   1.00
H401   H     0.99234   0.83318   0.11217   0.00000  Uiso   1.00
H402   H     0.67433   0.83349   0.22117   0.00000  Uiso   1.00
N403   N     0.75727   0.95762   0.10162   0.00000  Uiso   1.00
O404   O     0.73142   0.92681   0.11547   0.00000  Uiso   1.00
O405   O     0.74243   0.97274   0.06026   0.00000  Uiso   1.00
N406   N     0.90938   0.70905   0.23173   0.00000  Uiso   1.00
O407   O     0.93525   0.73984   0.21787   0.00000  Uiso   1.00
O408   O     0.92418   0.69395   0.27310   0.00000  Uiso   1.00
N409   N     0.78185   0.76949   0.03872   0.00000  Uiso   1.00
O410   O     0.79495   0.73176   0.02977   0.00000  Uiso   1.00
O411   O     0.73655   0.77588   0.05084   0.00000  Uiso   1.00
N412   N     0.88481   0.89718   0.29461   0.00000  Uiso   1.00
O413   O     0.87171   0.93490   0.30356   0.00000  Uiso   1.00
O414   O     0.93011   0.89079   0.28249   0.00000  Uiso   1.00
O415   O     0.16666   0.10655   0.53958   0.00000  Uiso   1.00
O416   O     0.16667   0.22678   0.46042   0.00000  Uiso   1.00
O417   O     0.16666   0.10654   0.46039   0.00000  Uiso   1.00
O418   O     0.16667   0.22679   0.53961   0.00000  Uiso   1.00
C419   C     0.16785   0.08751   0.49982   0.00000  Uiso   1.00
C420   C     0.16548   0.24582   0.50018   0.00000  Uiso   1.00
O421   O     0.09161   0.16667   0.53046   0.00000  Uiso   1.00
O422   O     0.24172   0.16666   0.46954   0.00000  Uiso   1.00
O423   O     0.09161   0.16666   0.45127   0.00000  Uiso   1.00
O424   O     0.24172   0.16667   0.54873   0.00000  Uiso   1.00
C425   C     0.06795   0.16652   0.48788   0.00000  Uiso   1.00
C426   C     0.26539   0.16681   0.51212   0.00000  Uiso   1.00
Cu427  Cu    0.16667   0.16667   0.54689   0.00000  Uiso   1.00
Cu428  Cu    0.16667   0.16666   0.45311   0.00000  Uiso   1.00
N429   N     0.16668   0.16668   0.61736   0.00000  Uiso   1.00
N430   N     0.16665   0.16666   0.38264   0.00000  Uiso   1.00
C431   C     0.01254   0.16657   0.48130   0.00000  Uiso   1.00
C432   C     0.32079   0.16676   0.51870   0.00000  Uiso   1.00
C433   C     0.13310   0.02151   0.46703   0.00000  Uiso   1.00
C434   C     0.20023   0.31182   0.53297   0.00000  Uiso   1.00
H435   H     0.10565   0.03849   0.44298   0.00000  Uiso   1.00
H436   H     0.22768   0.29485   0.55702   0.00000  Uiso   1.00
C437   C     0.12985   0.31192   0.46727   0.00000  Uiso   1.00
C438   C     0.20348   0.02141   0.53273   0.00000  Uiso   1.00
C439   C     0.16410   0.29047   0.50058   0.00000  Uiso   1.00
C440   C     0.16923   0.04287   0.49942   0.00000  Uiso   1.00
C441   C     0.14162   0.13606   0.35354   0.00000  Uiso   1.00
C442   C     0.19172   0.19727   0.64646   0.00000  Uiso   1.00
C443   C     0.14190   0.13630   0.63759   0.00000  Uiso   1.00
C444   C     0.19143   0.19703   0.36241   0.00000  Uiso   1.00
H445   H     0.12173   0.11212   0.61557   0.00000  Uiso   1.00
H446   H     0.21160   0.22121   0.38443   0.00000  Uiso   1.00
H447   H     0.32567   0.16651   0.44550   0.00000  Uiso   1.00
H448   H     0.00766   0.16682   0.55450   0.00000  Uiso   1.00
N449   N     0.09061   0.29096   0.43495   0.00000  Uiso   1.00
O450   O     0.06476   0.26015   0.44880   0.00000  Uiso   1.00
O451   O     0.07576   0.30607   0.39360   0.00000  Uiso   1.00
N452   N     0.24271   0.04238   0.56506   0.00000  Uiso   1.00
O453   O     0.26859   0.07317   0.55121   0.00000  Uiso   1.00
O454   O     0.25751   0.02729   0.60643   0.00000  Uiso   1.00
N455   N     0.11518   0.10282   0.37206   0.00000  Uiso   1.00
O456   O     0.12829   0.06510   0.36311   0.00000  Uiso   1.00
O457   O     0.06988   0.10921   0.38417   0.00000  Uiso   1.00
N458   N     0.21815   0.23052   0.62794   0.00000  Uiso   1.00
O459   O     0.20504   0.26824   0.63690   0.00000  Uiso   1.00
O460   O     0.26344   0.22412   0.61582   0.00000  Uiso   1.00
O461   O     0.50000   0.10655   0.53958   0.00000  Uiso   1.00
O462   O     0.50000   0.22678   0.46042   0.00000  Uiso   1.00
O463   O     0.50000   0.10654   0.46039   0.00000  Uiso   1.00
O464   O     0.50000   0.22679   0.53961   0.00000  Uiso   1.00
C465   C     0.50119   0.08751   0.49982   0.00000  Uiso   1.00
C466   C     0.49881   0.24582   0.50018   0.00000  Uiso   1.00
O467   O     0.42495   0.16667   0.53046   0.00000  Uiso   1.00
O468   O     0.57505   0.16666   0.46954   0.00000  Uiso   1.00
O469   O     0.42494   0.16666   0.45127   0.00000  Uiso   1.00
O470   O     0.57506   0.16667   0.54873   0.00000  Uiso   1.00
C471   C     0.40128   0.16652   0.48788   0.00000  Uiso   1.00
C472   C     0.59872   0.16681   0.51212   0.00000  Uiso   1.00
Cu473  Cu    0.50000   0.16667   0.54689   0.00000  Uiso   1.00
Cu474  Cu    0.50000   0.16666   0.45311   0.00000  Uiso   1.00
N475   N     0.50001   0.16668   0.61736   0.00000  Uiso   1.00
N476   N     0.49999   0.16666   0.38264   0.00000  Uiso   1.00
C477   C     0.34587   0.16657   0.48130   0.00000  Uiso   1.00
C478   C     0.65413   0.16676   0.51870   0.00000  Uiso   1.00
C479   C     0.46643   0.02151   0.46703   0.00000  Uiso   1.00
C480   C     0.53356   0.31182   0.53297   0.00000  Uiso   1.00
H481   H     0.43898   0.03849   0.44298   0.00000  Uiso   1.00
H482   H     0.56101   0.29485   0.55702   0.00000  Uiso   1.00
C483   C     0.46318   0.31192   0.46727   0.00000  Uiso   1.00
C484   C     0.53681   0.02141   0.53273   0.00000  Uiso   1.00
C485   C     0.49744   0.29047   0.50058   0.00000  Uiso   1.00
C486   C     0.50256   0.04287   0.49942   0.00000  Uiso   1.00
C487   C     0.47495   0.13606   0.35354   0.00000  Uiso   1.00
C488   C     0.52505   0.19727   0.64646   0.00000  Uiso   1.00
C489   C     0.47523   0.13630   0.63759   0.00000  Uiso   1.00
C490   C     0.52477   0.19703   0.36241   0.00000  Uiso   1.00
H491   H     0.45507   0.11212   0.61557   0.00000  Uiso   1.00
H492   H     0.54493   0.22121   0.38443   0.00000  Uiso   1.00
H493   H     0.65900   0.16651   0.44550   0.00000  Uiso   1.00
H494   H     0.34100   0.16682   0.55450   0.00000  Uiso   1.00
N495   N     0.42394   0.29096   0.43495   0.00000  Uiso   1.00
O496   O     0.39809   0.26015   0.44880   0.00000  Uiso   1.00
O497   O     0.40909   0.30607   0.39360   0.00000  Uiso   1.00
N498   N     0.57604   0.04238   0.56506   0.00000  Uiso   1.00
O499   O     0.60192   0.07317   0.55121   0.00000  Uiso   1.00
O500   O     0.59084   0.02729   0.60643   0.00000  Uiso   1.00
N501   N     0.44852   0.10282   0.37206   0.00000  Uiso   1.00
O502   O     0.46162   0.06510   0.36311   0.00000  Uiso   1.00
O503   O     0.40322   0.10921   0.38417   0.00000  Uiso   1.00
N504   N     0.55148   0.23052   0.62794   0.00000  Uiso   1.00
O505   O     0.53838   0.26824   0.63690   0.00000  Uiso   1.00
O506   O     0.59678   0.22412   0.61582   0.00000  Uiso   1.00
O507   O     0.83333   0.10655   0.53958   0.00000  Uiso   1.00
O508   O     0.83334   0.22678   0.46042   0.00000  Uiso   1.00
O509   O     0.83333   0.10654   0.46039   0.00000  Uiso   1.00
O510   O     0.83334   0.22679   0.53961   0.00000  Uiso   1.00
C511   C     0.83452   0.08751   0.49982   0.00000  Uiso   1.00
C512   C     0.83215   0.24582   0.50018   0.00000  Uiso   1.00
O513   O     0.75828   0.16667   0.53046   0.00000  Uiso   1.00
O514   O     0.90839   0.16666   0.46954   0.00000  Uiso   1.00
O515   O     0.75828   0.16666   0.45127   0.00000  Uiso   1.00
O516   O     0.90839   0.16667   0.54873   0.00000  Uiso   1.00
C517   C     0.73461   0.16652   0.48788   0.00000  Uiso   1.00
C518   C     0.93205   0.16681   0.51212   0.00000  Uiso   1.00
Cu519  Cu    0.83333   0.16667   0.54689   0.00000  Uiso   1.00
Cu520  Cu    0.83333   0.16666   0.45311   0.00000  Uiso   1.00
N521   N     0.83335   0.16668   0.61736   0.00000  Uiso   1.00
N522   N     0.83332   0.16666   0.38264   0.00000  Uiso   1.00
C523   C     0.67921   0.16657   0.48130   0.00000  Uiso   1.00
C524   C     0.98746   0.16676   0.51870   0.00000  Uiso   1.00
C525   C     0.79976   0.02151   0.46703   0.00000  Uiso   1.00
C526   C     0.86690   0.31182   0.53297   0.00000  Uiso   1.00
H527   H     0.77231   0.03849   0.44298   0.00000  Uiso   1.00
H528   H     0.89435   0.29485   0.55702   0.00000  Uiso   1.00
C529   C     0.79652   0.31192   0.46727   0.00000  Uiso   1.00
C530   C     0.87014   0.02141   0.53273   0.00000  Uiso   1.00
C531   C     0.83077   0.29047   0.50058   0.00000  Uiso   1.00
C532   C     0.83589   0.04287   0.49942   0.00000  Uiso   1.00
C533   C     0.80828   0.13606   0.35354   0.00000  Uiso   1.00
C534   C     0.85838   0.19727   0.64646   0.00000  Uiso   1.00
C535   C     0.80857   0.13630   0.63759   0.00000  Uiso   1.00
C536   C     0.85810   0.19703   0.36241   0.00000  Uiso   1.00
H537   H     0.78840   0.11212   0.61557   0.00000  Uiso   1.00
H538   H     0.87827   0.22121   0.38443   0.00000  Uiso   1.00
H539   H     0.99234   0.16651   0.44550   0.00000  Uiso   1.00
H540   H     0.67433   0.16682   0.55450   0.00000  Uiso   1.00
N541   N     0.75727   0.29096   0.43495   0.00000  Uiso   1.00
O542   O     0.73142   0.26015   0.44880   0.00000  Uiso   1.00
O543   O     0.74243   0.30607   0.39360   0.00000  Uiso   1.00
N544   N     0.90938   0.04238   0.56506   0.00000  Uiso   1.00
O545   O     0.93525   0.07317   0.55121   0.00000  Uiso   1.00
O546   O     0.92418   0.02729   0.60643   0.00000  Uiso   1.00
N547   N     0.78185   0.10282   0.37206   0.00000  Uiso   1.00
O548   O     0.79495   0.06510   0.36311   0.00000  Uiso   1.00
O549   O     0.73655   0.10921   0.38417   0.00000  Uiso   1.00
N550   N     0.88481   0.23052   0.62794   0.00000  Uiso   1.00
O551   O     0.87171   0.26824   0.63690   0.00000  Uiso   1.00
O552   O     0.93011   0.22412   0.61582   0.00000  Uiso   1.00
O553   O     0.16666   0.43989   0.53958   0.00000  Uiso   1.00
O554   O     0.16667   0.56011   0.46042   0.00000  Uiso   1.00
O555   O     0.16666   0.43988   0.46039   0.00000  Uiso   1.00
O556   O     0.16667   0.56012   0.53961   0.00000  Uiso   1.00
C557   C     0.16785   0.42084   0.49982   0.00000  Uiso   1.00
C558   C     0.16548   0.57916   0.50018   0.00000  Uiso   1.00
O559   O     0.09161   0.50000   0.53046   0.00000  Uiso   1.00
O560   O     0.24172   0.50000   0.46954   0.00000  Uiso   1.00
O561   O     0.09161   0.49999   0.45127   0.00000  Uiso   1.00
O562   O     0.24172   0.50001   0.54873   0.00000  Uiso   1.00
C563   C     0.06795   0.49986   0.48788   0.00000  Uiso   1.00
C564   C     0.26539   0.50014   0.51212   0.00000  Uiso   1.00
Cu565  Cu    0.16667   0.50001   0.54689   0.00000  Uiso   1.00
Cu566  Cu    0.16667   0.49999   0.45311   0.00000  Uiso   1.00
N567   N     0.16668   0.50001   0.61736   0.00000  Uiso   1.00
N568   N     0.16665   0.49999   0.38264   0.00000  Uiso   1.00
C569   C     0.01254   0.49990   0.48130   0.00000  Uiso   1.00
C570   C     0.32079   0.50009   0.51870   0.00000  Uiso   1.00
C571   C     0.13310   0.35485   0.46703   0.00000  Uiso   1.00
C572   C     0.20023   0.64515   0.53297   0.00000  Uiso   1.00
H573   H     0.10565   0.37182   0.44298   0.00000  Uiso   1.00
H574   H     0.22768   0.62818   0.55702   0.00000  Uiso   1.00
C575   C     0.12985   0.64526   0.46727   0.00000  Uiso   1.00
C576   C     0.20348   0.35474   0.53273   0.00000  Uiso   1.00
C577   C     0.16410   0.62380   0.50058   0.00000  Uiso   1.00
C578   C     0.16923   0.37620   0.49942   0.00000  Uiso   1.00
C579   C     0.14162   0.46939   0.35354   0.00000  Uiso   1.00
C580   C     0.19172   0.53061   0.64646   0.00000  Uiso   1.00
C581   C     0.14190   0.46963   0.63759   0.00000  Uiso   1.00
C582   C     0.19143   0.53036   0.36241   0.00000  Uiso   1.00
H583   H     0.12173   0.44545   0.61557   0.00000  Uiso   1.00
H584   H     0.21160   0.55455   0.38443   0.00000  Uiso   1.00
H585   H     0.32567   0.49985   0.44550   0.00000  Uiso   1.00
H586   H     0.00766   0.50015   0.55450   0.00000  Uiso   1.00
N587   N     0.09061   0.62429   0.43495   0.00000  Uiso   1.00
O588   O     0.06476   0.59348   0.44880   0.00000  Uiso   1.00
O589   O     0.07576   0.63940   0.39360   0.00000  Uiso   1.00
N590   N     0.24271   0.37571   0.56506   0.00000  Uiso   1.00
O591   O     0.26859   0.40650   0.55121   0.00000  Uiso   1.00
O592   O     0.25751   0.36062   0.60643   0.00000  Uiso   1.00
N593   N     0.11518   0.43615   0.37206   0.00000  Uiso   1.00
O594   O     0.12829   0.39843   0.36311   0.00000  Uiso   1.00
O595   O     0.06988   0.44255   0.38417   0.00000  Uiso   1.00
N596   N     0.21815   0.56385   0.62794   0.00000  Uiso   1.00
O597   O     0.20504   0.60157   0.63690   0.00000  Uiso   1.00
O598   O     0.26344   0.55746   0.61582   0.00000  Uiso   1.00
O599   O     0.50000   0.43989   0.53958   0.00000  Uiso   1.00
O600   O     0.50000   0.56011   0.46042   0.00000  Uiso   1.00
O601   O     0.50000   0.43988   0.46039   0.00000  Uiso   1.00
O602   O     0.50000   0.56012   0.53961   0.00000  Uiso   1.00
C603   C     0.50119   0.42084   0.49982   0.00000  Uiso   1.00
C604   C     0.49881   0.57916   0.50018   0.00000  Uiso   1.00
O605   O     0.42495   0.50000   0.53046   0.00000  Uiso   1.00
O606   O     0.57505   0.50000   0.46954   0.00000  Uiso   1.00
O607   O     0.42494   0.49999   0.45127   0.00000  Uiso   1.00
O608   O     0.57506   0.50001   0.54873   0.00000  Uiso   1.00
C609   C     0.40128   0.49986   0.48788   0.00000  Uiso   1.00
C610   C     0.59872   0.50014   0.51212   0.00000  Uiso   1.00
Cu611  Cu    0.50000   0.50001   0.54689   0.00000  Uiso   1.00
Cu612  Cu    0.50000   0.49999   0.45311   0.00000  Uiso   1.00
N613   N     0.50001   0.50001   0.61736   0.00000  Uiso   1.00
N614   N     0.49999   0.49999   0.38264   0.00000  Uiso   1.00
C615   C     0.34587   0.49990   0.48130   0.00000  Uiso   1.00
C616   C     0.65413   0.50009   0.51870   0.00000  Uiso   1.00
C617   C     0.46643   0.35485   0.46703   0.00000  Uiso   1.00
C618   C     0.53356   0.64515   0.53297   0.00000  Uiso   1.00
H619   H     0.43898   0.37182   0.44298   0.00000  Uiso   1.00
H620   H     0.56101   0.62818   0.55702   0.00000  Uiso   1.00
C621   C     0.46318   0.64526   0.46727   0.00000  Uiso   1.00
C622   C     0.53681   0.35474   0.53273   0.00000  Uiso   1.00
C623   C     0.49744   0.62380   0.50058   0.00000  Uiso   1.00
C624   C     0.50256   0.37620   0.49942   0.00000  Uiso   1.00
C625   C     0.47495   0.46939   0.35354   0.00000  Uiso   1.00
C626   C     0.52505   0.53061   0.64646   0.00000  Uiso   1.00
C627   C     0.47523   0.46963   0.63759   0.00000  Uiso   1.00
C628   C     0.52477   0.53036   0.36241   0.00000  Uiso   1.00
H629   H     0.45507   0.44545   0.61557   0.00000  Uiso   1.00
H630   H     0.54493   0.55455   0.38443   0.00000  Uiso   1.00
H631   H     0.65900   0.49985   0.44550   0.00000  Uiso   1.00
H632   H     0.34100   0.50015   0.55450   0.00000  Uiso   1.00
N633   N     0.42394   0.62429   0.43495   0.00000  Uiso   1.00
O634   O     0.39809   0.59348   0.44880   0.00000  Uiso   1.00
O635   O     0.40909   0.63940   0.39360   0.00000  Uiso   1.00
N636   N     0.57604   0.37571   0.56506   0.00000  Uiso   1.00
O637   O     0.60192   0.40650   0.55121   0.00000  Uiso   1.00
O638   O     0.59084   0.36062   0.60643   0.00000  Uiso   1.00
N639   N     0.44852   0.43615   0.37206   0.00000  Uiso   1.00
O640   O     0.46162   0.39843   0.36311   0.00000  Uiso   1.00
O641   O     0.40322   0.44255   0.38417   0.00000  Uiso   1.00
N642   N     0.55148   0.56385   0.62794   0.00000  Uiso   1.00
O643   O     0.53838   0.60157   0.63690   0.00000  Uiso   1.00
O644   O     0.59678   0.55746   0.61582   0.00000  Uiso   1.00
O645   O     0.83333   0.43989   0.53958   0.00000  Uiso   1.00
O646   O     0.83334   0.56011   0.46042   0.00000  Uiso   1.00
O647   O     0.83333   0.43988   0.46039   0.00000  Uiso   1.00
O648   O     0.83334   0.56012   0.53961   0.00000  Uiso   1.00
C649   C     0.83452   0.42084   0.49982   0.00000  Uiso   1.00
C650   C     0.83215   0.57916   0.50018   0.00000  Uiso   1.00
O651   O     0.75828   0.50000   0.53046   0.00000  Uiso   1.00
O652   O     0.90839   0.50000   0.46954   0.00000  Uiso   1.00
O653   O     0.75828   0.49999   0.45127   0.00000  Uiso   1.00
O654   O     0.90839   0.50001   0.54873   0.00000  Uiso   1.00
C655   C     0.73461   0.49986   0.48788   0.00000  Uiso   1.00
C656   C     0.93205   0.50014   0.51212   0.00000  Uiso   1.00
Cu657  Cu    0.83333   0.50001   0.54689   0.00000  Uiso   1.00
Cu658  Cu    0.83333   0.49999   0.45311   0.00000  Uiso   1.00
N659   N     0.83335   0.50001   0.61736   0.00000  Uiso   1.00
N660   N     0.83332   0.49999   0.38264   0.00000  Uiso   1.00
C661   C     0.67921   0.49990   0.48130   0.00000  Uiso   1.00
C662   C     0.98746   0.50009   0.51870   0.00000  Uiso   1.00
C663   C     0.79976   0.35485   0.46703   0.00000  Uiso   1.00
C664   C     0.86690   0.64515   0.53297   0.00000  Uiso   1.00
H665   H     0.77231   0.37182   0.44298   0.00000  Uiso   1.00
H666   H     0.89435   0.62818   0.55702   0.00000  Uiso   1.00
C667   C     0.79652   0.64526   0.46727   0.00000  Uiso   1.00
C668   C     0.87014   0.35474   0.53273   0.00000  Uiso   1.00
C669   C     0.83077   0.62380   0.50058   0.00000  Uiso   1.00
C670   C     0.83589   0.37620   0.49942   0.00000  Uiso   1.00
C671   C     0.80828   0.46939   0.35354   0.00000  Uiso   1.00
C672   C     0.85838   0.53061   0.64646   0.00000  Uiso   1.00
C673   C     0.80857   0.46963   0.63759   0.00000  Uiso   1.00
C674   C     0.85810   0.53036   0.36241   0.00000  Uiso   1.00
H675   H     0.78840   0.44545   0.61557   0.00000  Uiso   1.00
H676   H     0.87827   0.55455   0.38443   0.00000  Uiso   1.00
H677   H     0.99234   0.49985   0.44550   0.00000  Uiso   1.00
H678   H     0.67433   0.50015   0.55450   0.00000  Uiso   1.00
N679   N     0.75727   0.62429   0.43495   0.00000  Uiso   1.00
O680   O     0.73142   0.59348   0.44880   0.00000  Uiso   1.00
O681   O     0.74243   0.63940   0.39360   0.00000  Uiso   1.00
N682   N     0.90938   0.37571   0.56506   0.00000  Uiso   1.00
O683   O     0.93525   0.40650   0.55121   0.00000  Uiso   1.00
O684   O     0.92418   0.36062   0.60643   0.00000  Uiso   1.00
N685   N     0.78185   0.43615   0.37206   0.00000  Uiso   1.00
O686   O     0.79495   0.39843   0.36311   0.00000  Uiso   1.00
O687   O     0.73655   0.44255   0.38417   0.00000  Uiso   1.00
N688   N     0.88481   0.56385   0.62794   0.00000  Uiso   1.00
O689   O     0.87171   0.60157   0.63690   0.00000  Uiso   1.00
O690   O     0.93011   0.55746   0.61582   0.00000  Uiso   1.00
O691   O     0.16666   0.77322   0.53958   0.00000  Uiso   1.00
O692   O     0.16667   0.89345   0.46042   0.00000  Uiso   1.00
O693   O     0.16666   0.77321   0.46039   0.00000  Uiso   1.00
O694   O     0.16667   0.89346   0.53961   0.00000  Uiso   1.00
C695   C     0.16785   0.75418   0.49982   0.00000  Uiso   1.00
C696   C     0.16548   0.91249   0.50018   0.00000  Uiso   1.00
O697   O     0.09161   0.83334   0.53046   0.00000  Uiso   1.00
O698   O     0.24172   0.83333   0.46954   0.00000  Uiso   1.00
O699   O     0.09161   0.83333   0.45127   0.00000  Uiso   1.00
O700   O     0.24172   0.83334   0.54873   0.00000  Uiso   1.00
C701   C     0.06795   0.83319   0.48788   0.00000  Uiso   1.00
C702   C     0.26539   0.83347   0.51212   0.00000  Uiso   1.00
Cu703  Cu    0.16667   0.83334   0.54689   0.00000  Uiso   1.00
Cu704  Cu    0.16667   0.83333   0.45311   0.00000  Uiso   1.00
N705   N     0.16668   0.83334   0.61736   0.00000  Uiso   1.00
N706   N     0.16665   0.83332   0.38264   0.00000  Uiso   1.00
C707   C     0.01254   0.83324   0.48130   0.00000  Uiso   1.00
C708   C     0.32079   0.83343   0.51870   0.00000  Uiso   1.00
C709   C     0.13310   0.68818   0.46703   0.00000  Uiso   1.00
C710   C     0.20023   0.97849   0.53297   0.00000  Uiso   1.00
H711   H     0.10565   0.70515   0.44298   0.00000  Uiso   1.00
H712   H     0.22768   0.96152   0.55702   0.00000  Uiso   1.00
C713   C     0.12985   0.97859   0.46727   0.00000  Uiso   1.00
C714   C     0.20348   0.68808   0.53273   0.00000  Uiso   1.00
C715   C     0.16410   0.95713   0.50058   0.00000  Uiso   1.00
C716   C     0.16923   0.70953   0.49942   0.00000  Uiso   1.00
C717   C     0.14162   0.80273   0.35354   0.00000  Uiso   1.00
C718   C     0.19172   0.86394   0.64646   0.00000  Uiso   1.00
C719   C     0.14190   0.80297   0.63759   0.00000  Uiso   1.00
C720   C     0.19143   0.86370   0.36241   0.00000  Uiso   1.00
H721   H     0.12173   0.77879   0.61557   0.00000  Uiso   1.00
H722   H     0.21160   0.88788   0.38443   0.00000  Uiso   1.00
H723   H     0.32567   0.83318   0.44550   0.00000  Uiso   1.00
H724   H     0.00766   0.83349   0.55450   0.00000  Uiso   1.00
N725   N     0.09061   0.95762   0.43495   0.00000  Uiso   1.00
O726   O     0.06476   0.92681   0.44880   0.00000  Uiso   1.00
O727   O     0.07576   0.97274   0.39360   0.00000  Uiso   1.00
N728   N     0.24271   0.70905   0.56506   0.00000  Uiso   1.00
O729   O     0.26859   0.73984   0.55121   0.00000  Uiso   1.00
O730   O     0.25751   0.69395   0.60643   0.00000  Uiso   1.00
N731   N     0.11518   0.76949   0.37206   0.00000  Uiso   1.00
O732   O     0.12829   0.73176   0.36311   0.00000  Uiso   1.00
O733   O     0.06988   0.77588   0.38417   0.00000  Uiso   1.00
N734   N     0.21815   0.89718   0.62794   0.00000  Uiso   1.00
O735   O     0.20504   0.93490   0.63690   0.00000  Uiso   1.00
O736   O     0.26344   0.89079   0.61582   0.00000  Uiso   1.00
O737   O     0.50000   0.77322   0.53958   0.00000  Uiso   1.00
O738   O     0.50000   0.89345   0.46042   0.00000  Uiso   1.00
O739   O     0.50000   0.77321   0.46039   0.00000  Uiso   1.00
O740   O     0.50000   0.89346   0.53961   0.00000  Uiso   1.00
C741   C     0.50119   0.75418   0.49982   0.00000  Uiso   1.00
C742   C     0.49881   0.91249   0.50018   0.00000  Uiso   1.00
O743   O     0.42495   0.83334   0.53046   0.00000  Uiso   1.00
O744   O     0.57505   0.83333   0.46954   0.00000  Uiso   1.00
O745   O     0.42494   0.83333   0.45127   0.00000  Uiso   1.00
O746   O     0.57506   0.83334   0.54873   0.00000  Uiso   1.00
C747   C     0.40128   0.83319   0.48788   0.00000  Uiso   1.00
C748   C     0.59872   0.83347   0.51212   0.00000  Uiso   1.00
Cu749  Cu    0.50000   0.83334   0.54689   0.00000  Uiso   1.00
Cu750  Cu    0.50000   0.83333   0.45311   0.00000  Uiso   1.00
N751   N     0.50001   0.83334   0.61736   0.00000  Uiso   1.00
N752   N     0.49999   0.83332   0.38264   0.00000  Uiso   1.00
C753   C     0.34587   0.83324   0.48130   0.00000  Uiso   1.00
C754   C     0.65413   0.83343   0.51870   0.00000  Uiso   1.00
C755   C     0.46643   0.68818   0.46703   0.00000  Uiso   1.00
C756   C     0.53356   0.97849   0.53297   0.00000  Uiso   1.00
H757   H     0.43898   0.70515   0.44298   0.00000  Uiso   1.00
H758   H     0.56101   0.96152   0.55702   0.00000  Uiso   1.00
C759   C     0.46318   0.97859   0.46727   0.00000  Uiso   1.00
C760   C     0.53681   0.68808   0.53273   0.00000  Uiso   1.00
C761   C     0.49744   0.95713   0.50058   0.00000  Uiso   1.00
C762   C     0.50256   0.70953   0.49942   0.00000  Uiso   1.00
C763   C     0.47495   0.80273   0.35354   0.00000  Uiso   1.00
C764   C     0.52505   0.86394   0.64646   0.00000  Uiso   1.00
C765   C     0.47523   0.80297   0.63759   0.00000  Uiso   1.00
C766   C     0.52477   0.86370   0.36241   0.00000  Uiso   1.00
H767   H     0.45507   0.77879   0.61557   0.00000  Uiso   1.00
H768   H     0.54493   0.88788   0.38443   0.00000  Uiso   1.00
H769   H     0.65900   0.83318   0.44550   0.00000  Uiso   1.00
H770   H     0.34100   0.83349   0.55450   0.00000  Uiso   1.00
N771   N     0.42394   0.95762   0.43495   0.00000  Uiso   1.00
O772   O     0.39809   0.92681   0.44880   0.00000  Uiso   1.00
O773   O     0.40909   0.97274   0.39360   0.00000  Uiso   1.00
N774   N     0.57604   0.70905   0.56506   0.00000  Uiso   1.00
O775   O     0.60192   0.73984   0.55121   0.00000  Uiso   1.00
O776   O     0.59084   0.69395   0.60643   0.00000  Uiso   1.00
N777   N     0.44852   0.76949   0.37206   0.00000  Uiso   1.00
O778   O     0.46162   0.73176   0.36311   0.00000  Uiso   1.00
O779   O     0.40322   0.77588   0.38417   0.00000  Uiso   1.00
N780   N     0.55148   0.89718   0.62794   0.00000  Uiso   1.00
O781   O     0.53838   0.93490   0.63690   0.00000  Uiso   1.00
O782   O     0.59678   0.89079   0.61582   0.00000  Uiso   1.00
O783   O     0.83333   0.77322   0.53958   0.00000  Uiso   1.00
O784   O     0.83334   0.89345   0.46042   0.00000  Uiso   1.00
O785   O     0.83333   0.77321   0.46039   0.00000  Uiso   1.00
O786   O     0.83334   0.89346   0.53961   0.00000  Uiso   1.00
C787   C     0.83452   0.75418   0.49982   0.00000  Uiso   1.00
C788   C     0.83215   0.91249   0.50018   0.00000  Uiso   1.00
O789   O     0.75828   0.83334   0.53046   0.00000  Uiso   1.00
O790   O     0.90839   0.83333   0.46954   0.00000  Uiso   1.00
O791   O     0.75828   0.83333   0.45127   0.00000  Uiso   1.00
O792   O     0.90839   0.83334   0.54873   0.00000  Uiso   1.00
C793   C     0.73461   0.83319   0.48788   0.00000  Uiso   1.00
C794   C     0.93205   0.83347   0.51212   0.00000  Uiso   1.00
Cu795  Cu    0.83333   0.83334   0.54689   0.00000  Uiso   1.00
Cu796  Cu    0.83333   0.83333   0.45311   0.00000  Uiso   1.00
N797   N     0.83335   0.83334   0.61736   0.00000  Uiso   1.00
N798   N     0.83332   0.83332   0.38264   0.00000  Uiso   1.00
C799   C     0.67921   0.83324   0.48130   0.00000  Uiso   1.00
C800   C     0.98746   0.83343   0.51870   0.00000  Uiso   1.00
C801   C     0.79976   0.68818   0.46703   0.00000  Uiso   1.00
C802   C     0.86690   0.97849   0.53297   0.00000  Uiso   1.00
H803   H     0.77231   0.70515   0.44298   0.00000  Uiso   1.00
H804   H     0.89435   0.96152   0.55702   0.00000  Uiso   1.00
C805   C     0.79652   0.97859   0.46727   0.00000  Uiso   1.00
C806   C     0.87014   0.68808   0.53273   0.00000  Uiso   1.00
C807   C     0.83077   0.95713   0.50058   0.00000  Uiso   1.00
C808   C     0.83589   0.70953   0.49942   0.00000  Uiso   1.00
C809   C     0.80828   0.80273   0.35354   0.00000  Uiso   1.00
C810   C     0.85838   0.86394   0.64646   0.00000  Uiso   1.00
C811   C     0.80857   0.80297   0.63759   0.00000  Uiso   1.00
C812   C     0.85810   0.86370   0.36241   0.00000  Uiso   1.00
H813   H     0.78840   0.77879   0.61557   0.00000  Uiso   1.00
H814   H     0.87827   0.88788   0.38443   0.00000  Uiso   1.00
H815   H     0.99234   0.83318   0.44550   0.00000  Uiso   1.00
H816   H     0.67433   0.83349   0.55450   0.00000  Uiso   1.00
N817   N     0.75727   0.95762   0.43495   0.00000  Uiso   1.00
O818   O     0.73142   0.92681   0.44880   0.00000  Uiso   1.00
O819   O     0.74243   0.97274   0.39360   0.00000  Uiso   1.00
N820   N     0.90938   0.70905   0.56506   0.00000  Uiso   1.00
O821   O     0.93525   0.73984   0.55121   0.00000  Uiso   1.00
O822   O     0.92418   0.69395   0.60643   0.00000  Uiso   1.00
N823   N     0.78185   0.76949   0.37206   0.00000  Uiso   1.00
O824   O     0.79495   0.73176   0.36311   0.00000  Uiso   1.00
O825   O     0.73655   0.77588   0.38417   0.00000  Uiso   1.00
N826   N     0.88481   0.89718   0.62794   0.00000  Uiso   1.00
O827   O     0.87171   0.93490   0.63690   0.00000  Uiso   1.00
O828   O     0.93011   0.89079   0.61582   0.00000  Uiso   1.00
O829   O     0.16666   0.10655   0.87291   0.00000  Uiso   1.00
O830   O     0.16667   0.22678   0.79375   0.00000  Uiso   1.00
O831   O     0.16666   0.10654   0.79372   0.00000  Uiso   1.00
O832   O     0.16667   0.22679   0.87294   0.00000  Uiso   1.00
C833   C     0.16785   0.08751   0.83315   0.00000  Uiso   1.00
C834   C     0.16548   0.24582   0.83351   0.00000  Uiso   1.00
O835   O     0.09161   0.16667   0.86379   0.00000  Uiso   1.00
O836   O     0.24172   0.16666   0.80288   0.00000  Uiso   1.00
O837   O     0.09161   0.16666   0.78460   0.00000  Uiso   1.00
O838   O     0.24172   0.16667   0.88207   0.00000  Uiso   1.00
C839   C     0.06795   0.16652   0.82121   0.00000  Uiso   1.00
C840   C     0.26539   0.16681   0.84546   0.00000  Uiso   1.00
Cu841  Cu    0.16667   0.16667   0.88022   0.00000  Uiso   1.00
Cu842  Cu    0.16667   0.16666   0.78645   0.00000  Uiso   1.00
N843   N     0.16668   0.16668   0.95069   0.00000  Uiso   1.00
N844   N     0.16665   0.16666   0.71597   0.00000  Uiso   1.00
C845   C     0.01254   0.16657   0.81463   0.00000  Uiso   1.00
C846   C     0.32079   0.16676   0.85203   0.00000  Uiso   1.00
C847   C     0.13310   0.02151   0.80036   0.00000  Uiso   1.00
C848   C     0.20023   0.31182   0.86631   0.00000  Uiso   1.00
H849   H     0.10565   0.03849   0.77632   0.00000  Uiso   1.00
H850   H     0.22768   0.29485   0.89035   0.00000  Uiso   1.00
C851   C     0.12985   0.31192   0.80061   0.00000  Uiso   1.00
C852   C     0.20348   0.02141   0.86606   0.00000  Uiso   1.00
C853   C     0.16410   0.29047   0.83392   0.00000  Uiso   1.00
C854   C     0.16923   0.04287   0.83275   0.00000  Uiso   1.00
C855   C     0.14162   0.13606   0.68687   0.00000  Uiso   1.00
C856   C     0.19172   0.19727   0.97979   0.00000  Uiso   1.00
C857   C     0.14190   0.13630   0.97093   0.00000  Uiso   1.00
C858   C     0.19143   0.19703   0.69574   0.00000  Uiso   1.00
H859   H     0.12173   0.11212   0.94891   0.00000  Uiso   1.00
H860   H     0.21160   0.22121   0.71776   0.00000  Uiso   1.00
H861   H     0.32567   0.16651   0.77883   0.00000  Uiso   1.00
H862   H     0.00766   0.16682   0.88783   0.00000  Uiso   1.00
N863   N     0.09061   0.29096   0.76828   0.00000  Uiso   1.00
O864   O     0.06476   0.26015   0.78213   0.00000  Uiso   1.00
O865   O     0.07576   0.30607   0.72693   0.00000  Uiso   1.00
N866   N     0.24271   0.04238   0.89839   0.00000  Uiso   1.00
O867   O     0.26859   0.07317   0.88454   0.00000  Uiso   1.00
O868   O     0.25751   0.02729   0.93977   0.00000  Uiso   1.00
N869   N     0.11518   0.10282   0.70539   0.00000  Uiso   1.00
O870   O     0.12829   0.06510   0.69644   0.00000  Uiso   1.00
O871   O     0.06988   0.10921   0.71751   0.00000  Uiso   1.00
N872   N     0.21815   0.23052   0.96128   0.00000  Uiso   1.00
O873   O     0.20504   0.26824   0.97023   0.00000  Uiso   1.00
O874   O     0.26344   0.22412   0.94915   0.00000  Uiso   1.00
O875   O     0.50000   0.10655   0.87291   0.00000  Uiso   1.00
O876   O     0.50000   0.22678   0.79375   0.00000  Uiso   1.00
O877   O     0.50000   0.10654   0.79372   0.00000  Uiso   1.00
O878   O     0.50000   0.22679   0.87294   0.00000  Uiso   1.00
C879   C     0.50119   0.08751   0.83315   0.00000  Uiso   1.00
C880   C     0.49881   0.24582   0.83351   0.00000  Uiso   1.00
O881   O     0.42495   0.16667   0.86379   0.00000  Uiso   1.00
O882   O     0.57505   0.16666   0.80288   0.00000  Uiso   1.00
O883   O     0.42494   0.16666   0.78460   0.00000  Uiso   1.00
O884   O     0.57506   0.16667   0.88207   0.00000  Uiso   1.00
C885   C     0.40128   0.16652   0.82121   0.00000  Uiso   1.00
C886   C     0.59872   0.16681   0.84546   0.00000  Uiso   1.00
Cu887  Cu    0.50000   0.16667   0.88022   0.00000  Uiso   1.00
Cu888  Cu    0.50000   0.16666   0.78645   0.00000  Uiso   1.00
N889   N     0.50001   0.16668   0.95069   0.00000  Uiso   1.00
N890   N     0.49999   0.16666   0.71597   0.00000  Uiso   1.00
C891   C     0.34587   0.16657   0.81463   0.00000  Uiso   1.00
C892   C     0.65413   0.16676   0.85203   0.00000  Uiso   1.00
C893   C     0.46643   0.02151   0.80036   0.00000  Uiso   1.00
C894   C     0.53356   0.31182   0.86631   0.00000  Uiso   1.00
H895   H     0.43898   0.03849   0.77632   0.00000  Uiso   1.00
H896   H     0.56101   0.29485   0.89035   0.00000  Uiso   1.00
C897   C     0.46318   0.31192   0.80061   0.00000  Uiso   1.00
C898   C     0.53681   0.02141   0.86606   0.00000  Uiso   1.00
C899   C     0.49744   0.29047   0.83392   0.00000  Uiso   1.00
C900   C     0.50256   0.04287   0.83275   0.00000  Uiso   1.00
C901   C     0.47495   0.13606   0.68687   0.00000  Uiso   1.00
C902   C     0.52505   0.19727   0.97979   0.00000  Uiso   1.00
C903   C     0.47523   0.13630   0.97093   0.00000  Uiso   1.00
C904   C     0.52477   0.19703   0.69574   0.00000  Uiso   1.00
H905   H     0.45507   0.11212   0.94891   0.00000  Uiso   1.00
H906   H     0.54493   0.22121   0.71776   0.00000  Uiso   1.00
H907   H     0.65900   0.16651   0.77883   0.00000  Uiso   1.00
H908   H     0.34100   0.16682   0.88783   0.00000  Uiso   1.00
N909   N     0.42394   0.29096   0.76828   0.00000  Uiso   1.00
O910   O     0.39809   0.26015   0.78213   0.00000  Uiso   1.00
O911   O     0.40909   0.30607   0.72693   0.00000  Uiso   1.00
N912   N     0.57604   0.04238   0.89839   0.00000  Uiso   1.00
O913   O     0.60192   0.07317   0.88454   0.00000  Uiso   1.00
O914   O     0.59084   0.02729   0.93977   0.00000  Uiso   1.00
N915   N     0.44852   0.10282   0.70539   0.00000  Uiso   1.00
O916   O     0.46162   0.06510   0.69644   0.00000  Uiso   1.00
O917   O     0.40322   0.10921   0.71751   0.00000  Uiso   1.00
N918   N     0.55148   0.23052   0.96128   0.00000  Uiso   1.00
O919   O     0.53838   0.26824   0.97023   0.00000  Uiso   1.00
O920   O     0.59678   0.22412   0.94915   0.00000  Uiso   1.00
O921   O     0.83333   0.10655   0.87291   0.00000  Uiso   1.00
O922   O     0.83334   0.22678   0.79375   0.00000  Uiso   1.00
O923   O     0.83333   0.10654   0.79372   0.00000  Uiso   1.00
O924   O     0.83334   0.22679   0.87294   0.00000  Uiso   1.00
C925   C     0.83452   0.08751   0.83315   0.00000  Uiso   1.00
C926   C     0.83215   0.24582   0.83351   0.00000  Uiso   1.00
O927   O     0.75828   0.16667   0.86379   0.00000  Uiso   1.00
O928   O     0.90839   0.16666   0.80288   0.00000  Uiso   1.00
O929   O     0.75828   0.16666   0.78460   0.00000  Uiso   1.00
O930   O     0.90839   0.16667   0.88207   0.00000  Uiso   1.00
C931   C     0.73461   0.16652   0.82121   0.00000  Uiso   1.00
C932   C     0.93205   0.16681   0.84546   0.00000  Uiso   1.00
Cu933  Cu    0.83333   0.16667   0.88022   0.00000  Uiso   1.00
Cu934  Cu    0.83333   0.16666   0.78645   0.00000  Uiso   1.00
N935   N     0.83335   0.16668   0.95069   0.00000  Uiso   1.00
N936   N     0.83332   0.16666   0.71597   0.00000  Uiso   1.00
C937   C     0.67921   0.16657   0.81463   0.00000  Uiso   1.00
C938   C     0.98746   0.16676   0.85203   0.00000  Uiso   1.00
C939   C     0.79976   0.02151   0.80036   0.00000  Uiso   1.00
C940   C     0.86690   0.31182   0.86631   0.00000  Uiso   1.00
H941   H     0.77231   0.03849   0.77632   0.00000  Uiso   1.00
H942   H     0.89435   0.29485   0.89035   0.00000  Uiso   1.00
C943   C     0.79652   0.31192   0.80061   0.00000  Uiso   1.00
C944   C     0.87014   0.02141   0.86606   0.00000  Uiso   1.00
C945   C     0.83077   0.29047   0.83392   0.00000  Uiso   1.00
C946   C     0.83589   0.04287   0.83275   0.00000  Uiso   1.00
C947   C     0.80828   0.13606   0.68687   0.00000  Uiso   1.00
C948   C     0.85838   0.19727   0.97979   0.00000  Uiso   1.00
C949   C     0.80857   0.13630   0.97093   0.00000  Uiso   1.00
C950   C     0.85810   0.19703   0.69574   0.00000  Uiso   1.00
H951   H     0.78840   0.11212   0.94891   0.00000  Uiso   1.00
H952   H     0.87827   0.22121   0.71776   0.00000  Uiso   1.00
H953   H     0.99234   0.16651   0.77883   0.00000  Uiso   1.00
H954   H     0.67433   0.16682   0.88783   0.00000  Uiso   1.00
N955   N     0.75727   0.29096   0.76828   0.00000  Uiso   1.00
O956   O     0.73142   0.26015   0.78213   0.00000  Uiso   1.00
O957   O     0.74243   0.30607   0.72693   0.00000  Uiso   1.00
N958   N     0.90938   0.04238   0.89839   0.00000  Uiso   1.00
O959   O     0.93525   0.07317   0.88454   0.00000  Uiso   1.00
O960   O     0.92418   0.02729   0.93977   0.00000  Uiso   1.00
N961   N     0.78185   0.10282   0.70539   0.00000  Uiso   1.00
O962   O     0.79495   0.06510   0.69644   0.00000  Uiso   1.00
O963   O     0.73655   0.10921   0.71751   0.00000  Uiso   1.00
N964   N     0.88481   0.23052   0.96128   0.00000  Uiso   1.00
O965   O     0.87171   0.26824   0.97023   0.00000  Uiso   1.00
O966   O     0.93011   0.22412   0.94915   0.00000  Uiso   1.00
O967   O     0.16666   0.43989   0.87291   0.00000  Uiso   1.00
O968   O     0.16667   0.56011   0.79375   0.00000  Uiso   1.00
O969   O     0.16666   0.43988   0.79372   0.00000  Uiso   1.00
O970   O     0.16667   0.56012   0.87294   0.00000  Uiso   1.00
C971   C     0.16785   0.42084   0.83315   0.00000  Uiso   1.00
C972   C     0.16548   0.57916   0.83351   0.00000  Uiso   1.00
O973   O     0.09161   0.50000   0.86379   0.00000  Uiso   1.00
O974   O     0.24172   0.50000   0.80288   0.00000  Uiso   1.00
O975   O     0.09161   0.49999   0.78460   0.00000  Uiso   1.00
O976   O     0.24172   0.50001   0.88207   0.00000  Uiso   1.00
C977   C     0.06795   0.49986   0.82121   0.00000  Uiso   1.00
C978   C     0.26539   0.50014   0.84546   0.00000  Uiso   1.00
Cu979  Cu    0.16667   0.50001   0.88022   0.00000  Uiso   1.00
Cu980  Cu    0.16667   0.49999   0.78645   0.00000  Uiso   1.00
N981   N     0.16668   0.50001   0.95069   0.00000  Uiso   1.00
N982   N     0.16665   0.49999   0.71597   0.00000  Uiso   1.00
C983   C     0.01254   0.49990   0.81463   0.00000  Uiso   1.00
C984   C     0.32079   0.50009   0.85203   0.00000  Uiso   1.00
C985   C     0.13310   0.35485   0.80036   0.00000  Uiso   1.00
C986   C     0.20023   0.64515   0.86631   0.00000  Uiso   1.00
H987   H     0.10565   0.37182   0.77632   0.00000  Uiso   1.00
H988   H     0.22768   0.62818   0.89035   0.00000  Uiso   1.00
C989   C     0.12985   0.64526   0.80061   0.00000  Uiso   1.00
C990   C     0.20348   0.35474   0.86606   0.00000  Uiso   1.00
C991   C     0.16410   0.62380   0.83392   0.00000  Uiso   1.00
C992   C     0.16923   0.37620   0.83275   0.00000  Uiso   1.00
C993   C     0.14162   0.46939   0.68687   0.00000  Uiso   1.00
C994   C     0.19172   0.53061   0.97979   0.00000  Uiso   1.00
C995   C     0.14190   0.46963   0.97093   0.00000  Uiso   1.00
C996   C     0.19143   0.53036   0.69574   0.00000  Uiso   1.00
H997   H     0.12173   0.44545   0.94891   0.00000  Uiso   1.00
H998   H     0.21160   0.55455   0.71776   0.00000  Uiso   1.00
H999   H     0.32567   0.49985   0.77883   0.00000  Uiso   1.00
H1000  H     0.00766   0.50015   0.88783   0.00000  Uiso   1.00
N1001  N     0.09061   0.62429   0.76828   0.00000  Uiso   1.00
O1002  O     0.06476   0.59348   0.78213   0.00000  Uiso   1.00
O1003  O     0.07576   0.63940   0.72693   0.00000  Uiso   1.00
N1004  N     0.24271   0.37571   0.89839   0.00000  Uiso   1.00
O1005  O     0.26859   0.40650   0.88454   0.00000  Uiso   1.00
O1006  O     0.25751   0.36062   0.93977   0.00000  Uiso   1.00
N1007  N     0.11518   0.43615   0.70539   0.00000  Uiso   1.00
O1008  O     0.12829   0.39843   0.69644   0.00000  Uiso   1.00
O1009  O     0.06988   0.44255   0.71751   0.00000  Uiso   1.00
N1010  N     0.21815   0.56385   0.96128   0.00000  Uiso   1.00
O1011  O     0.20504   0.60157   0.97023   0.00000  Uiso   1.00
O1012  O     0.26344   0.55746   0.94915   0.00000  Uiso   1.00
O1013  O     0.50000   0.43989   0.87291   0.00000  Uiso   1.00
O1014  O     0.50000   0.56011   0.79375   0.00000  Uiso   1.00
O1015  O     0.50000   0.43988   0.79372   0.00000  Uiso   1.00
O1016  O     0.50000   0.56012   0.87294   0.00000  Uiso   1.00
C1017  C     0.50119   0.42084   0.83315   0.00000  Uiso   1.00
C1018  C     0.49881   0.57916   0.83351   0.00000  Uiso   1.00
O1019  O     0.42495   0.50000   0.86379   0.00000  Uiso   1.00
O1020  O     0.57505   0.50000   0.80288   0.00000  Uiso   1.00
O1021  O     0.42494   0.49999   0.78460   0.00000  Uiso   1.00
O1022  O     0.57506   0.50001   0.88207   0.00000  Uiso   1.00
C1023  C     0.40128   0.49986   0.82121   0.00000  Uiso   1.00
C1024  C     0.59872   0.50014   0.84546   0.00000  Uiso   1.00
Cu1025 Cu    0.50000   0.50001   0.88022   0.00000  Uiso   1.00
Cu1026 Cu    0.50000   0.49999   0.78645   0.00000  Uiso   1.00
N1027  N     0.50001   0.50001   0.95069   0.00000  Uiso   1.00
N1028  N     0.49999   0.49999   0.71597   0.00000  Uiso   1.00
C1029  C     0.34587   0.49990   0.81463   0.00000  Uiso   1.00
C1030  C     0.65413   0.50009   0.85203   0.00000  Uiso   1.00
C1031  C     0.46643   0.35485   0.80036   0.00000  Uiso   1.00
C1032  C     0.53356   0.64515   0.86631   0.00000  Uiso   1.00
H1033  H     0.43898   0.37182   0.77632   0.00000  Uiso   1.00
H1034  H     0.56101   0.62818   0.89035   0.00000  Uiso   1.00
C1035  C     0.46318   0.64526   0.80061   0.00000  Uiso   1.00
C1036  C     0.53681   0.35474   0.86606   0.00000  Uiso   1.00
C1037  C     0.49744   0.62380   0.83392   0.00000  Uiso   1.00
C1038  C     0.50256   0.37620   0.83275   0.00000  Uiso   1.00
C1039  C     0.47495   0.46939   0.68687   0.00000  Uiso   1.00
C1040  C     0.52505   0.53061   0.97979   0.00000  Uiso   1.00
C1041  C     0.47523   0.46963   0.97093   0.00000  Uiso   1.00
C1042  C     0.52477   0.53036   0.69574   0.00000  Uiso   1.00
H1043  H     0.45507   0.44545   0.94891   0.00000  Uiso   1.00
H1044  H     0.54493   0.55455   0.71776   0.00000  Uiso   1.00
H1045  H     0.65900   0.49985   0.77883   0.00000  Uiso   1.00
H1046  H     0.34100   0.50015   0.88783   0.00000  Uiso   1.00
N1047  N     0.42394   0.62429   0.76828   0.00000  Uiso   1.00
O1048  O     0.39809   0.59348   0.78213   0.00000  Uiso   1.00
O1049  O     0.40909   0.63940   0.72693   0.00000  Uiso   1.00
N1050  N     0.57604   0.37571   0.89839   0.00000  Uiso   1.00
O1051  O     0.60192   0.40650   0.88454   0.00000  Uiso   1.00
O1052  O     0.59084   0.36062   0.93977   0.00000  Uiso   1.00
N1053  N     0.44852   0.43615   0.70539   0.00000  Uiso   1.00
O1054  O     0.46162   0.39843   0.69644   0.00000  Uiso   1.00
O1055  O     0.40322   0.44255   0.71751   0.00000  Uiso   1.00
N1056  N     0.55148   0.56385   0.96128   0.00000  Uiso   1.00
O1057  O     0.53838   0.60157   0.97023   0.00000  Uiso   1.00
O1058  O     0.59678   0.55746   0.94915   0.00000  Uiso   1.00
O1059  O     0.83333   0.43989   0.87291   0.00000  Uiso   1.00
O1060  O     0.83334   0.56011   0.79375   0.00000  Uiso   1.00
O1061  O     0.83333   0.43988   0.79372   0.00000  Uiso   1.00
O1062  O     0.83334   0.56012   0.87294   0.00000  Uiso   1.00
C1063  C     0.83452   0.42084   0.83315   0.00000  Uiso   1.00
C1064  C     0.83215   0.57916   0.83351   0.00000  Uiso   1.00
O1065  O     0.75828   0.50000   0.86379   0.00000  Uiso   1.00
O1066  O     0.90839   0.50000   0.80288   0.00000  Uiso   1.00
O1067  O     0.75828   0.49999   0.78460   0.00000  Uiso   1.00
O1068  O     0.90839   0.50001   0.88207   0.00000  Uiso   1.00
C1069  C     0.73461   0.49986   0.82121   0.00000  Uiso   1.00
C1070  C     0.93205   0.50014   0.84546   0.00000  Uiso   1.00
Cu1071 Cu    0.83333   0.50001   0.88022   0.00000  Uiso   1.00
Cu1072 Cu    0.83333   0.49999   0.78645   0.00000  Uiso   1.00
N1073  N     0.83335   0.50001   0.95069   0.00000  Uiso   1.00
N1074  N     0.83332   0.49999   0.71597   0.00000  Uiso   1.00
C1075  C     0.67921   0.49990   0.81463   0.00000  Uiso   1.00
C1076  C     0.98746   0.50009   0.85203   0.00000  Uiso   1.00
C1077  C     0.79976   0.35485   0.80036   0.00000  Uiso   1.00
C1078  C     0.86690   0.64515   0.86631   0.00000  Uiso   1.00
H1079  H     0.77231   0.37182   0.77632   0.00000  Uiso   1.00
H1080  H     0.89435   0.62818   0.89035   0.00000  Uiso   1.00
C1081  C     0.79652   0.64526   0.80061   0.00000  Uiso   1.00
C1082  C     0.87014   0.35474   0.86606   0.00000  Uiso   1.00
C1083  C     0.83077   0.62380   0.83392   0.00000  Uiso   1.00
C1084  C     0.83589   0.37620   0.83275   0.00000  Uiso   1.00
C1085  C     0.80828   0.46939   0.68687   0.00000  Uiso   1.00
C1086  C     0.85838   0.53061   0.97979   0.00000  Uiso   1.00
C1087  C     0.80857   0.46963   0.97093   0.00000  Uiso   1.00
C1088  C     0.85810   0.53036   0.69574   0.00000  Uiso   1.00
H1089  H     0.78840   0.44545   0.94891   0.00000  Uiso   1.00
H1090  H     0.87827   0.55455   0.71776   0.00000  Uiso   1.00
H1091  H     0.99234   0.49985   0.77883   0.00000  Uiso   1.00
H1092  H     0.67433   0.50015   0.88783   0.00000  Uiso   1.00
N1093  N     0.75727   0.62429   0.76828   0.00000  Uiso   1.00
O1094  O     0.73142   0.59348   0.78213   0.00000  Uiso   1.00
O1095  O     0.74243   0.63940   0.72693   0.00000  Uiso   1.00
N1096  N     0.90938   0.37571   0.89839   0.00000  Uiso   1.00
O1097  O     0.93525   0.40650   0.88454   0.00000  Uiso   1.00
O1098  O     0.92418   0.36062   0.93977   0.00000  Uiso   1.00
N1099  N     0.78185   0.43615   0.70539   0.00000  Uiso   1.00
O1100  O     0.79495   0.39843   0.69644   0.00000  Uiso   1.00
O1101  O     0.73655   0.44255   0.71751   0.00000  Uiso   1.00
N1102  N     0.88481   0.56385   0.96128   0.00000  Uiso   1.00
O1103  O     0.87171   0.60157   0.97023   0.00000  Uiso   1.00
O1104  O     0.93011   0.55746   0.94915   0.00000  Uiso   1.00
O1105  O     0.16666   0.77322   0.87291   0.00000  Uiso   1.00
O1106  O     0.16667   0.89345   0.79375   0.00000  Uiso   1.00
O1107  O     0.16666   0.77321   0.79372   0.00000  Uiso   1.00
O1108  O     0.16667   0.89346   0.87294   0.00000  Uiso   1.00
C1109  C     0.16785   0.75418   0.83315   0.00000  Uiso   1.00
C1110  C     0.16548   0.91249   0.83351   0.00000  Uiso   1.00
O1111  O     0.09161   0.83334   0.86379   0.00000  Uiso   1.00
O1112  O     0.24172   0.83333   0.80288   0.00000  Uiso   1.00
O1113  O     0.09161   0.83333   0.78460   0.00000  Uiso   1.00
O1114  O     0.24172   0.83334   0.88207   0.00000  Uiso   1.00
C1115  C     0.06795   0.83319   0.82121   0.00000  Uiso   1.00
C1116  C     0.26539   0.83347   0.84546   0.00000  Uiso   1.00
Cu1117 Cu    0.16667   0.83334   0.88022   0.00000  Uiso   1.00
Cu1118 Cu    0.16667   0.83333   0.78645   0.00000  Uiso   1.00
N1119  N     0.16668   0.83334   0.95069   0.00000  Uiso   1.00
N1120  N     0.16665   0.83332   0.71597   0.00000  Uiso   1.00
C1121  C     0.01254   0.83324   0.81463   0.00000  Uiso   1.00
C1122  C     0.32079   0.83343   0.85203   0.00000  Uiso   1.00
C1123  C     0.13310   0.68818   0.80036   0.00000  Uiso   1.00
C1124  C     0.20023   0.97849   0.86631   0.00000  Uiso   1.00
H1125  H     0.10565   0.70515   0.77632   0.00000  Uiso   1.00
H1126  H     0.22768   0.96152   0.89035   0.00000  Uiso   1.00
C1127  C     0.12985   0.97859   0.80061   0.00000  Uiso   1.00
C1128  C     0.20348   0.68808   0.86606   0.00000  Uiso   1.00
C1129  C     0.16410   0.95713   0.83392   0.00000  Uiso   1.00
C1130  C     0.16923   0.70953   0.83275   0.00000  Uiso   1.00
C1131  C     0.14162   0.80273   0.68687   0.00000  Uiso   1.00
C1132  C     0.19172   0.86394   0.97979   0.00000  Uiso   1.00
C1133  C     0.14190   0.80297   0.97093   0.00000  Uiso   1.00
C1134  C     0.19143   0.86370   0.69574   0.00000  Uiso   1.00
H1135  H     0.12173   0.77879   0.94891   0.00000  Uiso   1.00
H1136  H     0.21160   0.88788   0.71776   0.00000  Uiso   1.00
H1137  H     0.32567   0.83318   0.77883   0.00000  Uiso   1.00
H1138  H     0.00766   0.83349   0.88783   0.00000  Uiso   1.00
N1139  N     0.09061   0.95762   0.76828   0.00000  Uiso   1.00
O1140  O     0.06476   0.92681   0.78213   0.00000  Uiso   1.00
O1141  O     0.07576   0.97274   0.72693   0.00000  Uiso   1.00
N1142  N     0.24271   0.70905   0.89839   0.00000  Uiso   1.00
O1143  O     0.26859   0.73984   0.88454   0.00000  Uiso   1.00
O1144  O     0.25751   0.69395   0.93977   0.00000  Uiso   1.00
N1145  N     0.11518   0.76949   0.70539   0.00000  Uiso   1.00
O1146  O     0.12829   0.73176   0.69644   0.00000  Uiso   1.00
O1147  O     0.06988   0.77588   0.71751   0.00000  Uiso   1.00
N1148  N     0.21815   0.89718   0.96128   0.00000  Uiso   1.00
O1149  O     0.20504   0.93490   0.97023   0.00000  Uiso   1.00
O1150  O     0.26344   0.89079   0.94915   0.00000  Uiso   1.00
O1151  O     0.50000   0.77322   0.87291   0.00000  Uiso   1.00
O1152  O     0.50000   0.89345   0.79375   0.00000  Uiso   1.00
O1153  O     0.50000   0.77321   0.79372   0.00000  Uiso   1.00
O1154  O     0.50000   0.89346   0.87294   0.00000  Uiso   1.00
C1155  C     0.50119   0.75418   0.83315   0.00000  Uiso   1.00
C1156  C     0.49881   0.91249   0.83351   0.00000  Uiso   1.00
O1157  O     0.42495   0.83334   0.86379   0.00000  Uiso   1.00
O1158  O     0.57505   0.83333   0.80288   0.00000  Uiso   1.00
O1159  O     0.42494   0.83333   0.78460   0.00000  Uiso   1.00
O1160  O     0.57506   0.83334   0.88207   0.00000  Uiso   1.00
C1161  C     0.40128   0.83319   0.82121   0.00000  Uiso   1.00
C1162  C     0.59872   0.83347   0.84546   0.00000  Uiso   1.00
Cu1163 Cu    0.50000   0.83334   0.88022   0.00000  Uiso   1.00
Cu1164 Cu    0.50000   0.83333   0.78645   0.00000  Uiso   1.00
N1165  N     0.50001   0.83334   0.95069   0.00000  Uiso   1.00
N1166  N     0.49999   0.83332   0.71597   0.00000  Uiso   1.00
C1167  C     0.34587   0.83324   0.81463   0.00000  Uiso   1.00
C1168  C     0.65413   0.83343   0.85203   0.00000  Uiso   1.00
C1169  C     0.46643   0.68818   0.80036   0.00000  Uiso   1.00
C1170  C     0.53356   0.97849   0.86631   0.00000  Uiso   1.00
H1171  H     0.43898   0.70515   0.77632   0.00000  Uiso   1.00
H1172  H     0.56101   0.96152   0.89035   0.00000  Uiso   1.00
C1173  C     0.46318   0.97859   0.80061   0.00000  Uiso   1.00
C1174  C     0.53681   0.68808   0.86606   0.00000  Uiso   1.00
C1175  C     0.49744   0.95713   0.83392   0.00000  Uiso   1.00
C1176  C     0.50256   0.70953   0.83275   0.00000  Uiso   1.00
C1177  C     0.47495   0.80273   0.68687   0.00000  Uiso   1.00
C1178  C     0.52505   0.86394   0.97979   0.00000  Uiso   1.00
C1179  C     0.47523   0.80297   0.97093   0.00000  Uiso   1.00
C1180  C     0.52477   0.86370   0.69574   0.00000  Uiso   1.00
H1181  H     0.45507   0.77879   0.94891   0.00000  Uiso   1.00
H1182  H     0.54493   0.88788   0.71776   0.00000  Uiso   1.00
H1183  H     0.65900   0.83318   0.77883   0.00000  Uiso   1.00
H1184  H     0.34100   0.83349   0.88783   0.00000  Uiso   1.00
N1185  N     0.42394   0.95762   0.76828   0.00000  Uiso   1.00
O1186  O     0.39809   0.92681   0.78213   0.00000  Uiso   1.00
O1187  O     0.40909   0.97274   0.72693   0.00000  Uiso   1.00
N1188  N     0.57604   0.70905   0.89839   0.00000  Uiso   1.00
O1189  O     0.60192   0.73984   0.88454   0.00000  Uiso   1.00
O1190  O     0.59084   0.69395   0.93977   0.00000  Uiso   1.00
N1191  N     0.44852   0.76949   0.70539   0.00000  Uiso   1.00
O1192  O     0.46162   0.73176   0.69644   0.00000  Uiso   1.00
O1193  O     0.40322   0.77588   0.71751   0.00000  Uiso   1.00
N1194  N     0.55148   0.89718   0.96128   0.00000  Uiso   1.00
O1195  O     0.53838   0.93490   0.97023   0.00000  Uiso   1.00
O1196  O     0.59678   0.89079   0.94915   0.00000  Uiso   1.00
O1197  O     0.83333   0.77322   0.87291   0.00000  Uiso   1.00
O1198  O     0.83334   0.89345   0.79375   0.00000  Uiso   1.00
O1199  O     0.83333   0.77321   0.79372   0.00000  Uiso   1.00
O1200  O     0.83334   0.89346   0.87294   0.00000  Uiso   1.00
C1201  C     0.83452   0.75418   0.83315   0.00000  Uiso   1.00
C1202  C     0.83215   0.91249   0.83351   0.00000  Uiso   1.00
O1203  O     0.75828   0.83334   0.86379   0.00000  Uiso   1.00
O1204  O     0.90839   0.83333   0.80288   0.00000  Uiso   1.00
O1205  O     0.75828   0.83333   0.78460   0.00000  Uiso   1.00
O1206  O     0.90839   0.83334   0.88207   0.00000  Uiso   1.00
C1207  C     0.73461   0.83319   0.82121   0.00000  Uiso   1.00
C1208  C     0.93205   0.83347   0.84546   0.00000  Uiso   1.00
Cu1209 Cu    0.83333   0.83334   0.88022   0.00000  Uiso   1.00
Cu1210 Cu    0.83333   0.83333   0.78645   0.00000  Uiso   1.00
N1211  N     0.83335   0.83334   0.95069   0.00000  Uiso   1.00
N1212  N     0.83332   0.83332   0.71597   0.00000  Uiso   1.00
C1213  C     0.67921   0.83324   0.81463   0.00000  Uiso   1.00
C1214  C     0.98746   0.83343   0.85203   0.00000  Uiso   1.00
C1215  C     0.79976   0.68818   0.80036   0.00000  Uiso   1.00
C1216  C     0.86690   0.97849   0.86631   0.00000  Uiso   1.00
H1217  H     0.77231   0.70515   0.77632   0.00000  Uiso   1.00
H1218  H     0.89435   0.96152   0.89035   0.00000  Uiso   1.00
C1219  C     0.79652   0.97859   0.80061   0.00000  Uiso   1.00
C1220  C     0.87014   0.68808   0.86606   0.00000  Uiso   1.00
C1221  C     0.83077   0.95713   0.83392   0.00000  Uiso   1.00
C1222  C     0.83589   0.70953   0.83275   0.00000  Uiso   1.00
C1223  C     0.80828   0.80273   0.68687   0.00000  Uiso   1.00
C1224  C     0.85838   0.86394   0.97979   0.00000  Uiso   1.00
C1225  C     0.80857   0.80297   0.97093   0.00000  Uiso   1.00
C1226  C     0.85810   0.86370   0.69574   0.00000  Uiso   1.00
H1227  H     0.78840   0.77879   0.94891   0.00000  Uiso   1.00
H1228  H     0.87827   0.88788   0.71776   0.00000  Uiso   1.00
H1229  H     0.99234   0.83318   0.77883   0.00000  Uiso   1.00
H1230  H     0.67433   0.83349   0.88783   0.00000  Uiso   1.00
N1231  N     0.75727   0.95762   0.76828   0.00000  Uiso   1.00
O1232  O     0.73142   0.92681   0.78213   0.00000  Uiso   1.00
O1233  O     0.74243   0.97274   0.72693   0.00000  Uiso   1.00
N1234  N     0.90938   0.70905   0.89839   0.00000  Uiso   1.00
O1235  O     0.93525   0.73984   0.88454   0.00000  Uiso   1.00
O1236  O     0.92418   0.69395   0.93977   0.00000  Uiso   1.00
N1237  N     0.78185   0.76949   0.70539   0.00000  Uiso   1.00
O1238  O     0.79495   0.73176   0.69644   0.00000  Uiso   1.00
O1239  O     0.73655   0.77588   0.71751   0.00000  Uiso   1.00
N1240  N     0.88481   0.89718   0.96128   0.00000  Uiso   1.00
O1241  O     0.87171   0.93490   0.97023   0.00000  Uiso   1.00
O1242  O     0.93011   0.89079   0.94915   0.00000  Uiso   1.00
loop_
_geom_bond_atom_site_label_1
_geom_bond_atom_site_label_2
_geom_bond_distance
_geom_bond_site_symmetry_2
_ccdc_geom_bond_type
O1     C5      1.293   .     A
O1     Cu13    1.952   .     S
O2     C6      1.293   .     A
O2     Cu14    1.952   .     S
O3     Cu14    1.960   .     S
O3     C5      1.297   .     A
O4     C6      1.297   .     A
O4     Cu13    1.960   .     S
C5     C26     1.445   .     S
C6     C25     1.445   .     S
O7     C11     1.290   .     A
O7     Cu13    1.953   .     S
O8     C12     1.290   .     A
O8     Cu14    1.953   .     S
O9     Cu14    1.958   .     S
O9     C11     1.296   .     A
O10    C12     1.296   .     A
O10    Cu13    1.958   .     S
C11    C17     1.435   .     S
C12    C18     1.435   .     S
Cu13   N15     2.026   .     S
Cu13   Cu14    2.696   .     S
Cu14   N16     2.026   .     S
N15    C28     1.382   .     A
N15    C29     1.359   .     A
N16    C27     1.382   .     A
N16    C30     1.359   .     A
C17    C110    1.338   1_455 S
C17    H125    1.087   1_455 S
C18    C63     1.338   .     S
C18    H80     1.087   .     S
C19    C26     1.397   .     A
C19    H21     1.083   .     S
C19    C299    1.391   1_545 S
C20    C25     1.397   .     A
C20    H22     1.083   .     S
C20    C162    1.391   .     S
C23    N35     1.439   .     S
C23    C25     1.410   .     A
C23    C157    1.391   .     S
C24    N38     1.439   .     S
C24    C26     1.410   .     A
C24    C296    1.391   1_545 S
C27    N41     1.427   .     S
C27    C857    1.418   1_554 S
C28    N44     1.427   .     S
C28    C444    1.418   .     S
C29    H31     1.082   .     S
C29    C441    1.418   .     S
C30    H32     1.082   .     S
C30    C856    1.418   1_554 S
H33    C63     1.087   .     S
H34    C110    1.087   1_455 S
N35    O36     1.301   .     A
N35    O37     1.302   .     A
N38    O40     1.302   .     A
N38    O39     1.301   .     A
N41    O42     1.301   .     A
N41    O43     1.300   .     A
N44    O45     1.301   .     A
N44    O46     1.300   .     A
O47    C51     1.293   .     A
O47    Cu59    1.952   .     S
O48    C52     1.293   .     A
O48    Cu60    1.952   .     S
O49    Cu60    1.960   .     S
O49    C51     1.297   .     A
O50    C52     1.297   .     A
O50    Cu59    1.960   .     S
C51    C72     1.445   .     S
C52    C71     1.445   .     S
O53    C57     1.290   .     A
O53    Cu59    1.953   .     S
O54    C58     1.290   .     A
O54    Cu60    1.953   .     S
O55    Cu60    1.958   .     S
O55    C57     1.296   .     A
O56    C58     1.296   .     A
O56    Cu59    1.958   .     S
C57    C63     1.435   .     S
C58    C64     1.435   .     S
Cu59   N61     2.026   .     S
Cu59   Cu60    2.696   .     S
Cu60   N62     2.026   .     S
N61    C74     1.382   .     A
N61    C75     1.359   .     A
N62    C73     1.382   .     A
N62    C76     1.359   .     A
C64    C109    1.338   .     S
C64    H126    1.087   .     S
C65    C72     1.397   .     A
C65    H67     1.083   .     S
C65    C345    1.391   1_545 S
C66    C71     1.397   .     A
C66    H68     1.083   .     S
C66    C208    1.391   .     S
C69    N81     1.439   .     S
C69    C71     1.410   .     A
C69    C203    1.391   .     S
C70    N84     1.439   .     S
C70    C72     1.410   .     A
C70    C342    1.391   1_545 S
C73    N87     1.427   .     S
C73    C903    1.418   1_554 S
C74    N90     1.427   .     S
C74    C490    1.418   .     S
C75    H77     1.082   .     S
C75    C487    1.418   .     S
C76    H78     1.082   .     S
C76    C902    1.418   1_554 S
H79    C109    1.087   .     S
N81    O82     1.301   .     A
N81    O83     1.302   .     A
N84    O86     1.302   .     A
N84    O85     1.301   .     A
N87    O88     1.301   .     A
N87    O89     1.300   .     A
N90    O91     1.301   .     A
N90    O92     1.300   .     A
O93    C97     1.293   .     A
O93    Cu105   1.952   .     S
O94    C98     1.293   .     A
O94    Cu106   1.952   .     S
O95    Cu106   1.960   .     S
O95    C97     1.297   .     A
O96    C98     1.297   .     A
O96    Cu105   1.960   .     S
C97    C118    1.445   .     S
C98    C117    1.445   .     S
O99    C103    1.290   .     A
O99    Cu105   1.953   .     S
O100   C104    1.290   .     A
O100   Cu106   1.953   .     S
O101   Cu106   1.958   .     S
O101   C103    1.296   .     A
O102   C104    1.296   .     A
O102   Cu105   1.958   .     S
C103   C109    1.435   .     S
C104   C110    1.435   .     S
Cu105  N107    2.026   .     S
Cu105  Cu106   2.696   .     S
Cu106  N108    2.026   .     S
N107   C120    1.382   .     A
N107   C121    1.359   .     A
N108   C119    1.382   .     A
N108   C122    1.359   .     A
C110   C17     1.338   1_655 S
C110   H34     1.087   1_655 S
C111   C118    1.397   .     A
C111   H113    1.083   .     S
C111   C391    1.391   1_545 S
C112   C117    1.397   .     A
C112   H114    1.083   .     S
C112   C254    1.391   .     S
C115   N127    1.439   .     S
C115   C117    1.410   .     A
C115   C249    1.391   .     S
C116   N130    1.439   .     S
C116   C118    1.410   .     A
C116   C388    1.391   1_545 S
C119   N133    1.427   .     S
C119   C949    1.418   1_554 S
C120   N136    1.427   .     S
C120   C536    1.418   .     S
C121   H123    1.082   .     S
C121   C533    1.418   .     S
C122   H124    1.082   .     S
C122   C948    1.418   1_554 S
H125   C17     1.087   1_655 S
N127   O128    1.301   .     A
N127   O129    1.302   .     A
N130   O132    1.302   .     A
N130   O131    1.301   .     A
N133   O134    1.301   .     A
N133   O135    1.300   .     A
N136   O137    1.301   .     A
N136   O138    1.300   .     A
O139   C143    1.293   .     A
O139   Cu151   1.952   .     S
O140   C144    1.293   .     A
O140   Cu152   1.952   .     S
O141   Cu152   1.960   .     S
O141   C143    1.297   .     A
O142   C144    1.297   .     A
O142   Cu151   1.960   .     S
C143   C164    1.445   .     S
C144   C163    1.445   .     S
O145   C149    1.290   .     A
O145   Cu151   1.953   .     S
O146   C150    1.290   .     A
O146   Cu152   1.953   .     S
O147   Cu152   1.958   .     S
O147   C149    1.296   .     A
O148   C150    1.296   .     A
O148   Cu151   1.958   .     S
C149   C155    1.435   .     S
C150   C156    1.435   .     S
Cu151  N153    2.026   .     S
Cu151  Cu152   2.696   .     S
Cu152  N154    2.026   .     S
N153   C166    1.382   .     A
N153   C167    1.359   .     A
N154   C165    1.382   .     A
N154   C168    1.359   .     A
C155   C248    1.338   1_455 S
C155   H263    1.087   1_455 S
C156   C201    1.338   .     S
C156   H218    1.087   .     S
C157   C164    1.397   .     A
C157   H159    1.083   .     S
C158   C163    1.397   .     A
C158   H160    1.083   .     S
C158   C300    1.391   .     S
C161   N173    1.439   .     S
C161   C163    1.410   .     A
C161   C295    1.391   .     S
C162   N176    1.439   .     S
C162   C164    1.410   .     A
C165   N179    1.427   .     S
C165   C995    1.418   1_554 S
C166   N182    1.427   .     S
C166   C582    1.418   .     S
C167   H169    1.082   .     S
C167   C579    1.418   .     S
C168   H170    1.082   .     S
C168   C994    1.418   1_554 S
H171   C201    1.087   .     S
H172   C248    1.087   1_455 S
N173   O174    1.301   .     A
N173   O175    1.302   .     A
N176   O178    1.302   .     A
N176   O177    1.301   .     A
N179   O180    1.301   .     A
N179   O181    1.300   .     A
N182   O183    1.301   .     A
N182   O184    1.300   .     A
O185   C189    1.293   .     A
O185   Cu197   1.952   .     S
O186   C190    1.293   .     A
O186   Cu198   1.952   .     S
O187   Cu198   1.960   .     S
O187   C189    1.297   .     A
O188   C190    1.297   .     A
O188   Cu197   1.960   .     S
C189   C210    1.445   .     S
C190   C209    1.445   .     S
O191   C195    1.290   .     A
O191   Cu197   1.953   .     S
O192   C196    1.290   .     A
O192   Cu198   1.953   .     S
O193   Cu198   1.958   .     S
O193   C195    1.296   .     A
O194   C196    1.296   .     A
O194   Cu197   1.958   .     S
C195   C201    1.435   .     S
C196   C202    1.435   .     S
Cu197  N199    2.026   .     S
Cu197  Cu198   2.696   .     S
Cu198  N200    2.026   .     S
N199   C212    1.382   .     A
N199   C213    1.359   .     A
N200   C211    1.382   .     A
N200   C214    1.359   .     A
C202   C247    1.338   .     S
C202   H264    1.087   .     S
C203   C210    1.397   .     A
C203   H205    1.083   .     S
C204   C209    1.397   .     A
C204   H206    1.083   .     S
C204   C346    1.391   .     S
C207   N219    1.439   .     S
C207   C209    1.410   .     A
C207   C341    1.391   .     S
C208   N222    1.439   .     S
C208   C210    1.410   .     A
C211   N225    1.427   .     S
C211   C1041   1.418   1_554 S
C212   N228    1.427   .     S
C212   C628    1.418   .     S
C213   H215    1.082   .     S
C213   C625    1.418   .     S
C214   H216    1.082   .     S
C214   C1040   1.418   1_554 S
H217   C247    1.087   .     S
N219   O220    1.301   .     A
N219   O221    1.302   .     A
N222   O224    1.302   .     A
N222   O223    1.301   .     A
N225   O226    1.301   .     A
N225   O227    1.300   .     A
N228   O229    1.301   .     A
N228   O230    1.300   .     A
O231   C235    1.293   .     A
O231   Cu243   1.952   .     S
O232   C236    1.293   .     A
O232   Cu244   1.952   .     S
O233   Cu244   1.960   .     S
O233   C235    1.297   .     A
O234   C236    1.297   .     A
O234   Cu243   1.960   .     S
C235   C256    1.445   .     S
C236   C255    1.445   .     S
O237   C241    1.290   .     A
O237   Cu243   1.953   .     S
O238   C242    1.290   .     A
O238   Cu244   1.953   .     S
O239   Cu244   1.958   .     S
O239   C241    1.296   .     A
O240   C242    1.296   .     A
O240   Cu243   1.958   .     S
C241   C247    1.435   .     S
C242   C248    1.435   .     S
Cu243  N245    2.026   .     S
Cu243  Cu244   2.696   .     S
Cu244  N246    2.026   .     S
N245   C258    1.382   .     A
N245   C259    1.359   .     A
N246   C257    1.382   .     A
N246   C260    1.359   .     A
C248   C155    1.338   1_655 S
C248   H172    1.087   1_655 S
C249   C256    1.397   .     A
C249   H251    1.083   .     S
C250   C255    1.397   .     A
C250   H252    1.083   .     S
C250   C392    1.391   .     S
C253   N265    1.439   .     S
C253   C255    1.410   .     A
C253   C387    1.391   .     S
C254   N268    1.439   .     S
C254   C256    1.410   .     A
C257   N271    1.427   .     S
C257   C1087   1.418   1_554 S
C258   N274    1.427   .     S
C258   C674    1.418   .     S
C259   H261    1.082   .     S
C259   C671    1.418   .     S
C260   H262    1.082   .     S
C260   C1086   1.418   1_554 S
H263   C155    1.087   1_655 S
N265   O266    1.301   .     A
N265   O267    1.302   .     A
N268   O270    1.302   .     A
N268   O269    1.301   .     A
N271   O272    1.301   .     A
N271   O273    1.300   .     A
N274   O275    1.301   .     A
N274   O276    1.300   .     A
O277   C281    1.293   .     A
O277   Cu289   1.952   .     S
O278   C282    1.293   .     A
O278   Cu290   1.952   .     S
O279   Cu290   1.960   .     S
O279   C281    1.297   .     A
O280   C282    1.297   .     A
O280   Cu289   1.960   .     S
C281   C302    1.445   .     S
C282   C301    1.445   .     S
O283   C287    1.290   .     A
O283   Cu289   1.953   .     S
O284   C288    1.290   .     A
O284   Cu290   1.953   .     S
O285   Cu290   1.958   .     S
O285   C287    1.296   .     A
O286   C288    1.296   .     A
O286   Cu289   1.958   .     S
C287   C293    1.435   .     S
C288   C294    1.435   .     S
Cu289  N291    2.026   .     S
Cu289  Cu290   2.696   .     S
Cu290  N292    2.026   .     S
N291   C304    1.382   .     A
N291   C305    1.359   .     A
N292   C303    1.382   .     A
N292   C306    1.359   .     A
C293   C386    1.338   1_455 S
C293   H401    1.087   1_455 S
C294   C339    1.338   .     S
C294   H356    1.087   .     S
C295   C302    1.397   .     A
C295   H297    1.083   .     S
C296   C301    1.397   .     A
C296   H298    1.083   .     S
C296   C24     1.391   1_565 S
C299   N311    1.439   .     S
C299   C301    1.410   .     A
C299   C19     1.391   1_565 S
C300   N314    1.439   .     S
C300   C302    1.410   .     A
C303   N317    1.427   .     S
C303   C1133   1.418   1_554 S
C304   N320    1.427   .     S
C304   C720    1.418   .     S
C305   H307    1.082   .     S
C305   C717    1.418   .     S
C306   H308    1.082   .     S
C306   C1132   1.418   1_554 S
H309   C339    1.087   .     S
H310   C386    1.087   1_455 S
N311   O312    1.301   .     A
N311   O313    1.302   .     A
N314   O316    1.302   .     A
N314   O315    1.301   .     A
N317   O318    1.301   .     A
N317   O319    1.300   .     A
N320   O321    1.301   .     A
N320   O322    1.300   .     A
O323   C327    1.293   .     A
O323   Cu335   1.952   .     S
O324   C328    1.293   .     A
O324   Cu336   1.952   .     S
O325   Cu336   1.960   .     S
O325   C327    1.297   .     A
O326   C328    1.297   .     A
O326   Cu335   1.960   .     S
C327   C348    1.445   .     S
C328   C347    1.445   .     S
O329   C333    1.290   .     A
O329   Cu335   1.953   .     S
O330   C334    1.290   .     A
O330   Cu336   1.953   .     S
O331   Cu336   1.958   .     S
O331   C333    1.296   .     A
O332   C334    1.296   .     A
O332   Cu335   1.958   .     S
C333   C339    1.435   .     S
C334   C340    1.435   .     S
Cu335  N337    2.026   .     S
Cu335  Cu336   2.696   .     S
Cu336  N338    2.026   .     S
N337   C350    1.382   .     A
N337   C351    1.359   .     A
N338   C349    1.382   .     A
N338   C352    1.359   .     A
C340   C385    1.338   .     S
C340   H402    1.087   .     S
C341   C348    1.397   .     A
C341   H343    1.083   .     S
C342   C347    1.397   .     A
C342   H344    1.083   .     S
C342   C70     1.391   1_565 S
C345   N357    1.439   .     S
C345   C347    1.410   .     A
C345   C65     1.391   1_565 S
C346   N360    1.439   .     S
C346   C348    1.410   .     A
C349   N363    1.427   .     S
C349   C1179   1.418   1_554 S
C350   N366    1.427   .     S
C350   C766    1.418   .     S
C351   H353    1.082   .     S
C351   C763    1.418   .     S
C352   H354    1.082   .     S
C352   C1178   1.418   1_554 S
H355   C385    1.087   .     S
N357   O358    1.301   .     A
N357   O359    1.302   .     A
N360   O362    1.302   .     A
N360   O361    1.301   .     A
N363   O364    1.301   .     A
N363   O365    1.300   .     A
N366   O367    1.301   .     A
N366   O368    1.300   .     A
O369   C373    1.293   .     A
O369   Cu381   1.952   .     S
O370   C374    1.293   .     A
O370   Cu382   1.952   .     S
O371   Cu382   1.960   .     S
O371   C373    1.297   .     A
O372   C374    1.297   .     A
O372   Cu381   1.960   .     S
C373   C394    1.445   .     S
C374   C393    1.445   .     S
O375   C379    1.290   .     A
O375   Cu381   1.953   .     S
O376   C380    1.290   .     A
O376   Cu382   1.953   .     S
O377   Cu382   1.958   .     S
O377   C379    1.296   .     A
O378   C380    1.296   .     A
O378   Cu381   1.958   .     S
C379   C385    1.435   .     S
C380   C386    1.435   .     S
Cu381  N383    2.026   .     S
Cu381  Cu382   2.696   .     S
Cu382  N384    2.026   .     S
N383   C396    1.382   .     A
N383   C397    1.359   .     A
N384   C395    1.382   .     A
N384   C398    1.359   .     A
C386   C293    1.338   1_655 S
C386   H310    1.087   1_655 S
C387   C394    1.397   .     A
C387   H389    1.083   .     S
C388   C393    1.397   .     A
C388   H390    1.083   .     S
C388   C116    1.391   1_565 S
C391   N403    1.439   .     S
C391   C393    1.410   .     A
C391   C111    1.391   1_565 S
C392   N406    1.439   .     S
C392   C394    1.410   .     A
C395   N409    1.427   .     S
C395   C1225   1.418   1_554 S
C396   N412    1.427   .     S
C396   C812    1.418   .     S
C397   H399    1.082   .     S
C397   C809    1.418   .     S
C398   H400    1.082   .     S
C398   C1224   1.418   1_554 S
H401   C293    1.087   1_655 S
N403   O404    1.301   .     A
N403   O405    1.302   .     A
N406   O408    1.302   .     A
N406   O407    1.301   .     A
N409   O410    1.301   .     A
N409   O411    1.300   .     A
N412   O413    1.301   .     A
N412   O414    1.300   .     A
O415   C419    1.293   .     A
O415   Cu427   1.952   .     S
O416   C420    1.293   .     A
O416   Cu428   1.952   .     S
O417   Cu428   1.960   .     S
O417   C419    1.297   .     A
O418   C420    1.297   .     A
O418   Cu427   1.960   .     S
C419   C440    1.445   .     S
C420   C439    1.445   .     S
O421   C425    1.290   .     A
O421   Cu427   1.953   .     S
O422   C426    1.290   .     A
O422   Cu428   1.953   .     S
O423   Cu428   1.958   .     S
O423   C425    1.296   .     A
O424   C426    1.296   .     A
O424   Cu427   1.958   .     S
C425   C431    1.435   .     S
C426   C432    1.435   .     S
Cu427  N429    2.026   .     S
Cu427  Cu428   2.696   .     S
Cu428  N430    2.026   .     S
N429   C442    1.382   .     A
N429   C443    1.359   .     A
N430   C441    1.382   .     A
N430   C444    1.359   .     A
C431   C524    1.338   1_455 S
C431   H539    1.087   1_455 S
C432   C477    1.338   .     S
C432   H494    1.087   .     S
C433   C440    1.397   .     A
C433   H435    1.083   .     S
C433   C713    1.391   1_545 S
C434   C439    1.397   .     A
C434   H436    1.083   .     S
C434   C576    1.391   .     S
C437   N449    1.439   .     S
C437   C439    1.410   .     A
C437   C571    1.391   .     S
C438   N452    1.439   .     S
C438   C440    1.410   .     A
C438   C710    1.391   1_545 S
C441   N455    1.427   .     S
C442   N458    1.427   .     S
C442   C858    1.418   .     S
C443   H445    1.082   .     S
C443   C855    1.418   .     S
C444   H446    1.082   .     S
H447   C477    1.087   .     S
H448   C524    1.087   1_455 S
N449   O450    1.301   .     A
N449   O451    1.302   .     A
N452   O454    1.302   .     A
N452   O453    1.301   .     A
N455   O456    1.301   .     A
N455   O457    1.300   .     A
N458   O459    1.301   .     A
N458   O460    1.300   .     A
O461   C465    1.293   .     A
O461   Cu473   1.952   .     S
O462   C466    1.293   .     A
O462   Cu474   1.952   .     S
O463   Cu474   1.960   .     S
O463   C465    1.297   .     A
O464   C466    1.297   .     A
O464   Cu473   1.960   .     S
C465   C486    1.445   .     S
C466   C485    1.445   .     S
O467   C471    1.290   .     A
O467   Cu473   1.953   .     S
O468   C472    1.290   .     A
O468   Cu474   1.953   .     S
O469   Cu474   1.958   .     S
O469   C471    1.296   .     A
O470   C472    1.296   .     A
O470   Cu473   1.958   .     S
C471   C477    1.435   .     S
C472   C478    1.435   .     S
Cu473  N475    2.026   .     S
Cu473  Cu474   2.696   .     S
Cu474  N476    2.026   .     S
N475   C488    1.382   .     A
N475   C489    1.359   .     A
N476   C487    1.382   .     A
N476   C490    1.359   .     A
C478   C523    1.338   .     S
C478   H540    1.087   .     S
C479   C486    1.397   .     A
C479   H481    1.083   .     S
C479   C759    1.391   1_545 S
C480   C485    1.397   .     A
C480   H482    1.083   .     S
C480   C622    1.391   .     S
C483   N495    1.439   .     S
C483   C485    1.410   .     A
C483   C617    1.391   .     S
C484   N498    1.439   .     S
C484   C486    1.410   .     A
C484   C756    1.391   1_545 S
C487   N501    1.427   .     S
C488   N504    1.427   .     S
C488   C904    1.418   .     S
C489   H491    1.082   .     S
C489   C901    1.418   .     S
C490   H492    1.082   .     S
H493   C523    1.087   .     S
N495   O496    1.301   .     A
N495   O497    1.302   .     A
N498   O500    1.302   .     A
N498   O499    1.301   .     A
N501   O502    1.301   .     A
N501   O503    1.300   .     A
N504   O505    1.301   .     A
N504   O506    1.300   .     A
O507   C511    1.293   .     A
O507   Cu519   1.952   .     S
O508   C512    1.293   .     A
O508   Cu520   1.952   .     S
O509   Cu520   1.960   .     S
O509   C511    1.297   .     A
O510   C512    1.297   .     A
O510   Cu519   1.960   .     S
C511   C532    1.445   .     S
C512   C531    1.445   .     S
O513   C517    1.290   .     A
O513   Cu519   1.953   .     S
O514   C518    1.290   .     A
O514   Cu520   1.953   .     S
O515   Cu520   1.958   .     S
O515   C517    1.296   .     A
O516   C518    1.296   .     A
O516   Cu519   1.958   .     S
C517   C523    1.435   .     S
C518   C524    1.435   .     S
Cu519  N521    2.026   .     S
Cu519  Cu520   2.696   .     S
Cu520  N522    2.026   .     S
N521   C534    1.382   .     A
N521   C535    1.359   .     A
N522   C533    1.382   .     A
N522   C536    1.359   .     A
C524   C431    1.338   1_655 S
C524   H448    1.087   1_655 S
C525   C532    1.397   .     A
C525   H527    1.083   .     S
C525   C805    1.391   1_545 S
C526   C531    1.397   .     A
C526   H528    1.083   .     S
C526   C668    1.391   .     S
C529   N541    1.439   .     S
C529   C531    1.410   .     A
C529   C663    1.391   .     S
C530   N544    1.439   .     S
C530   C532    1.410   .     A
C530   C802    1.391   1_545 S
C533   N547    1.427   .     S
C534   N550    1.427   .     S
C534   C950    1.418   .     S
C535   H537    1.082   .     S
C535   C947    1.418   .     S
C536   H538    1.082   .     S
H539   C431    1.087   1_655 S
N541   O542    1.301   .     A
N541   O543    1.302   .     A
N544   O546    1.302   .     A
N544   O545    1.301   .     A
N547   O548    1.301   .     A
N547   O549    1.300   .     A
N550   O551    1.301   .     A
N550   O552    1.300   .     A
O553   C557    1.293   .     A
O553   Cu565   1.952   .     S
O554   C558    1.293   .     A
O554   Cu566   1.952   .     S
O555   Cu566   1.960   .     S
O555   C557    1.297   .     A
O556   C558    1.297   .     A
O556   Cu565   1.960   .     S
C557   C578    1.445   .     S
C558   C577    1.445   .     S
O559   C563    1.290   .     A
O559   Cu565   1.953   .     S
O560   C564    1.290   .     A
O560   Cu566   1.953   .     S
O561   Cu566   1.958   .     S
O561   C563    1.296   .     A
O562   C564    1.296   .     A
O562   Cu565   1.958   .     S
C563   C569    1.435   .     S
C564   C570    1.435   .     S
Cu565  N567    2.026   .     S
Cu565  Cu566   2.696   .     S
Cu566  N568    2.026   .     S
N567   C580    1.382   .     A
N567   C581    1.359   .     A
N568   C579    1.382   .     A
N568   C582    1.359   .     A
C569   C662    1.338   1_455 S
C569   H677    1.087   1_455 S
C570   C615    1.338   .     S
C570   H632    1.087   .     S
C571   C578    1.397   .     A
C571   H573    1.083   .     S
C572   C577    1.397   .     A
C572   H574    1.083   .     S
C572   C714    1.391   .     S
C575   N587    1.439   .     S
C575   C577    1.410   .     A
C575   C709    1.391   .     S
C576   N590    1.439   .     S
C576   C578    1.410   .     A
C579   N593    1.427   .     S
C580   N596    1.427   .     S
C580   C996    1.418   .     S
C581   H583    1.082   .     S
C581   C993    1.418   .     S
C582   H584    1.082   .     S
H585   C615    1.087   .     S
H586   C662    1.087   1_455 S
N587   O588    1.301   .     A
N587   O589    1.302   .     A
N590   O592    1.302   .     A
N590   O591    1.301   .     A
N593   O594    1.301   .     A
N593   O595    1.300   .     A
N596   O597    1.301   .     A
N596   O598    1.300   .     A
O599   C603    1.293   .     A
O599   Cu611   1.952   .     S
O600   C604    1.293   .     A
O600   Cu612   1.952   .     S
O601   Cu612   1.960   .     S
O601   C603    1.297   .     A
O602   C604    1.297   .     A
O602   Cu611   1.960   .     S
C603   C624    1.445   .     S
C604   C623    1.445   .     S
O605   C609    1.290   .     A
O605   Cu611   1.953   .     S
O606   C610    1.290   .     A
O606   Cu612   1.953   .     S
O607   Cu612   1.958   .     S
O607   C609    1.296   .     A
O608   C610    1.296   .     A
O608   Cu611   1.958   .     S
C609   C615    1.435   .     S
C610   C616    1.435   .     S
Cu611  N613    2.026   .     S
Cu611  Cu612   2.696   .     S
Cu612  N614    2.026   .     S
N613   C626    1.382   .     A
N613   C627    1.359   .     A
N614   C625    1.382   .     A
N614   C628    1.359   .     A
C616   C661    1.338   .     S
C616   H678    1.087   .     S
C617   C624    1.397   .     A
C617   H619    1.083   .     S
C618   C623    1.397   .     A
C618   H620    1.083   .     S
C618   C760    1.391   .     S
C621   N633    1.439   .     S
C621   C623    1.410   .     A
C621   C755    1.391   .     S
C622   N636    1.439   .     S
C622   C624    1.410   .     A
C625   N639    1.427   .     S
C626   N642    1.427   .     S
C626   C1042   1.418   .     S
C627   H629    1.082   .     S
C627   C1039   1.418   .     S
C628   H630    1.082   .     S
H631   C661    1.087   .     S
N633   O634    1.301   .     A
N633   O635    1.302   .     A
N636   O638    1.302   .     A
N636   O637    1.301   .     A
N639   O640    1.301   .     A
N639   O641    1.300   .     A
N642   O643    1.301   .     A
N642   O644    1.300   .     A
O645   C649    1.293   .     A
O645   Cu657   1.952   .     S
O646   C650    1.293   .     A
O646   Cu658   1.952   .     S
O647   Cu658   1.960   .     S
O647   C649    1.297   .     A
O648   C650    1.297   .     A
O648   Cu657   1.960   .     S
C649   C670    1.445   .     S
C650   C669    1.445   .     S
O651   C655    1.290   .     A
O651   Cu657   1.953   .     S
O652   C656    1.290   .     A
O652   Cu658   1.953   .     S
O653   Cu658   1.958   .     S
O653   C655    1.296   .     A
O654   C656    1.296   .     A
O654   Cu657   1.958   .     S
C655   C661    1.435   .     S
C656   C662    1.435   .     S
Cu657  N659    2.026   .     S
Cu657  Cu658   2.696   .     S
Cu658  N660    2.026   .     S
N659   C672    1.382   .     A
N659   C673    1.359   .     A
N660   C671    1.382   .     A
N660   C674    1.359   .     A
C662   C569    1.338   1_655 S
C662   H586    1.087   1_655 S
C663   C670    1.397   .     A
C663   H665    1.083   .     S
C664   C669    1.397   .     A
C664   H666    1.083   .     S
C664   C806    1.391   .     S
C667   N679    1.439   .     S
C667   C669    1.410   .     A
C667   C801    1.391   .     S
C668   N682    1.439   .     S
C668   C670    1.410   .     A
C671   N685    1.427   .     S
C672   N688    1.427   .     S
C672   C1088   1.418   .     S
C673   H675    1.082   .     S
C673   C1085   1.418   .     S
C674   H676    1.082   .     S
H677   C569    1.087   1_655 S
N679   O680    1.301   .     A
N679   O681    1.302   .     A
N682   O684    1.302   .     A
N682   O683    1.301   .     A
N685   O686    1.301   .     A
N685   O687    1.300   .     A
N688   O689    1.301   .     A
N688   O690    1.300   .     A
O691   C695    1.293   .     A
O691   Cu703   1.952   .     S
O692   C696    1.293   .     A
O692   Cu704   1.952   .     S
O693   Cu704   1.960   .     S
O693   C695    1.297   .     A
O694   C696    1.297   .     A
O694   Cu703   1.960   .     S
C695   C716    1.445   .     S
C696   C715    1.445   .     S
O697   C701    1.290   .     A
O697   Cu703   1.953   .     S
O698   C702    1.290   .     A
O698   Cu704   1.953   .     S
O699   Cu704   1.958   .     S
O699   C701    1.296   .     A
O700   C702    1.296   .     A
O700   Cu703   1.958   .     S
C701   C707    1.435   .     S
C702   C708    1.435   .     S
Cu703  N705    2.026   .     S
Cu703  Cu704   2.696   .     S
Cu704  N706    2.026   .     S
N705   C718    1.382   .     A
N705   C719    1.359   .     A
N706   C717    1.382   .     A
N706   C720    1.359   .     A
C707   C800    1.338   1_455 S
C707   H815    1.087   1_455 S
C708   C753    1.338   .     S
C708   H770    1.087   .     S
C709   C716    1.397   .     A
C709   H711    1.083   .     S
C710   C715    1.397   .     A
C710   H712    1.083   .     S
C710   C438    1.391   1_565 S
C713   N725    1.439   .     S
C713   C715    1.410   .     A
C713   C433    1.391   1_565 S
C714   N728    1.439   .     S
C714   C716    1.410   .     A
C717   N731    1.427   .     S
C718   N734    1.427   .     S
C718   C1134   1.418   .     S
C719   H721    1.082   .     S
C719   C1131   1.418   .     S
C720   H722    1.082   .     S
H723   C753    1.087   .     S
H724   C800    1.087   1_455 S
N725   O726    1.301   .     A
N725   O727    1.302   .     A
N728   O730    1.302   .     A
N728   O729    1.301   .     A
N731   O732    1.301   .     A
N731   O733    1.300   .     A
N734   O735    1.301   .     A
N734   O736    1.300   .     A
O737   C741    1.293   .     A
O737   Cu749   1.952   .     S
O738   C742    1.293   .     A
O738   Cu750   1.952   .     S
O739   Cu750   1.960   .     S
O739   C741    1.297   .     A
O740   C742    1.297   .     A
O740   Cu749   1.960   .     S
C741   C762    1.445   .     S
C742   C761    1.445   .     S
O743   C747    1.290   .     A
O743   Cu749   1.953   .     S
O744   C748    1.290   .     A
O744   Cu750   1.953   .     S
O745   Cu750   1.958   .     S
O745   C747    1.296   .     A
O746   C748    1.296   .     A
O746   Cu749   1.958   .     S
C747   C753    1.435   .     S
C748   C754    1.435   .     S
Cu749  N751    2.026   .     S
Cu749  Cu750   2.696   .     S
Cu750  N752    2.026   .     S
N751   C764    1.382   .     A
N751   C765    1.359   .     A
N752   C763    1.382   .     A
N752   C766    1.359   .     A
C754   C799    1.338   .     S
C754   H816    1.087   .     S
C755   C762    1.397   .     A
C755   H757    1.083   .     S
C756   C761    1.397   .     A
C756   H758    1.083   .     S
C756   C484    1.391   1_565 S
C759   N771    1.439   .     S
C759   C761    1.410   .     A
C759   C479    1.391   1_565 S
C760   N774    1.439   .     S
C760   C762    1.410   .     A
C763   N777    1.427   .     S
C764   N780    1.427   .     S
C764   C1180   1.418   .     S
C765   H767    1.082   .     S
C765   C1177   1.418   .     S
C766   H768    1.082   .     S
H769   C799    1.087   .     S
N771   O772    1.301   .     A
N771   O773    1.302   .     A
N774   O776    1.302   .     A
N774   O775    1.301   .     A
N777   O778    1.301   .     A
N777   O779    1.300   .     A
N780   O781    1.301   .     A
N780   O782    1.300   .     A
O783   C787    1.293   .     A
O783   Cu795   1.952   .     S
O784   C788    1.293   .     A
O784   Cu796   1.952   .     S
O785   Cu796   1.960   .     S
O785   C787    1.297   .     A
O786   C788    1.297   .     A
O786   Cu795   1.960   .     S
C787   C808    1.445   .     S
C788   C807    1.445   .     S
O789   C793    1.290   .     A
O789   Cu795   1.953   .     S
O790   C794    1.290   .     A
O790   Cu796   1.953   .     S
O791   Cu796   1.958   .     S
O791   C793    1.296   .     A
O792   C794    1.296   .     A
O792   Cu795   1.958   .     S
C793   C799    1.435   .     S
C794   C800    1.435   .     S
Cu795  N797    2.026   .     S
Cu795  Cu796   2.696   .     S
Cu796  N798    2.026   .     S
N797   C810    1.382   .     A
N797   C811    1.359   .     A
N798   C809    1.382   .     A
N798   C812    1.359   .     A
C800   C707    1.338   1_655 S
C800   H724    1.087   1_655 S
C801   C808    1.397   .     A
C801   H803    1.083   .     S
C802   C807    1.397   .     A
C802   H804    1.083   .     S
C802   C530    1.391   1_565 S
C805   N817    1.439   .     S
C805   C807    1.410   .     A
C805   C525    1.391   1_565 S
C806   N820    1.439   .     S
C806   C808    1.410   .     A
C809   N823    1.427   .     S
C810   N826    1.427   .     S
C810   C1226   1.418   .     S
C811   H813    1.082   .     S
C811   C1223   1.418   .     S
C812   H814    1.082   .     S
H815   C707    1.087   1_655 S
N817   O818    1.301   .     A
N817   O819    1.302   .     A
N820   O822    1.302   .     A
N820   O821    1.301   .     A
N823   O824    1.301   .     A
N823   O825    1.300   .     A
N826   O827    1.301   .     A
N826   O828    1.300   .     A
O829   C833    1.293   .     A
O829   Cu841   1.952   .     S
O830   C834    1.293   .     A
O830   Cu842   1.952   .     S
O831   Cu842   1.960   .     S
O831   C833    1.297   .     A
O832   C834    1.297   .     A
O832   Cu841   1.960   .     S
C833   C854    1.445   .     S
C834   C853    1.445   .     S
O835   C839    1.290   .     A
O835   Cu841   1.953   .     S
O836   C840    1.290   .     A
O836   Cu842   1.953   .     S
O837   Cu842   1.958   .     S
O837   C839    1.296   .     A
O838   C840    1.296   .     A
O838   Cu841   1.958   .     S
C839   C845    1.435   .     S
C840   C846    1.435   .     S
Cu841  N843    2.026   .     S
Cu841  Cu842   2.696   .     S
Cu842  N844    2.026   .     S
N843   C856    1.382   .     A
N843   C857    1.359   .     A
N844   C855    1.382   .     A
N844   C858    1.359   .     A
C845   C938    1.338   1_455 S
C845   H953    1.087   1_455 S
C846   C891    1.338   .     S
C846   H908    1.087   .     S
C847   C854    1.397   .     A
C847   H849    1.083   .     S
C847   C1127   1.391   1_545 S
C848   C853    1.397   .     A
C848   H850    1.083   .     S
C848   C990    1.391   .     S
C851   N863    1.439   .     S
C851   C853    1.410   .     A
C851   C985    1.391   .     S
C852   N866    1.439   .     S
C852   C854    1.410   .     A
C852   C1124   1.391   1_545 S
C855   N869    1.427   .     S
C856   N872    1.427   .     S
C856   C30     1.418   1_556 S
C857   H859    1.082   .     S
C857   C27     1.418   1_556 S
C858   H860    1.082   .     S
H861   C891    1.087   .     S
H862   C938    1.087   1_455 S
N863   O864    1.301   .     A
N863   O865    1.302   .     A
N866   O868    1.302   .     A
N866   O867    1.301   .     A
N869   O870    1.301   .     A
N869   O871    1.300   .     A
N872   O873    1.301   .     A
N872   O874    1.300   .     A
O875   C879    1.293   .     A
O875   Cu887   1.952   .     S
O876   C880    1.293   .     A
O876   Cu888   1.952   .     S
O877   Cu888   1.960   .     S
O877   C879    1.297   .     A
O878   C880    1.297   .     A
O878   Cu887   1.960   .     S
C879   C900    1.445   .     S
C880   C899    1.445   .     S
O881   C885    1.290   .     A
O881   Cu887   1.953   .     S
O882   C886    1.290   .     A
O882   Cu888   1.953   .     S
O883   Cu888   1.958   .     S
O883   C885    1.296   .     A
O884   C886    1.296   .     A
O884   Cu887   1.958   .     S
C885   C891    1.435   .     S
C886   C892    1.435   .     S
Cu887  N889    2.026   .     S
Cu887  Cu888   2.696   .     S
Cu888  N890    2.026   .     S
N889   C902    1.382   .     A
N889   C903    1.359   .     A
N890   C901    1.382   .     A
N890   C904    1.359   .     A
C892   C937    1.338   .     S
C892   H954    1.087   .     S
C893   C900    1.397   .     A
C893   H895    1.083   .     S
C893   C1173   1.391   1_545 S
C894   C899    1.397   .     A
C894   H896    1.083   .     S
C894   C1036   1.391   .     S
C897   N909    1.439   .     S
C897   C899    1.410   .     A
C897   C1031   1.391   .     S
C898   N912    1.439   .     S
C898   C900    1.410   .     A
C898   C1170   1.391   1_545 S
C901   N915    1.427   .     S
C902   N918    1.427   .     S
C902   C76     1.418   1_556 S
C903   H905    1.082   .     S
C903   C73     1.418   1_556 S
C904   H906    1.082   .     S
H907   C937    1.087   .     S
N909   O910    1.301   .     A
N909   O911    1.302   .     A
N912   O914    1.302   .     A
N912   O913    1.301   .     A
N915   O916    1.301   .     A
N915   O917    1.300   .     A
N918   O919    1.301   .     A
N918   O920    1.300   .     A
O921   C925    1.293   .     A
O921   Cu933   1.952   .     S
O922   C926    1.293   .     A
O922   Cu934   1.952   .     S
O923   Cu934   1.960   .     S
O923   C925    1.297   .     A
O924   C926    1.297   .     A
O924   Cu933   1.960   .     S
C925   C946    1.445   .     S
C926   C945    1.445   .     S
O927   C931    1.290   .     A
O927   Cu933   1.953   .     S
O928   C932    1.290   .     A
O928   Cu934   1.953   .     S
O929   Cu934   1.958   .     S
O929   C931    1.296   .     A
O930   C932    1.296   .     A
O930   Cu933   1.958   .     S
C931   C937    1.435   .     S
C932   C938    1.435   .     S
Cu933  N935    2.026   .     S
Cu933  Cu934   2.696   .     S
Cu934  N936    2.026   .     S
N935   C948    1.382   .     A
N935   C949    1.359   .     A
N936   C947    1.382   .     A
N936   C950    1.359   .     A
C938   C845    1.338   1_655 S
C938   H862    1.087   1_655 S
C939   C946    1.397   .     A
C939   H941    1.083   .     S
C939   C1219   1.391   1_545 S
C940   C945    1.397   .     A
C940   H942    1.083   .     S
C940   C1082   1.391   .     S
C943   N955    1.439   .     S
C943   C945    1.410   .     A
C943   C1077   1.391   .     S
C944   N958    1.439   .     S
C944   C946    1.410   .     A
C944   C1216   1.391   1_545 S
C947   N961    1.427   .     S
C948   N964    1.427   .     S
C948   C122    1.418   1_556 S
C949   H951    1.082   .     S
C949   C119    1.418   1_556 S
C950   H952    1.082   .     S
H953   C845    1.087   1_655 S
N955   O956    1.301   .     A
N955   O957    1.302   .     A
N958   O960    1.302   .     A
N958   O959    1.301   .     A
N961   O962    1.301   .     A
N961   O963    1.300   .     A
N964   O965    1.301   .     A
N964   O966    1.300   .     A
O967   C971    1.293   .     A
O967   Cu979   1.952   .     S
O968   C972    1.293   .     A
O968   Cu980   1.952   .     S
O969   Cu980   1.960   .     S
O969   C971    1.297   .     A
O970   C972    1.297   .     A
O970   Cu979   1.960   .     S
C971   C992    1.445   .     S
C972   C991    1.445   .     S
O973   C977    1.290   .     A
O973   Cu979   1.953   .     S
O974   C978    1.290   .     A
O974   Cu980   1.953   .     S
O975   Cu980   1.958   .     S
O975   C977    1.296   .     A
O976   C978    1.296   .     A
O976   Cu979   1.958   .     S
C977   C983    1.435   .     S
C978   C984    1.435   .     S
Cu979  N981    2.026   .     S
Cu979  Cu980   2.696   .     S
Cu980  N982    2.026   .     S
N981   C994    1.382   .     A
N981   C995    1.359   .     A
N982   C993    1.382   .     A
N982   C996    1.359   .     A
C983   C1076   1.338   1_455 S
C983   H1091   1.087   1_455 S
C984   C1029   1.338   .     S
C984   H1046   1.087   .     S
C985   C992    1.397   .     A
C985   H987    1.083   .     S
C986   C991    1.397   .     A
C986   H988    1.083   .     S
C986   C1128   1.391   .     S
C989   N1001   1.439   .     S
C989   C991    1.410   .     A
C989   C1123   1.391   .     S
C990   N1004   1.439   .     S
C990   C992    1.410   .     A
C993   N1007   1.427   .     S
C994   N1010   1.427   .     S
C994   C168    1.418   1_556 S
C995   H997    1.082   .     S
C995   C165    1.418   1_556 S
C996   H998    1.082   .     S
H999   C1029   1.087   .     S
H1000  C1076   1.087   1_455 S
N1001  O1002   1.301   .     A
N1001  O1003   1.302   .     A
N1004  O1006   1.302   .     A
N1004  O1005   1.301   .     A
N1007  O1008   1.301   .     A
N1007  O1009   1.300   .     A
N1010  O1011   1.301   .     A
N1010  O1012   1.300   .     A
O1013  C1017   1.293   .     A
O1013  Cu1025  1.952   .     S
O1014  C1018   1.293   .     A
O1014  Cu1026  1.952   .     S
O1015  Cu1026  1.960   .     S
O1015  C1017   1.297   .     A
O1016  C1018   1.297   .     A
O1016  Cu1025  1.960   .     S
C1017  C1038   1.445   .     S
C1018  C1037   1.445   .     S
O1019  C1023   1.290   .     A
O1019  Cu1025  1.953   .     S
O1020  C1024   1.290   .     A
O1020  Cu1026  1.953   .     S
O1021  Cu1026  1.958   .     S
O1021  C1023   1.296   .     A
O1022  C1024   1.296   .     A
O1022  Cu1025  1.958   .     S
C1023  C1029   1.435   .     S
C1024  C1030   1.435   .     S
Cu1025 N1027   2.026   .     S
Cu1025 Cu1026  2.696   .     S
Cu1026 N1028   2.026   .     S
N1027  C1040   1.382   .     A
N1027  C1041   1.359   .     A
N1028  C1039   1.382   .     A
N1028  C1042   1.359   .     A
C1030  C1075   1.338   .     S
C1030  H1092   1.087   .     S
C1031  C1038   1.397   .     A
C1031  H1033   1.083   .     S
C1032  C1037   1.397   .     A
C1032  H1034   1.083   .     S
C1032  C1174   1.391   .     S
C1035  N1047   1.439   .     S
C1035  C1037   1.410   .     A
C1035  C1169   1.391   .     S
C1036  N1050   1.439   .     S
C1036  C1038   1.410   .     A
C1039  N1053   1.427   .     S
C1040  N1056   1.427   .     S
C1040  C214    1.418   1_556 S
C1041  H1043   1.082   .     S
C1041  C211    1.418   1_556 S
C1042  H1044   1.082   .     S
H1045  C1075   1.087   .     S
N1047  O1048   1.301   .     A
N1047  O1049   1.302   .     A
N1050  O1052   1.302   .     A
N1050  O1051   1.301   .     A
N1053  O1054   1.301   .     A
N1053  O1055   1.300   .     A
N1056  O1057   1.301   .     A
N1056  O1058   1.300   .     A
O1059  C1063   1.293   .     A
O1059  Cu1071  1.952   .     S
O1060  C1064   1.293   .     A
O1060  Cu1072  1.952   .     S
O1061  Cu1072  1.960   .     S
O1061  C1063   1.297   .     A
O1062  C1064   1.297   .     A
O1062  Cu1071  1.960   .     S
C1063  C1084   1.445   .     S
C1064  C1083   1.445   .     S
O1065  C1069   1.290   .     A
O1065  Cu1071  1.953   .     S
O1066  C1070   1.290   .     A
O1066  Cu1072  1.953   .     S
O1067  Cu1072  1.958   .     S
O1067  C1069   1.296   .     A
O1068  C1070   1.296   .     A
O1068  Cu1071  1.958   .     S
C1069  C1075   1.435   .     S
C1070  C1076   1.435   .     S
Cu1071 N1073   2.026   .     S
Cu1071 Cu1072  2.696   .     S
Cu1072 N1074   2.026   .     S
N1073  C1086   1.382   .     A
N1073  C1087   1.359   .     A
N1074  C1085   1.382   .     A
N1074  C1088   1.359   .     A
C1076  C983    1.338   1_655 S
C1076  H1000   1.087   1_655 S
C1077  C1084   1.397   .     A
C1077  H1079   1.083   .     S
C1078  C1083   1.397   .     A
C1078  H1080   1.083   .     S
C1078  C1220   1.391   .     S
C1081  N1093   1.439   .     S
C1081  C1083   1.410   .     A
C1081  C1215   1.391   .     S
C1082  N1096   1.439   .     S
C1082  C1084   1.410   .     A
C1085  N1099   1.427   .     S
C1086  N1102   1.427   .     S
C1086  C260    1.418   1_556 S
C1087  H1089   1.082   .     S
C1087  C257    1.418   1_556 S
C1088  H1090   1.082   .     S
H1091  C983    1.087   1_655 S
N1093  O1094   1.301   .     A
N1093  O1095   1.302   .     A
N1096  O1098   1.302   .     A
N1096  O1097   1.301   .     A
N1099  O1100   1.301   .     A
N1099  O1101   1.300   .     A
N1102  O1103   1.301   .     A
N1102  O1104   1.300   .     A
O1105  C1109   1.293   .     A
O1105  Cu1117  1.952   .     S
O1106  C1110   1.293   .     A
O1106  Cu1118  1.952   .     S
O1107  Cu1118  1.960   .     S
O1107  C1109   1.297   .     A
O1108  C1110   1.297   .     A
O1108  Cu1117  1.960   .     S
C1109  C1130   1.445   .     S
C1110  C1129   1.445   .     S
O1111  C1115   1.290   .     A
O1111  Cu1117  1.953   .     S
O1112  C1116   1.290   .     A
O1112  Cu1118  1.953   .     S
O1113  Cu1118  1.958   .     S
O1113  C1115   1.296   .     A
O1114  C1116   1.296   .     A
O1114  Cu1117  1.958   .     S
C1115  C1121   1.435   .     S
C1116  C1122   1.435   .     S
Cu1117 N1119   2.026   .     S
Cu1117 Cu1118  2.696   .     S
Cu1118 N1120   2.026   .     S
N1119  C1132   1.382   .     A
N1119  C1133   1.359   .     A
N1120  C1131   1.382   .     A
N1120  C1134   1.359   .     A
C1121  C1214   1.338   1_455 S
C1121  H1229   1.087   1_455 S
C1122  C1167   1.338   .     S
C1122  H1184   1.087   .     S
C1123  C1130   1.397   .     A
C1123  H1125   1.083   .     S
C1124  C1129   1.397   .     A
C1124  H1126   1.083   .     S
C1124  C852    1.391   1_565 S
C1127  N1139   1.439   .     S
C1127  C1129   1.410   .     A
C1127  C847    1.391   1_565 S
C1128  N1142   1.439   .     S
C1128  C1130   1.410   .     A
C1131  N1145   1.427   .     S
C1132  N1148   1.427   .     S
C1132  C306    1.418   1_556 S
C1133  H1135   1.082   .     S
C1133  C303    1.418   1_556 S
C1134  H1136   1.082   .     S
H1137  C1167   1.087   .     S
H1138  C1214   1.087   1_455 S
N1139  O1140   1.301   .     A
N1139  O1141   1.302   .     A
N1142  O1144   1.302   .     A
N1142  O1143   1.301   .     A
N1145  O1146   1.301   .     A
N1145  O1147   1.300   .     A
N1148  O1149   1.301   .     A
N1148  O1150   1.300   .     A
O1151  C1155   1.293   .     A
O1151  Cu1163  1.952   .     S
O1152  C1156   1.293   .     A
O1152  Cu1164  1.952   .     S
O1153  Cu1164  1.960   .     S
O1153  C1155   1.297   .     A
O1154  C1156   1.297   .     A
O1154  Cu1163  1.960   .     S
C1155  C1176   1.445   .     S
C1156  C1175   1.445   .     S
O1157  C1161   1.290   .     A
O1157  Cu1163  1.953   .     S
O1158  C1162   1.290   .     A
O1158  Cu1164  1.953   .     S
O1159  Cu1164  1.958   .     S
O1159  C1161   1.296   .     A
O1160  C1162   1.296   .     A
O1160  Cu1163  1.958   .     S
C1161  C1167   1.435   .     S
C1162  C1168   1.435   .     S
Cu1163 N1165   2.026   .     S
Cu1163 Cu1164  2.696   .     S
Cu1164 N1166   2.026   .     S
N1165  C1178   1.382   .     A
N1165  C1179   1.359   .     A
N1166  C1177   1.382   .     A
N1166  C1180   1.359   .     A
C1168  C1213   1.338   .     S
C1168  H1230   1.087   .     S
C1169  C1176   1.397   .     A
C1169  H1171   1.083   .     S
C1170  C1175   1.397   .     A
C1170  H1172   1.083   .     S
C1170  C898    1.391   1_565 S
C1173  N1185   1.439   .     S
C1173  C1175   1.410   .     A
C1173  C893    1.391   1_565 S
C1174  N1188   1.439   .     S
C1174  C1176   1.410   .     A
C1177  N1191   1.427   .     S
C1178  N1194   1.427   .     S
C1178  C352    1.418   1_556 S
C1179  H1181   1.082   .     S
C1179  C349    1.418   1_556 S
C1180  H1182   1.082   .     S
H1183  C1213   1.087   .     S
N1185  O1186   1.301   .     A
N1185  O1187   1.302   .     A
N1188  O1190   1.302   .     A
N1188  O1189   1.301   .     A
N1191  O1192   1.301   .     A
N1191  O1193   1.300   .     A
N1194  O1195   1.301   .     A
N1194  O1196   1.300   .     A
O1197  C1201   1.293   .     A
O1197  Cu1209  1.952   .     S
O1198  C1202   1.293   .     A
O1198  Cu1210  1.952   .     S
O1199  Cu1210  1.960   .     S
O1199  C1201   1.297   .     A
O1200  C1202   1.297   .     A
O1200  Cu1209  1.960   .     S
C1201  C1222   1.445   .     S
C1202  C1221   1.445   .     S
O1203  C1207   1.290   .     A
O1203  Cu1209  1.953   .     S
O1204  C1208   1.290   .     A
O1204  Cu1210  1.953   .     S
O1205  Cu1210  1.958   .     S
O1205  C1207   1.296   .     A
O1206  C1208   1.296   .     A
O1206  Cu1209  1.958   .     S
C1207  C1213   1.435   .     S
C1208  C1214   1.435   .     S
Cu1209 N1211   2.026   .     S
Cu1209 Cu1210  2.696   .     S
Cu1210 N1212   2.026   .     S
N1211  C1224   1.382   .     A
N1211  C1225   1.359   .     A
N1212  C1223   1.382   .     A
N1212  C1226   1.359   .     A
C1214  C1121   1.338   1_655 S
C1214  H1138   1.087   1_655 S
C1215  C1222   1.397   .     A
C1215  H1217   1.083   .     S
C1216  C1221   1.397   .     A
C1216  H1218   1.083   .     S
C1216  C944    1.391   1_565 S
C1219  N1231   1.439   .     S
C1219  C1221   1.410   .     A
C1219  C939    1.391   1_565 S
C1220  N1234   1.439   .     S
C1220  C1222   1.410   .     A
C1223  N1237   1.427   .     S
C1224  N1240   1.427   .     S
C1224  C398    1.418   1_556 S
C1225  H1227   1.082   .     S
C1225  C395    1.418   1_556 S
C1226  H1228   1.082   .     S
H1229  C1121   1.087   1_655 S
N1231  O1232   1.301   .     A
N1231  O1233   1.302   .     A
N1234  O1236   1.302   .     A
N1234  O1235   1.301   .     A
N1237  O1238   1.301   .     A
N1237  O1239   1.300   .     A
N1240  O1241   1.301   .     A
N1240  O1242   1.300   .     A
