data_str_m2_o1_o2_pcu_sym.75
_audit_creation_date              2020-01-03
_audit_creation_method            'Materials Studio'
_symmetry_space_group_name_H-M    'P1'
_symmetry_Int_Tables_number       1
_symmetry_cell_setting            triclinic
loop_
_symmetry_equiv_pos_as_xyz
  x,y,z
_cell_length_a                    32.5354
_cell_length_b                    29.1198
_cell_length_c                    30.4283
_cell_angle_alpha                 90.0086
_cell_angle_beta                  101.5571
_cell_angle_gamma                 89.9993
loop_
_atom_site_label
_atom_site_type_symbol
_atom_site_fract_x
_atom_site_fract_y
_atom_site_fract_z
_atom_site_U_iso_or_equiv
_atom_site_adp_type
_atom_site_occupancy
C1     C     0.08765   0.16658   0.25089   0.00000  Uiso   1.00
C2     C     0.31186   0.20767   0.24846   0.00000  Uiso   1.00
C3     C     0.31196   0.12442   0.24968   0.00000  Uiso   1.00
C4     C     0.02147   0.20767   0.25154   0.00000  Uiso   1.00
C5     C     0.17571   0.20885   0.05018   0.00000  Uiso   1.00
C6     C     0.17247   0.12733   0.45320   0.00000  Uiso   1.00
C7     C     0.15782   0.20888   0.44988   0.00000  Uiso   1.00
C8     C     0.16078   0.12735   0.04677   0.00000  Uiso   1.00
C9     C     0.17559   0.20855   0.09596   0.00000  Uiso   1.00
C10    C     0.16980   0.12674   0.40719   0.00000  Uiso   1.00
C11    C     0.15792   0.20859   0.40409   0.00000  Uiso   1.00
C12    C     0.24568   0.16658   0.24911   0.00000  Uiso   1.00
C13    C     0.16344   0.12675   0.09278   0.00000  Uiso   1.00
C14    C     0.16910   0.16739   0.11751   0.00000  Uiso   1.00
C15    C     0.16426   0.16740   0.38249   0.00000  Uiso   1.00
C16    C     0.16737   0.16832   0.02459   0.00000  Uiso   1.00
C17    C     0.16602   0.16832   0.47542   0.00000  Uiso   1.00
C18    C     0.29032   0.16618   0.24879   0.00000  Uiso   1.00
C19    C     0.04301   0.16618   0.25121   0.00000  Uiso   1.00
C20    C     0.16782   0.16679   0.16541   0.00000  Uiso   1.00
C21    C     0.16552   0.16680   0.33459   0.00000  Uiso   1.00
C22    C     0.13734   0.02512   0.21862   0.00000  Uiso   1.00
C23    C     0.19632   0.30815   0.28109   0.00000  Uiso   1.00
C24    C     0.19599   0.02513   0.28138   0.00000  Uiso   1.00
C25    C     0.13702   0.30814   0.21892   0.00000  Uiso   1.00
C26    C     0.02137   0.12442   0.25032   0.00000  Uiso   1.00
Cu27   Cu    0.16667   0.21355   0.25000   0.00000  Uiso   1.00
Cu28   Cu    0.16667   0.11978   0.25000   0.00000  Uiso   1.00
H29    H     0.03738   0.09180   0.25033   0.00000  Uiso   1.00
H30    H     0.18001   0.09529   0.47081   0.00000  Uiso   1.00
H31    H     0.15101   0.24097   0.46476   0.00000  Uiso   1.00
H32    H     0.15313   0.09534   0.02913   0.00000  Uiso   1.00
H33    H     0.18112   0.24046   0.11451   0.00000  Uiso   1.00
H34    H     0.17236   0.09433   0.39109   0.00000  Uiso   1.00
H35    H     0.15250   0.24051   0.38557   0.00000  Uiso   1.00
H36    H     0.16076   0.09436   0.10884   0.00000  Uiso   1.00
H37    H     0.29566   0.24015   0.24579   0.00000  Uiso   1.00
H38    H     0.29596   0.09180   0.24968   0.00000  Uiso   1.00
H39    H     0.03768   0.24015   0.25421   0.00000  Uiso   1.00
H40    H     0.07361   0.11750   0.14245   0.00000  Uiso   1.00
H41    H     0.26832   0.21499   0.34690   0.00000  Uiso   1.00
H42    H     0.26001   0.11750   0.35738   0.00000  Uiso   1.00
H43    H     0.06499   0.21495   0.15315   0.00000  Uiso   1.00
H44    H     0.18262   0.24091   0.03534   0.00000  Uiso   1.00
N45    N     0.16667   0.28402   0.25000   0.00000  Uiso   1.00
N46    N     0.16667   0.04931   0.25000   0.00000  Uiso   1.00
O47    O     0.10655   0.20625   0.24999   0.00000  Uiso   1.00
O48    O     0.05655   0.03682   0.17254   0.00000  Uiso   1.00
O49    O     0.09275   0.11156   0.17158   0.00000  Uiso   1.00
O50    O     0.27867   0.28863   0.30382   0.00000  Uiso   1.00
O51    O     0.24310   0.29669   0.36659   0.00000  Uiso   1.00
O52    O     0.24007   0.22164   0.32882   0.00000  Uiso   1.00
O53    O     0.22049   0.04307   0.36939   0.00000  Uiso   1.00
O54    O     0.27678   0.03683   0.32748   0.00000  Uiso   1.00
O55    O     0.24059   0.11159   0.32842   0.00000  Uiso   1.00
O56    O     0.05466   0.28862   0.19619   0.00000  Uiso   1.00
O57    O     0.09021   0.29665   0.13341   0.00000  Uiso   1.00
O58    O     0.22679   0.12709   0.25000   0.00000  Uiso   1.00
O59    O     0.09326   0.22161   0.17118   0.00000  Uiso   1.00
O60    O     0.22679   0.20625   0.25000   0.00000  Uiso   1.00
O61    O     0.10655   0.12709   0.24999   0.00000  Uiso   1.00
O62    O     0.16666   0.20626   0.18573   0.00000  Uiso   1.00
O63    O     0.16667   0.12707   0.31427   0.00000  Uiso   1.00
O64    O     0.16667   0.20626   0.31427   0.00000  Uiso   1.00
O65    O     0.16666   0.12707   0.18573   0.00000  Uiso   1.00
O66    O     0.11282   0.04300   0.13062   0.00000  Uiso   1.00
S67    S     0.10001   0.05467   0.17397   0.00000  Uiso   1.00
S68    S     0.23897   0.27836   0.31993   0.00000  Uiso   1.00
S69    S     0.23332   0.05469   0.32604   0.00000  Uiso   1.00
S70    S     0.09436   0.27834   0.18007   0.00000  Uiso   1.00
C71    C     0.42098   0.16658   0.25089   0.00000  Uiso   1.00
C72    C     0.64520   0.20767   0.24846   0.00000  Uiso   1.00
C73    C     0.64529   0.12442   0.24968   0.00000  Uiso   1.00
C74    C     0.35480   0.20767   0.25154   0.00000  Uiso   1.00
C75    C     0.50904   0.20885   0.05018   0.00000  Uiso   1.00
C76    C     0.50581   0.12733   0.45320   0.00000  Uiso   1.00
C77    C     0.49115   0.20888   0.44988   0.00000  Uiso   1.00
C78    C     0.49411   0.12735   0.04677   0.00000  Uiso   1.00
C79    C     0.50892   0.20855   0.09596   0.00000  Uiso   1.00
C80    C     0.50313   0.12674   0.40719   0.00000  Uiso   1.00
C81    C     0.49125   0.20859   0.40409   0.00000  Uiso   1.00
C82    C     0.57902   0.16658   0.24911   0.00000  Uiso   1.00
C83    C     0.49677   0.12675   0.09278   0.00000  Uiso   1.00
C84    C     0.50244   0.16739   0.11751   0.00000  Uiso   1.00
C85    C     0.49759   0.16740   0.38249   0.00000  Uiso   1.00
C86    C     0.50070   0.16832   0.02459   0.00000  Uiso   1.00
C87    C     0.49936   0.16832   0.47542   0.00000  Uiso   1.00
C88    C     0.62366   0.16618   0.24879   0.00000  Uiso   1.00
C89    C     0.37634   0.16618   0.25121   0.00000  Uiso   1.00
C90    C     0.50115   0.16679   0.16541   0.00000  Uiso   1.00
C91    C     0.49886   0.16680   0.33459   0.00000  Uiso   1.00
C92    C     0.47067   0.02512   0.21862   0.00000  Uiso   1.00
C93    C     0.52965   0.30815   0.28109   0.00000  Uiso   1.00
C94    C     0.52932   0.02513   0.28138   0.00000  Uiso   1.00
C95    C     0.47035   0.30814   0.21892   0.00000  Uiso   1.00
C96    C     0.35471   0.12442   0.25032   0.00000  Uiso   1.00
Cu97   Cu    0.50000   0.21355   0.25000   0.00000  Uiso   1.00
Cu98   Cu    0.50000   0.11978   0.25000   0.00000  Uiso   1.00
H99    H     0.37071   0.09180   0.25033   0.00000  Uiso   1.00
H100   H     0.51335   0.09529   0.47081   0.00000  Uiso   1.00
H101   H     0.48435   0.24097   0.46476   0.00000  Uiso   1.00
H102   H     0.48646   0.09534   0.02913   0.00000  Uiso   1.00
H103   H     0.51445   0.24046   0.11451   0.00000  Uiso   1.00
H104   H     0.50570   0.09433   0.39109   0.00000  Uiso   1.00
H105   H     0.48583   0.24051   0.38557   0.00000  Uiso   1.00
H106   H     0.49410   0.09436   0.10884   0.00000  Uiso   1.00
H107   H     0.62899   0.24015   0.24579   0.00000  Uiso   1.00
H108   H     0.62929   0.09180   0.24968   0.00000  Uiso   1.00
H109   H     0.37101   0.24015   0.25421   0.00000  Uiso   1.00
H110   H     0.40694   0.11750   0.14245   0.00000  Uiso   1.00
H111   H     0.60165   0.21499   0.34690   0.00000  Uiso   1.00
H112   H     0.59334   0.11750   0.35738   0.00000  Uiso   1.00
H113   H     0.39832   0.21495   0.15315   0.00000  Uiso   1.00
H114   H     0.51596   0.24091   0.03534   0.00000  Uiso   1.00
N115   N     0.50000   0.28402   0.25000   0.00000  Uiso   1.00
N116   N     0.50000   0.04931   0.25000   0.00000  Uiso   1.00
O117   O     0.43988   0.20625   0.24999   0.00000  Uiso   1.00
O118   O     0.38988   0.03682   0.17254   0.00000  Uiso   1.00
O119   O     0.42609   0.11156   0.17158   0.00000  Uiso   1.00
O120   O     0.61201   0.28863   0.30382   0.00000  Uiso   1.00
O121   O     0.57644   0.29669   0.36659   0.00000  Uiso   1.00
O122   O     0.57340   0.22164   0.32882   0.00000  Uiso   1.00
O123   O     0.55383   0.04307   0.36939   0.00000  Uiso   1.00
O124   O     0.61011   0.03683   0.32748   0.00000  Uiso   1.00
O125   O     0.57393   0.11159   0.32842   0.00000  Uiso   1.00
O126   O     0.38799   0.28862   0.19619   0.00000  Uiso   1.00
O127   O     0.42355   0.29665   0.13341   0.00000  Uiso   1.00
O128   O     0.56012   0.12709   0.25000   0.00000  Uiso   1.00
O129   O     0.42659   0.22161   0.17118   0.00000  Uiso   1.00
O130   O     0.56012   0.20625   0.25000   0.00000  Uiso   1.00
O131   O     0.43988   0.12709   0.24999   0.00000  Uiso   1.00
O132   O     0.50000   0.20626   0.18573   0.00000  Uiso   1.00
O133   O     0.50000   0.12707   0.31427   0.00000  Uiso   1.00
O134   O     0.50000   0.20626   0.31427   0.00000  Uiso   1.00
O135   O     0.50000   0.12707   0.18573   0.00000  Uiso   1.00
O136   O     0.44616   0.04300   0.13062   0.00000  Uiso   1.00
S137   S     0.43334   0.05467   0.17397   0.00000  Uiso   1.00
S138   S     0.57230   0.27836   0.31993   0.00000  Uiso   1.00
S139   S     0.56665   0.05469   0.32604   0.00000  Uiso   1.00
S140   S     0.42769   0.27834   0.18007   0.00000  Uiso   1.00
C141   C     0.75432   0.16658   0.25089   0.00000  Uiso   1.00
C142   C     0.97853   0.20767   0.24846   0.00000  Uiso   1.00
C143   C     0.97863   0.12442   0.24968   0.00000  Uiso   1.00
C144   C     0.68814   0.20767   0.25154   0.00000  Uiso   1.00
C145   C     0.84237   0.20885   0.05018   0.00000  Uiso   1.00
C146   C     0.83914   0.12733   0.45320   0.00000  Uiso   1.00
C147   C     0.82449   0.20888   0.44988   0.00000  Uiso   1.00
C148   C     0.82744   0.12735   0.04677   0.00000  Uiso   1.00
C149   C     0.84225   0.20855   0.09596   0.00000  Uiso   1.00
C150   C     0.83646   0.12674   0.40719   0.00000  Uiso   1.00
C151   C     0.82459   0.20859   0.40409   0.00000  Uiso   1.00
C152   C     0.91235   0.16658   0.24911   0.00000  Uiso   1.00
C153   C     0.83011   0.12675   0.09278   0.00000  Uiso   1.00
C154   C     0.83577   0.16739   0.11751   0.00000  Uiso   1.00
C155   C     0.83093   0.16740   0.38249   0.00000  Uiso   1.00
C156   C     0.83403   0.16832   0.02459   0.00000  Uiso   1.00
C157   C     0.83269   0.16832   0.47542   0.00000  Uiso   1.00
C158   C     0.95699   0.16618   0.24879   0.00000  Uiso   1.00
C159   C     0.70968   0.16618   0.25121   0.00000  Uiso   1.00
C160   C     0.83448   0.16679   0.16541   0.00000  Uiso   1.00
C161   C     0.83219   0.16680   0.33459   0.00000  Uiso   1.00
C162   C     0.80401   0.02512   0.21862   0.00000  Uiso   1.00
C163   C     0.86298   0.30815   0.28109   0.00000  Uiso   1.00
C164   C     0.86266   0.02513   0.28138   0.00000  Uiso   1.00
C165   C     0.80368   0.30814   0.21892   0.00000  Uiso   1.00
C166   C     0.68804   0.12442   0.25032   0.00000  Uiso   1.00
Cu167  Cu    0.83333   0.21355   0.25000   0.00000  Uiso   1.00
Cu168  Cu    0.83333   0.11978   0.25000   0.00000  Uiso   1.00
H169   H     0.70404   0.09180   0.25033   0.00000  Uiso   1.00
H170   H     0.84668   0.09529   0.47081   0.00000  Uiso   1.00
H171   H     0.81768   0.24097   0.46476   0.00000  Uiso   1.00
H172   H     0.81980   0.09534   0.02913   0.00000  Uiso   1.00
H173   H     0.84779   0.24046   0.11451   0.00000  Uiso   1.00
H174   H     0.83903   0.09433   0.39109   0.00000  Uiso   1.00
H175   H     0.81916   0.24051   0.38557   0.00000  Uiso   1.00
H176   H     0.82743   0.09436   0.10884   0.00000  Uiso   1.00
H177   H     0.96233   0.24015   0.24579   0.00000  Uiso   1.00
H178   H     0.96263   0.09180   0.24968   0.00000  Uiso   1.00
H179   H     0.70434   0.24015   0.25421   0.00000  Uiso   1.00
H180   H     0.74028   0.11750   0.14245   0.00000  Uiso   1.00
H181   H     0.93498   0.21499   0.34690   0.00000  Uiso   1.00
H182   H     0.92667   0.11750   0.35738   0.00000  Uiso   1.00
H183   H     0.73166   0.21495   0.15315   0.00000  Uiso   1.00
H184   H     0.84929   0.24091   0.03534   0.00000  Uiso   1.00
N185   N     0.83333   0.28402   0.25000   0.00000  Uiso   1.00
N186   N     0.83333   0.04931   0.25000   0.00000  Uiso   1.00
O187   O     0.77321   0.20625   0.24999   0.00000  Uiso   1.00
O188   O     0.72322   0.03682   0.17254   0.00000  Uiso   1.00
O189   O     0.75942   0.11156   0.17158   0.00000  Uiso   1.00
O190   O     0.94534   0.28863   0.30382   0.00000  Uiso   1.00
O191   O     0.90977   0.29669   0.36659   0.00000  Uiso   1.00
O192   O     0.90673   0.22164   0.32882   0.00000  Uiso   1.00
O193   O     0.88716   0.04307   0.36939   0.00000  Uiso   1.00
O194   O     0.94344   0.03683   0.32748   0.00000  Uiso   1.00
O195   O     0.90726   0.11159   0.32842   0.00000  Uiso   1.00
O196   O     0.72132   0.28862   0.19619   0.00000  Uiso   1.00
O197   O     0.75688   0.29665   0.13341   0.00000  Uiso   1.00
O198   O     0.89345   0.12709   0.25000   0.00000  Uiso   1.00
O199   O     0.75993   0.22161   0.17118   0.00000  Uiso   1.00
O200   O     0.89345   0.20625   0.25000   0.00000  Uiso   1.00
O201   O     0.77321   0.12709   0.24999   0.00000  Uiso   1.00
O202   O     0.83333   0.20626   0.18573   0.00000  Uiso   1.00
O203   O     0.83334   0.12707   0.31427   0.00000  Uiso   1.00
O204   O     0.83334   0.20626   0.31427   0.00000  Uiso   1.00
O205   O     0.83333   0.12707   0.18573   0.00000  Uiso   1.00
O206   O     0.77949   0.04300   0.13062   0.00000  Uiso   1.00
S207   S     0.76668   0.05467   0.17397   0.00000  Uiso   1.00
S208   S     0.90563   0.27836   0.31993   0.00000  Uiso   1.00
S209   S     0.89999   0.05469   0.32604   0.00000  Uiso   1.00
S210   S     0.76103   0.27834   0.18007   0.00000  Uiso   1.00
C211   C     0.08765   0.49991   0.25089   0.00000  Uiso   1.00
C212   C     0.31186   0.54100   0.24846   0.00000  Uiso   1.00
C213   C     0.31196   0.45775   0.24968   0.00000  Uiso   1.00
C214   C     0.02147   0.54100   0.25154   0.00000  Uiso   1.00
C215   C     0.17571   0.54218   0.05018   0.00000  Uiso   1.00
C216   C     0.17247   0.46066   0.45320   0.00000  Uiso   1.00
C217   C     0.15782   0.54221   0.44988   0.00000  Uiso   1.00
C218   C     0.16078   0.46069   0.04677   0.00000  Uiso   1.00
C219   C     0.17559   0.54189   0.09596   0.00000  Uiso   1.00
C220   C     0.16980   0.46007   0.40719   0.00000  Uiso   1.00
C221   C     0.15792   0.54192   0.40409   0.00000  Uiso   1.00
C222   C     0.24568   0.49991   0.24911   0.00000  Uiso   1.00
C223   C     0.16344   0.46008   0.09278   0.00000  Uiso   1.00
C224   C     0.16910   0.50072   0.11751   0.00000  Uiso   1.00
C225   C     0.16426   0.50073   0.38249   0.00000  Uiso   1.00
C226   C     0.16737   0.50165   0.02459   0.00000  Uiso   1.00
C227   C     0.16602   0.50165   0.47542   0.00000  Uiso   1.00
C228   C     0.29032   0.49952   0.24879   0.00000  Uiso   1.00
C229   C     0.04301   0.49952   0.25121   0.00000  Uiso   1.00
C230   C     0.16782   0.50012   0.16541   0.00000  Uiso   1.00
C231   C     0.16552   0.50013   0.33459   0.00000  Uiso   1.00
C232   C     0.13734   0.35845   0.21862   0.00000  Uiso   1.00
C233   C     0.19632   0.64148   0.28109   0.00000  Uiso   1.00
C234   C     0.19599   0.35846   0.28138   0.00000  Uiso   1.00
C235   C     0.13702   0.64147   0.21892   0.00000  Uiso   1.00
C236   C     0.02137   0.45775   0.25032   0.00000  Uiso   1.00
Cu237  Cu    0.16667   0.54689   0.25000   0.00000  Uiso   1.00
Cu238  Cu    0.16667   0.45311   0.25000   0.00000  Uiso   1.00
H239   H     0.03738   0.42514   0.25033   0.00000  Uiso   1.00
H240   H     0.18001   0.42863   0.47081   0.00000  Uiso   1.00
H241   H     0.15101   0.57431   0.46476   0.00000  Uiso   1.00
H242   H     0.15313   0.42868   0.02913   0.00000  Uiso   1.00
H243   H     0.18112   0.57379   0.11451   0.00000  Uiso   1.00
H244   H     0.17236   0.42767   0.39109   0.00000  Uiso   1.00
H245   H     0.15250   0.57385   0.38557   0.00000  Uiso   1.00
H246   H     0.16076   0.42769   0.10884   0.00000  Uiso   1.00
H247   H     0.29566   0.57348   0.24579   0.00000  Uiso   1.00
H248   H     0.29596   0.42514   0.24968   0.00000  Uiso   1.00
H249   H     0.03768   0.57348   0.25421   0.00000  Uiso   1.00
H250   H     0.07361   0.45083   0.14245   0.00000  Uiso   1.00
H251   H     0.26832   0.54833   0.34690   0.00000  Uiso   1.00
H252   H     0.26001   0.45083   0.35738   0.00000  Uiso   1.00
H253   H     0.06499   0.54828   0.15315   0.00000  Uiso   1.00
H254   H     0.18262   0.57425   0.03534   0.00000  Uiso   1.00
N255   N     0.16667   0.61736   0.25000   0.00000  Uiso   1.00
N256   N     0.16667   0.38264   0.25000   0.00000  Uiso   1.00
O257   O     0.10655   0.53958   0.24999   0.00000  Uiso   1.00
O258   O     0.05655   0.37016   0.17254   0.00000  Uiso   1.00
O259   O     0.09275   0.44490   0.17158   0.00000  Uiso   1.00
O260   O     0.27867   0.62197   0.30382   0.00000  Uiso   1.00
O261   O     0.24310   0.63003   0.36659   0.00000  Uiso   1.00
O262   O     0.24007   0.55497   0.32882   0.00000  Uiso   1.00
O263   O     0.22049   0.37640   0.36939   0.00000  Uiso   1.00
O264   O     0.27678   0.37016   0.32748   0.00000  Uiso   1.00
O265   O     0.24059   0.44492   0.32842   0.00000  Uiso   1.00
O266   O     0.05466   0.62195   0.19619   0.00000  Uiso   1.00
O267   O     0.09021   0.62998   0.13341   0.00000  Uiso   1.00
O268   O     0.22679   0.46042   0.25000   0.00000  Uiso   1.00
O269   O     0.09326   0.55494   0.17118   0.00000  Uiso   1.00
O270   O     0.22679   0.53958   0.25000   0.00000  Uiso   1.00
O271   O     0.10655   0.46042   0.24999   0.00000  Uiso   1.00
O272   O     0.16666   0.53959   0.18573   0.00000  Uiso   1.00
O273   O     0.16667   0.46041   0.31427   0.00000  Uiso   1.00
O274   O     0.16667   0.53959   0.31427   0.00000  Uiso   1.00
O275   O     0.16666   0.46041   0.18573   0.00000  Uiso   1.00
O276   O     0.11282   0.37633   0.13062   0.00000  Uiso   1.00
S277   S     0.10001   0.38800   0.17397   0.00000  Uiso   1.00
S278   S     0.23897   0.61169   0.31993   0.00000  Uiso   1.00
S279   S     0.23332   0.38803   0.32604   0.00000  Uiso   1.00
S280   S     0.09436   0.61167   0.18007   0.00000  Uiso   1.00
C281   C     0.42098   0.49991   0.25089   0.00000  Uiso   1.00
C282   C     0.64520   0.54100   0.24846   0.00000  Uiso   1.00
C283   C     0.64529   0.45775   0.24968   0.00000  Uiso   1.00
C284   C     0.35480   0.54100   0.25154   0.00000  Uiso   1.00
C285   C     0.50904   0.54218   0.05018   0.00000  Uiso   1.00
C286   C     0.50581   0.46066   0.45320   0.00000  Uiso   1.00
C287   C     0.49115   0.54221   0.44988   0.00000  Uiso   1.00
C288   C     0.49411   0.46069   0.04677   0.00000  Uiso   1.00
C289   C     0.50892   0.54189   0.09596   0.00000  Uiso   1.00
C290   C     0.50313   0.46007   0.40719   0.00000  Uiso   1.00
C291   C     0.49125   0.54192   0.40409   0.00000  Uiso   1.00
C292   C     0.57902   0.49991   0.24911   0.00000  Uiso   1.00
C293   C     0.49677   0.46008   0.09278   0.00000  Uiso   1.00
C294   C     0.50244   0.50072   0.11751   0.00000  Uiso   1.00
C295   C     0.49759   0.50073   0.38249   0.00000  Uiso   1.00
C296   C     0.50070   0.50165   0.02459   0.00000  Uiso   1.00
C297   C     0.49936   0.50165   0.47542   0.00000  Uiso   1.00
C298   C     0.62366   0.49952   0.24879   0.00000  Uiso   1.00
C299   C     0.37634   0.49952   0.25121   0.00000  Uiso   1.00
C300   C     0.50115   0.50012   0.16541   0.00000  Uiso   1.00
C301   C     0.49886   0.50013   0.33459   0.00000  Uiso   1.00
C302   C     0.47067   0.35845   0.21862   0.00000  Uiso   1.00
C303   C     0.52965   0.64148   0.28109   0.00000  Uiso   1.00
C304   C     0.52932   0.35846   0.28138   0.00000  Uiso   1.00
C305   C     0.47035   0.64147   0.21892   0.00000  Uiso   1.00
C306   C     0.35471   0.45775   0.25032   0.00000  Uiso   1.00
Cu307  Cu    0.50000   0.54689   0.25000   0.00000  Uiso   1.00
Cu308  Cu    0.50000   0.45311   0.25000   0.00000  Uiso   1.00
H309   H     0.37071   0.42514   0.25033   0.00000  Uiso   1.00
H310   H     0.51335   0.42863   0.47081   0.00000  Uiso   1.00
H311   H     0.48435   0.57431   0.46476   0.00000  Uiso   1.00
H312   H     0.48646   0.42868   0.02913   0.00000  Uiso   1.00
H313   H     0.51445   0.57379   0.11451   0.00000  Uiso   1.00
H314   H     0.50570   0.42767   0.39109   0.00000  Uiso   1.00
H315   H     0.48583   0.57385   0.38557   0.00000  Uiso   1.00
H316   H     0.49410   0.42769   0.10884   0.00000  Uiso   1.00
H317   H     0.62899   0.57348   0.24579   0.00000  Uiso   1.00
H318   H     0.62929   0.42514   0.24968   0.00000  Uiso   1.00
H319   H     0.37101   0.57348   0.25421   0.00000  Uiso   1.00
H320   H     0.40694   0.45083   0.14245   0.00000  Uiso   1.00
H321   H     0.60165   0.54833   0.34690   0.00000  Uiso   1.00
H322   H     0.59334   0.45083   0.35738   0.00000  Uiso   1.00
H323   H     0.39832   0.54828   0.15315   0.00000  Uiso   1.00
H324   H     0.51596   0.57425   0.03534   0.00000  Uiso   1.00
N325   N     0.50000   0.61736   0.25000   0.00000  Uiso   1.00
N326   N     0.50000   0.38264   0.25000   0.00000  Uiso   1.00
O327   O     0.43988   0.53958   0.24999   0.00000  Uiso   1.00
O328   O     0.38988   0.37016   0.17254   0.00000  Uiso   1.00
O329   O     0.42609   0.44490   0.17158   0.00000  Uiso   1.00
O330   O     0.61201   0.62197   0.30382   0.00000  Uiso   1.00
O331   O     0.57644   0.63003   0.36659   0.00000  Uiso   1.00
O332   O     0.57340   0.55497   0.32882   0.00000  Uiso   1.00
O333   O     0.55383   0.37640   0.36939   0.00000  Uiso   1.00
O334   O     0.61011   0.37016   0.32748   0.00000  Uiso   1.00
O335   O     0.57393   0.44492   0.32842   0.00000  Uiso   1.00
O336   O     0.38799   0.62195   0.19619   0.00000  Uiso   1.00
O337   O     0.42355   0.62998   0.13341   0.00000  Uiso   1.00
O338   O     0.56012   0.46042   0.25000   0.00000  Uiso   1.00
O339   O     0.42659   0.55494   0.17118   0.00000  Uiso   1.00
O340   O     0.56012   0.53958   0.25000   0.00000  Uiso   1.00
O341   O     0.43988   0.46042   0.24999   0.00000  Uiso   1.00
O342   O     0.50000   0.53959   0.18573   0.00000  Uiso   1.00
O343   O     0.50000   0.46041   0.31427   0.00000  Uiso   1.00
O344   O     0.50000   0.53959   0.31427   0.00000  Uiso   1.00
O345   O     0.50000   0.46041   0.18573   0.00000  Uiso   1.00
O346   O     0.44616   0.37633   0.13062   0.00000  Uiso   1.00
S347   S     0.43334   0.38800   0.17397   0.00000  Uiso   1.00
S348   S     0.57230   0.61169   0.31993   0.00000  Uiso   1.00
S349   S     0.56665   0.38803   0.32604   0.00000  Uiso   1.00
S350   S     0.42769   0.61167   0.18007   0.00000  Uiso   1.00
C351   C     0.75432   0.49991   0.25089   0.00000  Uiso   1.00
C352   C     0.97853   0.54100   0.24846   0.00000  Uiso   1.00
C353   C     0.97863   0.45775   0.24968   0.00000  Uiso   1.00
C354   C     0.68814   0.54100   0.25154   0.00000  Uiso   1.00
C355   C     0.84237   0.54218   0.05018   0.00000  Uiso   1.00
C356   C     0.83914   0.46066   0.45320   0.00000  Uiso   1.00
C357   C     0.82449   0.54221   0.44988   0.00000  Uiso   1.00
C358   C     0.82744   0.46069   0.04677   0.00000  Uiso   1.00
C359   C     0.84225   0.54189   0.09596   0.00000  Uiso   1.00
C360   C     0.83646   0.46007   0.40719   0.00000  Uiso   1.00
C361   C     0.82459   0.54192   0.40409   0.00000  Uiso   1.00
C362   C     0.91235   0.49991   0.24911   0.00000  Uiso   1.00
C363   C     0.83011   0.46008   0.09278   0.00000  Uiso   1.00
C364   C     0.83577   0.50072   0.11751   0.00000  Uiso   1.00
C365   C     0.83093   0.50073   0.38249   0.00000  Uiso   1.00
C366   C     0.83403   0.50165   0.02459   0.00000  Uiso   1.00
C367   C     0.83269   0.50165   0.47542   0.00000  Uiso   1.00
C368   C     0.95699   0.49952   0.24879   0.00000  Uiso   1.00
C369   C     0.70968   0.49952   0.25121   0.00000  Uiso   1.00
C370   C     0.83448   0.50012   0.16541   0.00000  Uiso   1.00
C371   C     0.83219   0.50013   0.33459   0.00000  Uiso   1.00
C372   C     0.80401   0.35845   0.21862   0.00000  Uiso   1.00
C373   C     0.86298   0.64148   0.28109   0.00000  Uiso   1.00
C374   C     0.86266   0.35846   0.28138   0.00000  Uiso   1.00
C375   C     0.80368   0.64147   0.21892   0.00000  Uiso   1.00
C376   C     0.68804   0.45775   0.25032   0.00000  Uiso   1.00
Cu377  Cu    0.83333   0.54689   0.25000   0.00000  Uiso   1.00
Cu378  Cu    0.83333   0.45311   0.25000   0.00000  Uiso   1.00
H379   H     0.70404   0.42514   0.25033   0.00000  Uiso   1.00
H380   H     0.84668   0.42863   0.47081   0.00000  Uiso   1.00
H381   H     0.81768   0.57431   0.46476   0.00000  Uiso   1.00
H382   H     0.81980   0.42868   0.02913   0.00000  Uiso   1.00
H383   H     0.84779   0.57379   0.11451   0.00000  Uiso   1.00
H384   H     0.83903   0.42767   0.39109   0.00000  Uiso   1.00
H385   H     0.81916   0.57385   0.38557   0.00000  Uiso   1.00
H386   H     0.82743   0.42769   0.10884   0.00000  Uiso   1.00
H387   H     0.96233   0.57348   0.24579   0.00000  Uiso   1.00
H388   H     0.96263   0.42514   0.24968   0.00000  Uiso   1.00
H389   H     0.70434   0.57348   0.25421   0.00000  Uiso   1.00
H390   H     0.74028   0.45083   0.14245   0.00000  Uiso   1.00
H391   H     0.93498   0.54833   0.34690   0.00000  Uiso   1.00
H392   H     0.92667   0.45083   0.35738   0.00000  Uiso   1.00
H393   H     0.73166   0.54828   0.15315   0.00000  Uiso   1.00
H394   H     0.84929   0.57425   0.03534   0.00000  Uiso   1.00
N395   N     0.83333   0.61736   0.25000   0.00000  Uiso   1.00
N396   N     0.83333   0.38264   0.25000   0.00000  Uiso   1.00
O397   O     0.77321   0.53958   0.24999   0.00000  Uiso   1.00
O398   O     0.72322   0.37016   0.17254   0.00000  Uiso   1.00
O399   O     0.75942   0.44490   0.17158   0.00000  Uiso   1.00
O400   O     0.94534   0.62197   0.30382   0.00000  Uiso   1.00
O401   O     0.90977   0.63003   0.36659   0.00000  Uiso   1.00
O402   O     0.90673   0.55497   0.32882   0.00000  Uiso   1.00
O403   O     0.88716   0.37640   0.36939   0.00000  Uiso   1.00
O404   O     0.94344   0.37016   0.32748   0.00000  Uiso   1.00
O405   O     0.90726   0.44492   0.32842   0.00000  Uiso   1.00
O406   O     0.72132   0.62195   0.19619   0.00000  Uiso   1.00
O407   O     0.75688   0.62998   0.13341   0.00000  Uiso   1.00
O408   O     0.89345   0.46042   0.25000   0.00000  Uiso   1.00
O409   O     0.75993   0.55494   0.17118   0.00000  Uiso   1.00
O410   O     0.89345   0.53958   0.25000   0.00000  Uiso   1.00
O411   O     0.77321   0.46042   0.24999   0.00000  Uiso   1.00
O412   O     0.83333   0.53959   0.18573   0.00000  Uiso   1.00
O413   O     0.83334   0.46041   0.31427   0.00000  Uiso   1.00
O414   O     0.83334   0.53959   0.31427   0.00000  Uiso   1.00
O415   O     0.83333   0.46041   0.18573   0.00000  Uiso   1.00
O416   O     0.77949   0.37633   0.13062   0.00000  Uiso   1.00
S417   S     0.76668   0.38800   0.17397   0.00000  Uiso   1.00
S418   S     0.90563   0.61169   0.31993   0.00000  Uiso   1.00
S419   S     0.89999   0.38803   0.32604   0.00000  Uiso   1.00
S420   S     0.76103   0.61167   0.18007   0.00000  Uiso   1.00
C421   C     0.08765   0.83324   0.25089   0.00000  Uiso   1.00
C422   C     0.31186   0.87433   0.24846   0.00000  Uiso   1.00
C423   C     0.31196   0.79108   0.24968   0.00000  Uiso   1.00
C424   C     0.02147   0.87433   0.25154   0.00000  Uiso   1.00
C425   C     0.17571   0.87551   0.05018   0.00000  Uiso   1.00
C426   C     0.17247   0.79400   0.45320   0.00000  Uiso   1.00
C427   C     0.15782   0.87555   0.44988   0.00000  Uiso   1.00
C428   C     0.16078   0.79402   0.04677   0.00000  Uiso   1.00
C429   C     0.17559   0.87522   0.09596   0.00000  Uiso   1.00
C430   C     0.16980   0.79340   0.40719   0.00000  Uiso   1.00
C431   C     0.15792   0.87526   0.40409   0.00000  Uiso   1.00
C432   C     0.24568   0.83324   0.24911   0.00000  Uiso   1.00
C433   C     0.16344   0.79342   0.09278   0.00000  Uiso   1.00
C434   C     0.16910   0.83406   0.11751   0.00000  Uiso   1.00
C435   C     0.16426   0.83407   0.38249   0.00000  Uiso   1.00
C436   C     0.16737   0.83498   0.02459   0.00000  Uiso   1.00
C437   C     0.16602   0.83498   0.47542   0.00000  Uiso   1.00
C438   C     0.29032   0.83285   0.24879   0.00000  Uiso   1.00
C439   C     0.04301   0.83285   0.25121   0.00000  Uiso   1.00
C440   C     0.16782   0.83346   0.16541   0.00000  Uiso   1.00
C441   C     0.16552   0.83346   0.33459   0.00000  Uiso   1.00
C442   C     0.13734   0.69179   0.21862   0.00000  Uiso   1.00
C443   C     0.19632   0.97481   0.28109   0.00000  Uiso   1.00
C444   C     0.19599   0.69180   0.28138   0.00000  Uiso   1.00
C445   C     0.13702   0.97480   0.21892   0.00000  Uiso   1.00
C446   C     0.02137   0.79108   0.25032   0.00000  Uiso   1.00
Cu447  Cu    0.16667   0.88022   0.25000   0.00000  Uiso   1.00
Cu448  Cu    0.16667   0.78645   0.25000   0.00000  Uiso   1.00
H449   H     0.03738   0.75847   0.25033   0.00000  Uiso   1.00
H450   H     0.18001   0.76196   0.47081   0.00000  Uiso   1.00
H451   H     0.15101   0.90764   0.46476   0.00000  Uiso   1.00
H452   H     0.15313   0.76201   0.02913   0.00000  Uiso   1.00
H453   H     0.18112   0.90712   0.11451   0.00000  Uiso   1.00
H454   H     0.17236   0.76100   0.39109   0.00000  Uiso   1.00
H455   H     0.15250   0.90718   0.38557   0.00000  Uiso   1.00
H456   H     0.16076   0.76103   0.10884   0.00000  Uiso   1.00
H457   H     0.29566   0.90682   0.24579   0.00000  Uiso   1.00
H458   H     0.29596   0.75847   0.24968   0.00000  Uiso   1.00
H459   H     0.03768   0.90682   0.25421   0.00000  Uiso   1.00
H460   H     0.07361   0.78417   0.14245   0.00000  Uiso   1.00
H461   H     0.26832   0.88166   0.34690   0.00000  Uiso   1.00
H462   H     0.26001   0.78417   0.35738   0.00000  Uiso   1.00
H463   H     0.06499   0.88162   0.15315   0.00000  Uiso   1.00
H464   H     0.18262   0.90758   0.03534   0.00000  Uiso   1.00
N465   N     0.16667   0.95069   0.25000   0.00000  Uiso   1.00
N466   N     0.16667   0.71598   0.25000   0.00000  Uiso   1.00
O467   O     0.10655   0.87291   0.24999   0.00000  Uiso   1.00
O468   O     0.05655   0.70349   0.17254   0.00000  Uiso   1.00
O469   O     0.09275   0.77823   0.17158   0.00000  Uiso   1.00
O470   O     0.27867   0.95530   0.30382   0.00000  Uiso   1.00
O471   O     0.24310   0.96336   0.36659   0.00000  Uiso   1.00
O472   O     0.24007   0.88830   0.32882   0.00000  Uiso   1.00
O473   O     0.22049   0.70973   0.36939   0.00000  Uiso   1.00
O474   O     0.27678   0.70350   0.32748   0.00000  Uiso   1.00
O475   O     0.24059   0.77825   0.32842   0.00000  Uiso   1.00
O476   O     0.05466   0.95529   0.19619   0.00000  Uiso   1.00
O477   O     0.09021   0.96331   0.13341   0.00000  Uiso   1.00
O478   O     0.22679   0.79375   0.25000   0.00000  Uiso   1.00
O479   O     0.09326   0.88827   0.17118   0.00000  Uiso   1.00
O480   O     0.22679   0.87291   0.25000   0.00000  Uiso   1.00
O481   O     0.10655   0.79375   0.24999   0.00000  Uiso   1.00
O482   O     0.16666   0.87293   0.18573   0.00000  Uiso   1.00
O483   O     0.16667   0.79374   0.31427   0.00000  Uiso   1.00
O484   O     0.16667   0.87293   0.31427   0.00000  Uiso   1.00
O485   O     0.16666   0.79374   0.18573   0.00000  Uiso   1.00
O486   O     0.11282   0.70966   0.13062   0.00000  Uiso   1.00
S487   S     0.10001   0.72133   0.17397   0.00000  Uiso   1.00
S488   S     0.23897   0.94503   0.31993   0.00000  Uiso   1.00
S489   S     0.23332   0.72136   0.32604   0.00000  Uiso   1.00
S490   S     0.09436   0.94500   0.18007   0.00000  Uiso   1.00
C491   C     0.42098   0.83324   0.25089   0.00000  Uiso   1.00
C492   C     0.64520   0.87433   0.24846   0.00000  Uiso   1.00
C493   C     0.64529   0.79108   0.24968   0.00000  Uiso   1.00
C494   C     0.35480   0.87433   0.25154   0.00000  Uiso   1.00
C495   C     0.50904   0.87551   0.05018   0.00000  Uiso   1.00
C496   C     0.50581   0.79400   0.45320   0.00000  Uiso   1.00
C497   C     0.49115   0.87555   0.44988   0.00000  Uiso   1.00
C498   C     0.49411   0.79402   0.04677   0.00000  Uiso   1.00
C499   C     0.50892   0.87522   0.09596   0.00000  Uiso   1.00
C500   C     0.50313   0.79340   0.40719   0.00000  Uiso   1.00
C501   C     0.49125   0.87526   0.40409   0.00000  Uiso   1.00
C502   C     0.57902   0.83324   0.24911   0.00000  Uiso   1.00
C503   C     0.49677   0.79342   0.09278   0.00000  Uiso   1.00
C504   C     0.50244   0.83406   0.11751   0.00000  Uiso   1.00
C505   C     0.49759   0.83407   0.38249   0.00000  Uiso   1.00
C506   C     0.50070   0.83498   0.02459   0.00000  Uiso   1.00
C507   C     0.49936   0.83498   0.47542   0.00000  Uiso   1.00
C508   C     0.62366   0.83285   0.24879   0.00000  Uiso   1.00
C509   C     0.37634   0.83285   0.25121   0.00000  Uiso   1.00
C510   C     0.50115   0.83346   0.16541   0.00000  Uiso   1.00
C511   C     0.49886   0.83346   0.33459   0.00000  Uiso   1.00
C512   C     0.47067   0.69179   0.21862   0.00000  Uiso   1.00
C513   C     0.52965   0.97481   0.28109   0.00000  Uiso   1.00
C514   C     0.52932   0.69180   0.28138   0.00000  Uiso   1.00
C515   C     0.47035   0.97480   0.21892   0.00000  Uiso   1.00
C516   C     0.35471   0.79108   0.25032   0.00000  Uiso   1.00
Cu517  Cu    0.50000   0.88022   0.25000   0.00000  Uiso   1.00
Cu518  Cu    0.50000   0.78645   0.25000   0.00000  Uiso   1.00
H519   H     0.37071   0.75847   0.25033   0.00000  Uiso   1.00
H520   H     0.51335   0.76196   0.47081   0.00000  Uiso   1.00
H521   H     0.48435   0.90764   0.46476   0.00000  Uiso   1.00
H522   H     0.48646   0.76201   0.02913   0.00000  Uiso   1.00
H523   H     0.51445   0.90712   0.11451   0.00000  Uiso   1.00
H524   H     0.50570   0.76100   0.39109   0.00000  Uiso   1.00
H525   H     0.48583   0.90718   0.38557   0.00000  Uiso   1.00
H526   H     0.49410   0.76103   0.10884   0.00000  Uiso   1.00
H527   H     0.62899   0.90682   0.24579   0.00000  Uiso   1.00
H528   H     0.62929   0.75847   0.24968   0.00000  Uiso   1.00
H529   H     0.37101   0.90682   0.25421   0.00000  Uiso   1.00
H530   H     0.40694   0.78417   0.14245   0.00000  Uiso   1.00
H531   H     0.60165   0.88166   0.34690   0.00000  Uiso   1.00
H532   H     0.59334   0.78417   0.35738   0.00000  Uiso   1.00
H533   H     0.39832   0.88162   0.15315   0.00000  Uiso   1.00
H534   H     0.51596   0.90758   0.03534   0.00000  Uiso   1.00
N535   N     0.50000   0.95069   0.25000   0.00000  Uiso   1.00
N536   N     0.50000   0.71598   0.25000   0.00000  Uiso   1.00
O537   O     0.43988   0.87291   0.24999   0.00000  Uiso   1.00
O538   O     0.38988   0.70349   0.17254   0.00000  Uiso   1.00
O539   O     0.42609   0.77823   0.17158   0.00000  Uiso   1.00
O540   O     0.61201   0.95530   0.30382   0.00000  Uiso   1.00
O541   O     0.57644   0.96336   0.36659   0.00000  Uiso   1.00
O542   O     0.57340   0.88830   0.32882   0.00000  Uiso   1.00
O543   O     0.55383   0.70973   0.36939   0.00000  Uiso   1.00
O544   O     0.61011   0.70350   0.32748   0.00000  Uiso   1.00
O545   O     0.57393   0.77825   0.32842   0.00000  Uiso   1.00
O546   O     0.38799   0.95529   0.19619   0.00000  Uiso   1.00
O547   O     0.42355   0.96331   0.13341   0.00000  Uiso   1.00
O548   O     0.56012   0.79375   0.25000   0.00000  Uiso   1.00
O549   O     0.42659   0.88827   0.17118   0.00000  Uiso   1.00
O550   O     0.56012   0.87291   0.25000   0.00000  Uiso   1.00
O551   O     0.43988   0.79375   0.24999   0.00000  Uiso   1.00
O552   O     0.50000   0.87293   0.18573   0.00000  Uiso   1.00
O553   O     0.50000   0.79374   0.31427   0.00000  Uiso   1.00
O554   O     0.50000   0.87293   0.31427   0.00000  Uiso   1.00
O555   O     0.50000   0.79374   0.18573   0.00000  Uiso   1.00
O556   O     0.44616   0.70966   0.13062   0.00000  Uiso   1.00
S557   S     0.43334   0.72133   0.17397   0.00000  Uiso   1.00
S558   S     0.57230   0.94503   0.31993   0.00000  Uiso   1.00
S559   S     0.56665   0.72136   0.32604   0.00000  Uiso   1.00
S560   S     0.42769   0.94500   0.18007   0.00000  Uiso   1.00
C561   C     0.75432   0.83324   0.25089   0.00000  Uiso   1.00
C562   C     0.97853   0.87433   0.24846   0.00000  Uiso   1.00
C563   C     0.97863   0.79108   0.24968   0.00000  Uiso   1.00
C564   C     0.68814   0.87433   0.25154   0.00000  Uiso   1.00
C565   C     0.84237   0.87551   0.05018   0.00000  Uiso   1.00
C566   C     0.83914   0.79400   0.45320   0.00000  Uiso   1.00
C567   C     0.82449   0.87555   0.44988   0.00000  Uiso   1.00
C568   C     0.82744   0.79402   0.04677   0.00000  Uiso   1.00
C569   C     0.84225   0.87522   0.09596   0.00000  Uiso   1.00
C570   C     0.83646   0.79340   0.40719   0.00000  Uiso   1.00
C571   C     0.82459   0.87526   0.40409   0.00000  Uiso   1.00
C572   C     0.91235   0.83324   0.24911   0.00000  Uiso   1.00
C573   C     0.83011   0.79342   0.09278   0.00000  Uiso   1.00
C574   C     0.83577   0.83406   0.11751   0.00000  Uiso   1.00
C575   C     0.83093   0.83407   0.38249   0.00000  Uiso   1.00
C576   C     0.83403   0.83498   0.02459   0.00000  Uiso   1.00
C577   C     0.83269   0.83498   0.47542   0.00000  Uiso   1.00
C578   C     0.95699   0.83285   0.24879   0.00000  Uiso   1.00
C579   C     0.70968   0.83285   0.25121   0.00000  Uiso   1.00
C580   C     0.83448   0.83346   0.16541   0.00000  Uiso   1.00
C581   C     0.83219   0.83346   0.33459   0.00000  Uiso   1.00
C582   C     0.80401   0.69179   0.21862   0.00000  Uiso   1.00
C583   C     0.86298   0.97481   0.28109   0.00000  Uiso   1.00
C584   C     0.86266   0.69180   0.28138   0.00000  Uiso   1.00
C585   C     0.80368   0.97480   0.21892   0.00000  Uiso   1.00
C586   C     0.68804   0.79108   0.25032   0.00000  Uiso   1.00
Cu587  Cu    0.83333   0.88022   0.25000   0.00000  Uiso   1.00
Cu588  Cu    0.83333   0.78645   0.25000   0.00000  Uiso   1.00
H589   H     0.70404   0.75847   0.25033   0.00000  Uiso   1.00
H590   H     0.84668   0.76196   0.47081   0.00000  Uiso   1.00
H591   H     0.81768   0.90764   0.46476   0.00000  Uiso   1.00
H592   H     0.81980   0.76201   0.02913   0.00000  Uiso   1.00
H593   H     0.84779   0.90712   0.11451   0.00000  Uiso   1.00
H594   H     0.83903   0.76100   0.39109   0.00000  Uiso   1.00
H595   H     0.81916   0.90718   0.38557   0.00000  Uiso   1.00
H596   H     0.82743   0.76103   0.10884   0.00000  Uiso   1.00
H597   H     0.96233   0.90682   0.24579   0.00000  Uiso   1.00
H598   H     0.96263   0.75847   0.24968   0.00000  Uiso   1.00
H599   H     0.70434   0.90682   0.25421   0.00000  Uiso   1.00
H600   H     0.74028   0.78417   0.14245   0.00000  Uiso   1.00
H601   H     0.93498   0.88166   0.34690   0.00000  Uiso   1.00
H602   H     0.92667   0.78417   0.35738   0.00000  Uiso   1.00
H603   H     0.73166   0.88162   0.15315   0.00000  Uiso   1.00
H604   H     0.84929   0.90758   0.03534   0.00000  Uiso   1.00
N605   N     0.83333   0.95069   0.25000   0.00000  Uiso   1.00
N606   N     0.83333   0.71598   0.25000   0.00000  Uiso   1.00
O607   O     0.77321   0.87291   0.24999   0.00000  Uiso   1.00
O608   O     0.72322   0.70349   0.17254   0.00000  Uiso   1.00
O609   O     0.75942   0.77823   0.17158   0.00000  Uiso   1.00
O610   O     0.94534   0.95530   0.30382   0.00000  Uiso   1.00
O611   O     0.90977   0.96336   0.36659   0.00000  Uiso   1.00
O612   O     0.90673   0.88830   0.32882   0.00000  Uiso   1.00
O613   O     0.88716   0.70973   0.36939   0.00000  Uiso   1.00
O614   O     0.94344   0.70350   0.32748   0.00000  Uiso   1.00
O615   O     0.90726   0.77825   0.32842   0.00000  Uiso   1.00
O616   O     0.72132   0.95529   0.19619   0.00000  Uiso   1.00
O617   O     0.75688   0.96331   0.13341   0.00000  Uiso   1.00
O618   O     0.89345   0.79375   0.25000   0.00000  Uiso   1.00
O619   O     0.75993   0.88827   0.17118   0.00000  Uiso   1.00
O620   O     0.89345   0.87291   0.25000   0.00000  Uiso   1.00
O621   O     0.77321   0.79375   0.24999   0.00000  Uiso   1.00
O622   O     0.83333   0.87293   0.18573   0.00000  Uiso   1.00
O623   O     0.83334   0.79374   0.31427   0.00000  Uiso   1.00
O624   O     0.83334   0.87293   0.31427   0.00000  Uiso   1.00
O625   O     0.83333   0.79374   0.18573   0.00000  Uiso   1.00
O626   O     0.77949   0.70966   0.13062   0.00000  Uiso   1.00
S627   S     0.76668   0.72133   0.17397   0.00000  Uiso   1.00
S628   S     0.90563   0.94503   0.31993   0.00000  Uiso   1.00
S629   S     0.89999   0.72136   0.32604   0.00000  Uiso   1.00
S630   S     0.76103   0.94500   0.18007   0.00000  Uiso   1.00
C631   C     0.08765   0.16658   0.75089   0.00000  Uiso   1.00
C632   C     0.31186   0.20767   0.74846   0.00000  Uiso   1.00
C633   C     0.31196   0.12442   0.74968   0.00000  Uiso   1.00
C634   C     0.02147   0.20767   0.75154   0.00000  Uiso   1.00
C635   C     0.17571   0.20885   0.55018   0.00000  Uiso   1.00
C636   C     0.17247   0.12733   0.95320   0.00000  Uiso   1.00
C637   C     0.15782   0.20888   0.94988   0.00000  Uiso   1.00
C638   C     0.16078   0.12735   0.54677   0.00000  Uiso   1.00
C639   C     0.17559   0.20855   0.59596   0.00000  Uiso   1.00
C640   C     0.16980   0.12674   0.90719   0.00000  Uiso   1.00
C641   C     0.15792   0.20859   0.90409   0.00000  Uiso   1.00
C642   C     0.24568   0.16658   0.74911   0.00000  Uiso   1.00
C643   C     0.16344   0.12675   0.59278   0.00000  Uiso   1.00
C644   C     0.16910   0.16739   0.61751   0.00000  Uiso   1.00
C645   C     0.16426   0.16740   0.88249   0.00000  Uiso   1.00
C646   C     0.16737   0.16832   0.52459   0.00000  Uiso   1.00
C647   C     0.16602   0.16832   0.97542   0.00000  Uiso   1.00
C648   C     0.29032   0.16618   0.74879   0.00000  Uiso   1.00
C649   C     0.04301   0.16618   0.75121   0.00000  Uiso   1.00
C650   C     0.16782   0.16679   0.66541   0.00000  Uiso   1.00
C651   C     0.16552   0.16680   0.83459   0.00000  Uiso   1.00
C652   C     0.13734   0.02512   0.71862   0.00000  Uiso   1.00
C653   C     0.19632   0.30815   0.78109   0.00000  Uiso   1.00
C654   C     0.19599   0.02513   0.78138   0.00000  Uiso   1.00
C655   C     0.13702   0.30814   0.71892   0.00000  Uiso   1.00
C656   C     0.02137   0.12442   0.75032   0.00000  Uiso   1.00
Cu657  Cu    0.16667   0.21355   0.75000   0.00000  Uiso   1.00
Cu658  Cu    0.16667   0.11978   0.75000   0.00000  Uiso   1.00
H659   H     0.03738   0.09180   0.75033   0.00000  Uiso   1.00
H660   H     0.18001   0.09529   0.97081   0.00000  Uiso   1.00
H661   H     0.15101   0.24097   0.96476   0.00000  Uiso   1.00
H662   H     0.15313   0.09534   0.52913   0.00000  Uiso   1.00
H663   H     0.18112   0.24046   0.61451   0.00000  Uiso   1.00
H664   H     0.17236   0.09433   0.89109   0.00000  Uiso   1.00
H665   H     0.15250   0.24051   0.88557   0.00000  Uiso   1.00
H666   H     0.16076   0.09436   0.60884   0.00000  Uiso   1.00
H667   H     0.29566   0.24015   0.74579   0.00000  Uiso   1.00
H668   H     0.29596   0.09180   0.74968   0.00000  Uiso   1.00
H669   H     0.03768   0.24015   0.75421   0.00000  Uiso   1.00
H670   H     0.07361   0.11750   0.64245   0.00000  Uiso   1.00
H671   H     0.26832   0.21499   0.84690   0.00000  Uiso   1.00
H672   H     0.26001   0.11750   0.85738   0.00000  Uiso   1.00
H673   H     0.06499   0.21495   0.65315   0.00000  Uiso   1.00
H674   H     0.18262   0.24091   0.53534   0.00000  Uiso   1.00
N675   N     0.16667   0.28402   0.75000   0.00000  Uiso   1.00
N676   N     0.16667   0.04931   0.75000   0.00000  Uiso   1.00
O677   O     0.10655   0.20625   0.74999   0.00000  Uiso   1.00
O678   O     0.05655   0.03682   0.67254   0.00000  Uiso   1.00
O679   O     0.09275   0.11156   0.67158   0.00000  Uiso   1.00
O680   O     0.27867   0.28863   0.80382   0.00000  Uiso   1.00
O681   O     0.24310   0.29669   0.86659   0.00000  Uiso   1.00
O682   O     0.24007   0.22164   0.82882   0.00000  Uiso   1.00
O683   O     0.22049   0.04307   0.86939   0.00000  Uiso   1.00
O684   O     0.27678   0.03683   0.82748   0.00000  Uiso   1.00
O685   O     0.24059   0.11159   0.82842   0.00000  Uiso   1.00
O686   O     0.05466   0.28862   0.69619   0.00000  Uiso   1.00
O687   O     0.09021   0.29665   0.63341   0.00000  Uiso   1.00
O688   O     0.22679   0.12709   0.75000   0.00000  Uiso   1.00
O689   O     0.09326   0.22161   0.67118   0.00000  Uiso   1.00
O690   O     0.22679   0.20625   0.75000   0.00000  Uiso   1.00
O691   O     0.10655   0.12709   0.74999   0.00000  Uiso   1.00
O692   O     0.16666   0.20626   0.68573   0.00000  Uiso   1.00
O693   O     0.16667   0.12707   0.81427   0.00000  Uiso   1.00
O694   O     0.16667   0.20626   0.81427   0.00000  Uiso   1.00
O695   O     0.16666   0.12707   0.68573   0.00000  Uiso   1.00
O696   O     0.11282   0.04300   0.63062   0.00000  Uiso   1.00
S697   S     0.10001   0.05467   0.67397   0.00000  Uiso   1.00
S698   S     0.23897   0.27836   0.81993   0.00000  Uiso   1.00
S699   S     0.23332   0.05469   0.82604   0.00000  Uiso   1.00
S700   S     0.09436   0.27834   0.68007   0.00000  Uiso   1.00
C701   C     0.42098   0.16658   0.75089   0.00000  Uiso   1.00
C702   C     0.64520   0.20767   0.74846   0.00000  Uiso   1.00
C703   C     0.64529   0.12442   0.74968   0.00000  Uiso   1.00
C704   C     0.35480   0.20767   0.75154   0.00000  Uiso   1.00
C705   C     0.50904   0.20885   0.55018   0.00000  Uiso   1.00
C706   C     0.50581   0.12733   0.95320   0.00000  Uiso   1.00
C707   C     0.49115   0.20888   0.94988   0.00000  Uiso   1.00
C708   C     0.49411   0.12735   0.54677   0.00000  Uiso   1.00
C709   C     0.50892   0.20855   0.59596   0.00000  Uiso   1.00
C710   C     0.50313   0.12674   0.90719   0.00000  Uiso   1.00
C711   C     0.49125   0.20859   0.90409   0.00000  Uiso   1.00
C712   C     0.57902   0.16658   0.74911   0.00000  Uiso   1.00
C713   C     0.49677   0.12675   0.59278   0.00000  Uiso   1.00
C714   C     0.50244   0.16739   0.61751   0.00000  Uiso   1.00
C715   C     0.49759   0.16740   0.88249   0.00000  Uiso   1.00
C716   C     0.50070   0.16832   0.52459   0.00000  Uiso   1.00
C717   C     0.49936   0.16832   0.97542   0.00000  Uiso   1.00
C718   C     0.62366   0.16618   0.74879   0.00000  Uiso   1.00
C719   C     0.37634   0.16618   0.75121   0.00000  Uiso   1.00
C720   C     0.50115   0.16679   0.66541   0.00000  Uiso   1.00
C721   C     0.49886   0.16680   0.83459   0.00000  Uiso   1.00
C722   C     0.47067   0.02512   0.71862   0.00000  Uiso   1.00
C723   C     0.52965   0.30815   0.78109   0.00000  Uiso   1.00
C724   C     0.52932   0.02513   0.78138   0.00000  Uiso   1.00
C725   C     0.47035   0.30814   0.71892   0.00000  Uiso   1.00
C726   C     0.35471   0.12442   0.75032   0.00000  Uiso   1.00
Cu727  Cu    0.50000   0.21355   0.75000   0.00000  Uiso   1.00
Cu728  Cu    0.50000   0.11978   0.75000   0.00000  Uiso   1.00
H729   H     0.37071   0.09180   0.75033   0.00000  Uiso   1.00
H730   H     0.51335   0.09529   0.97081   0.00000  Uiso   1.00
H731   H     0.48435   0.24097   0.96476   0.00000  Uiso   1.00
H732   H     0.48646   0.09534   0.52913   0.00000  Uiso   1.00
H733   H     0.51445   0.24046   0.61451   0.00000  Uiso   1.00
H734   H     0.50570   0.09433   0.89109   0.00000  Uiso   1.00
H735   H     0.48583   0.24051   0.88557   0.00000  Uiso   1.00
H736   H     0.49410   0.09436   0.60884   0.00000  Uiso   1.00
H737   H     0.62899   0.24015   0.74579   0.00000  Uiso   1.00
H738   H     0.62929   0.09180   0.74968   0.00000  Uiso   1.00
H739   H     0.37101   0.24015   0.75421   0.00000  Uiso   1.00
H740   H     0.40694   0.11750   0.64245   0.00000  Uiso   1.00
H741   H     0.60165   0.21499   0.84690   0.00000  Uiso   1.00
H742   H     0.59334   0.11750   0.85738   0.00000  Uiso   1.00
H743   H     0.39832   0.21495   0.65315   0.00000  Uiso   1.00
H744   H     0.51596   0.24091   0.53534   0.00000  Uiso   1.00
N745   N     0.50000   0.28402   0.75000   0.00000  Uiso   1.00
N746   N     0.50000   0.04931   0.75000   0.00000  Uiso   1.00
O747   O     0.43988   0.20625   0.74999   0.00000  Uiso   1.00
O748   O     0.38988   0.03682   0.67254   0.00000  Uiso   1.00
O749   O     0.42609   0.11156   0.67158   0.00000  Uiso   1.00
O750   O     0.61201   0.28863   0.80382   0.00000  Uiso   1.00
O751   O     0.57644   0.29669   0.86659   0.00000  Uiso   1.00
O752   O     0.57340   0.22164   0.82882   0.00000  Uiso   1.00
O753   O     0.55383   0.04307   0.86939   0.00000  Uiso   1.00
O754   O     0.61011   0.03683   0.82748   0.00000  Uiso   1.00
O755   O     0.57393   0.11159   0.82842   0.00000  Uiso   1.00
O756   O     0.38799   0.28862   0.69619   0.00000  Uiso   1.00
O757   O     0.42355   0.29665   0.63341   0.00000  Uiso   1.00
O758   O     0.56012   0.12709   0.75000   0.00000  Uiso   1.00
O759   O     0.42659   0.22161   0.67118   0.00000  Uiso   1.00
O760   O     0.56012   0.20625   0.75000   0.00000  Uiso   1.00
O761   O     0.43988   0.12709   0.74999   0.00000  Uiso   1.00
O762   O     0.50000   0.20626   0.68573   0.00000  Uiso   1.00
O763   O     0.50000   0.12707   0.81427   0.00000  Uiso   1.00
O764   O     0.50000   0.20626   0.81427   0.00000  Uiso   1.00
O765   O     0.50000   0.12707   0.68573   0.00000  Uiso   1.00
O766   O     0.44616   0.04300   0.63062   0.00000  Uiso   1.00
S767   S     0.43334   0.05467   0.67397   0.00000  Uiso   1.00
S768   S     0.57230   0.27836   0.81993   0.00000  Uiso   1.00
S769   S     0.56665   0.05469   0.82604   0.00000  Uiso   1.00
S770   S     0.42769   0.27834   0.68007   0.00000  Uiso   1.00
C771   C     0.75432   0.16658   0.75089   0.00000  Uiso   1.00
C772   C     0.97853   0.20767   0.74846   0.00000  Uiso   1.00
C773   C     0.97863   0.12442   0.74968   0.00000  Uiso   1.00
C774   C     0.68814   0.20767   0.75154   0.00000  Uiso   1.00
C775   C     0.84237   0.20885   0.55018   0.00000  Uiso   1.00
C776   C     0.83914   0.12733   0.95320   0.00000  Uiso   1.00
C777   C     0.82449   0.20888   0.94988   0.00000  Uiso   1.00
C778   C     0.82744   0.12735   0.54677   0.00000  Uiso   1.00
C779   C     0.84225   0.20855   0.59596   0.00000  Uiso   1.00
C780   C     0.83646   0.12674   0.90719   0.00000  Uiso   1.00
C781   C     0.82459   0.20859   0.90409   0.00000  Uiso   1.00
C782   C     0.91235   0.16658   0.74911   0.00000  Uiso   1.00
C783   C     0.83011   0.12675   0.59278   0.00000  Uiso   1.00
C784   C     0.83577   0.16739   0.61751   0.00000  Uiso   1.00
C785   C     0.83093   0.16740   0.88249   0.00000  Uiso   1.00
C786   C     0.83403   0.16832   0.52459   0.00000  Uiso   1.00
C787   C     0.83269   0.16832   0.97542   0.00000  Uiso   1.00
C788   C     0.95699   0.16618   0.74879   0.00000  Uiso   1.00
C789   C     0.70968   0.16618   0.75121   0.00000  Uiso   1.00
C790   C     0.83448   0.16679   0.66541   0.00000  Uiso   1.00
C791   C     0.83219   0.16680   0.83459   0.00000  Uiso   1.00
C792   C     0.80401   0.02512   0.71862   0.00000  Uiso   1.00
C793   C     0.86298   0.30815   0.78109   0.00000  Uiso   1.00
C794   C     0.86266   0.02513   0.78138   0.00000  Uiso   1.00
C795   C     0.80368   0.30814   0.71892   0.00000  Uiso   1.00
C796   C     0.68804   0.12442   0.75032   0.00000  Uiso   1.00
Cu797  Cu    0.83333   0.21355   0.75000   0.00000  Uiso   1.00
Cu798  Cu    0.83333   0.11978   0.75000   0.00000  Uiso   1.00
H799   H     0.70404   0.09180   0.75033   0.00000  Uiso   1.00
H800   H     0.84668   0.09529   0.97081   0.00000  Uiso   1.00
H801   H     0.81768   0.24097   0.96476   0.00000  Uiso   1.00
H802   H     0.81980   0.09534   0.52913   0.00000  Uiso   1.00
H803   H     0.84779   0.24046   0.61451   0.00000  Uiso   1.00
H804   H     0.83903   0.09433   0.89109   0.00000  Uiso   1.00
H805   H     0.81916   0.24051   0.88557   0.00000  Uiso   1.00
H806   H     0.82743   0.09436   0.60884   0.00000  Uiso   1.00
H807   H     0.96233   0.24015   0.74579   0.00000  Uiso   1.00
H808   H     0.96263   0.09180   0.74968   0.00000  Uiso   1.00
H809   H     0.70434   0.24015   0.75421   0.00000  Uiso   1.00
H810   H     0.74028   0.11750   0.64245   0.00000  Uiso   1.00
H811   H     0.93498   0.21499   0.84690   0.00000  Uiso   1.00
H812   H     0.92667   0.11750   0.85738   0.00000  Uiso   1.00
H813   H     0.73166   0.21495   0.65315   0.00000  Uiso   1.00
H814   H     0.84929   0.24091   0.53534   0.00000  Uiso   1.00
N815   N     0.83333   0.28402   0.75000   0.00000  Uiso   1.00
N816   N     0.83333   0.04931   0.75000   0.00000  Uiso   1.00
O817   O     0.77321   0.20625   0.74999   0.00000  Uiso   1.00
O818   O     0.72322   0.03682   0.67254   0.00000  Uiso   1.00
O819   O     0.75942   0.11156   0.67158   0.00000  Uiso   1.00
O820   O     0.94534   0.28863   0.80382   0.00000  Uiso   1.00
O821   O     0.90977   0.29669   0.86659   0.00000  Uiso   1.00
O822   O     0.90673   0.22164   0.82882   0.00000  Uiso   1.00
O823   O     0.88716   0.04307   0.86939   0.00000  Uiso   1.00
O824   O     0.94344   0.03683   0.82748   0.00000  Uiso   1.00
O825   O     0.90726   0.11159   0.82842   0.00000  Uiso   1.00
O826   O     0.72132   0.28862   0.69619   0.00000  Uiso   1.00
O827   O     0.75688   0.29665   0.63341   0.00000  Uiso   1.00
O828   O     0.89345   0.12709   0.75000   0.00000  Uiso   1.00
O829   O     0.75993   0.22161   0.67118   0.00000  Uiso   1.00
O830   O     0.89345   0.20625   0.75000   0.00000  Uiso   1.00
O831   O     0.77321   0.12709   0.74999   0.00000  Uiso   1.00
O832   O     0.83333   0.20626   0.68573   0.00000  Uiso   1.00
O833   O     0.83334   0.12707   0.81427   0.00000  Uiso   1.00
O834   O     0.83334   0.20626   0.81427   0.00000  Uiso   1.00
O835   O     0.83333   0.12707   0.68573   0.00000  Uiso   1.00
O836   O     0.77949   0.04300   0.63062   0.00000  Uiso   1.00
S837   S     0.76668   0.05467   0.67397   0.00000  Uiso   1.00
S838   S     0.90563   0.27836   0.81993   0.00000  Uiso   1.00
S839   S     0.89999   0.05469   0.82604   0.00000  Uiso   1.00
S840   S     0.76103   0.27834   0.68007   0.00000  Uiso   1.00
C841   C     0.08765   0.49991   0.75089   0.00000  Uiso   1.00
C842   C     0.31186   0.54100   0.74846   0.00000  Uiso   1.00
C843   C     0.31196   0.45775   0.74968   0.00000  Uiso   1.00
C844   C     0.02147   0.54100   0.75154   0.00000  Uiso   1.00
C845   C     0.17571   0.54218   0.55018   0.00000  Uiso   1.00
C846   C     0.17247   0.46066   0.95320   0.00000  Uiso   1.00
C847   C     0.15782   0.54221   0.94988   0.00000  Uiso   1.00
C848   C     0.16078   0.46069   0.54677   0.00000  Uiso   1.00
C849   C     0.17559   0.54189   0.59596   0.00000  Uiso   1.00
C850   C     0.16980   0.46007   0.90719   0.00000  Uiso   1.00
C851   C     0.15792   0.54192   0.90409   0.00000  Uiso   1.00
C852   C     0.24568   0.49991   0.74911   0.00000  Uiso   1.00
C853   C     0.16344   0.46008   0.59278   0.00000  Uiso   1.00
C854   C     0.16910   0.50072   0.61751   0.00000  Uiso   1.00
C855   C     0.16426   0.50073   0.88249   0.00000  Uiso   1.00
C856   C     0.16737   0.50165   0.52459   0.00000  Uiso   1.00
C857   C     0.16602   0.50165   0.97542   0.00000  Uiso   1.00
C858   C     0.29032   0.49952   0.74879   0.00000  Uiso   1.00
C859   C     0.04301   0.49952   0.75121   0.00000  Uiso   1.00
C860   C     0.16782   0.50012   0.66541   0.00000  Uiso   1.00
C861   C     0.16552   0.50013   0.83459   0.00000  Uiso   1.00
C862   C     0.13734   0.35845   0.71862   0.00000  Uiso   1.00
C863   C     0.19632   0.64148   0.78109   0.00000  Uiso   1.00
C864   C     0.19599   0.35846   0.78138   0.00000  Uiso   1.00
C865   C     0.13702   0.64147   0.71892   0.00000  Uiso   1.00
C866   C     0.02137   0.45775   0.75032   0.00000  Uiso   1.00
Cu867  Cu    0.16667   0.54689   0.75000   0.00000  Uiso   1.00
Cu868  Cu    0.16667   0.45311   0.75000   0.00000  Uiso   1.00
H869   H     0.03738   0.42514   0.75033   0.00000  Uiso   1.00
H870   H     0.18001   0.42863   0.97081   0.00000  Uiso   1.00
H871   H     0.15101   0.57431   0.96476   0.00000  Uiso   1.00
H872   H     0.15313   0.42868   0.52913   0.00000  Uiso   1.00
H873   H     0.18112   0.57379   0.61451   0.00000  Uiso   1.00
H874   H     0.17236   0.42767   0.89109   0.00000  Uiso   1.00
H875   H     0.15250   0.57385   0.88557   0.00000  Uiso   1.00
H876   H     0.16076   0.42769   0.60884   0.00000  Uiso   1.00
H877   H     0.29566   0.57348   0.74579   0.00000  Uiso   1.00
H878   H     0.29596   0.42514   0.74968   0.00000  Uiso   1.00
H879   H     0.03768   0.57348   0.75421   0.00000  Uiso   1.00
H880   H     0.07361   0.45083   0.64245   0.00000  Uiso   1.00
H881   H     0.26832   0.54833   0.84690   0.00000  Uiso   1.00
H882   H     0.26001   0.45083   0.85738   0.00000  Uiso   1.00
H883   H     0.06499   0.54828   0.65315   0.00000  Uiso   1.00
H884   H     0.18262   0.57425   0.53534   0.00000  Uiso   1.00
N885   N     0.16667   0.61736   0.75000   0.00000  Uiso   1.00
N886   N     0.16667   0.38264   0.75000   0.00000  Uiso   1.00
O887   O     0.10655   0.53958   0.74999   0.00000  Uiso   1.00
O888   O     0.05655   0.37016   0.67254   0.00000  Uiso   1.00
O889   O     0.09275   0.44490   0.67158   0.00000  Uiso   1.00
O890   O     0.27867   0.62197   0.80382   0.00000  Uiso   1.00
O891   O     0.24310   0.63003   0.86659   0.00000  Uiso   1.00
O892   O     0.24007   0.55497   0.82882   0.00000  Uiso   1.00
O893   O     0.22049   0.37640   0.86939   0.00000  Uiso   1.00
O894   O     0.27678   0.37016   0.82748   0.00000  Uiso   1.00
O895   O     0.24059   0.44492   0.82842   0.00000  Uiso   1.00
O896   O     0.05466   0.62195   0.69619   0.00000  Uiso   1.00
O897   O     0.09021   0.62998   0.63341   0.00000  Uiso   1.00
O898   O     0.22679   0.46042   0.75000   0.00000  Uiso   1.00
O899   O     0.09326   0.55494   0.67118   0.00000  Uiso   1.00
O900   O     0.22679   0.53958   0.75000   0.00000  Uiso   1.00
O901   O     0.10655   0.46042   0.74999   0.00000  Uiso   1.00
O902   O     0.16666   0.53959   0.68573   0.00000  Uiso   1.00
O903   O     0.16667   0.46041   0.81427   0.00000  Uiso   1.00
O904   O     0.16667   0.53959   0.81427   0.00000  Uiso   1.00
O905   O     0.16666   0.46041   0.68573   0.00000  Uiso   1.00
O906   O     0.11282   0.37633   0.63062   0.00000  Uiso   1.00
S907   S     0.10001   0.38800   0.67397   0.00000  Uiso   1.00
S908   S     0.23897   0.61169   0.81993   0.00000  Uiso   1.00
S909   S     0.23332   0.38803   0.82604   0.00000  Uiso   1.00
S910   S     0.09436   0.61167   0.68007   0.00000  Uiso   1.00
C911   C     0.42098   0.49991   0.75089   0.00000  Uiso   1.00
C912   C     0.64520   0.54100   0.74846   0.00000  Uiso   1.00
C913   C     0.64529   0.45775   0.74968   0.00000  Uiso   1.00
C914   C     0.35480   0.54100   0.75154   0.00000  Uiso   1.00
C915   C     0.50904   0.54218   0.55018   0.00000  Uiso   1.00
C916   C     0.50581   0.46066   0.95320   0.00000  Uiso   1.00
C917   C     0.49115   0.54221   0.94988   0.00000  Uiso   1.00
C918   C     0.49411   0.46069   0.54677   0.00000  Uiso   1.00
C919   C     0.50892   0.54189   0.59596   0.00000  Uiso   1.00
C920   C     0.50313   0.46007   0.90719   0.00000  Uiso   1.00
C921   C     0.49125   0.54192   0.90409   0.00000  Uiso   1.00
C922   C     0.57902   0.49991   0.74911   0.00000  Uiso   1.00
C923   C     0.49677   0.46008   0.59278   0.00000  Uiso   1.00
C924   C     0.50244   0.50072   0.61751   0.00000  Uiso   1.00
C925   C     0.49759   0.50073   0.88249   0.00000  Uiso   1.00
C926   C     0.50070   0.50165   0.52459   0.00000  Uiso   1.00
C927   C     0.49936   0.50165   0.97542   0.00000  Uiso   1.00
C928   C     0.62366   0.49952   0.74879   0.00000  Uiso   1.00
C929   C     0.37634   0.49952   0.75121   0.00000  Uiso   1.00
C930   C     0.50115   0.50012   0.66541   0.00000  Uiso   1.00
C931   C     0.49886   0.50013   0.83459   0.00000  Uiso   1.00
C932   C     0.47067   0.35845   0.71862   0.00000  Uiso   1.00
C933   C     0.52965   0.64148   0.78109   0.00000  Uiso   1.00
C934   C     0.52932   0.35846   0.78138   0.00000  Uiso   1.00
C935   C     0.47035   0.64147   0.71892   0.00000  Uiso   1.00
C936   C     0.35471   0.45775   0.75032   0.00000  Uiso   1.00
Cu937  Cu    0.50000   0.54689   0.75000   0.00000  Uiso   1.00
Cu938  Cu    0.50000   0.45311   0.75000   0.00000  Uiso   1.00
H939   H     0.37071   0.42514   0.75033   0.00000  Uiso   1.00
H940   H     0.51335   0.42863   0.97081   0.00000  Uiso   1.00
H941   H     0.48435   0.57431   0.96476   0.00000  Uiso   1.00
H942   H     0.48646   0.42868   0.52913   0.00000  Uiso   1.00
H943   H     0.51445   0.57379   0.61451   0.00000  Uiso   1.00
H944   H     0.50570   0.42767   0.89109   0.00000  Uiso   1.00
H945   H     0.48583   0.57385   0.88557   0.00000  Uiso   1.00
H946   H     0.49410   0.42769   0.60884   0.00000  Uiso   1.00
H947   H     0.62899   0.57348   0.74579   0.00000  Uiso   1.00
H948   H     0.62929   0.42514   0.74968   0.00000  Uiso   1.00
H949   H     0.37101   0.57348   0.75421   0.00000  Uiso   1.00
H950   H     0.40694   0.45083   0.64245   0.00000  Uiso   1.00
H951   H     0.60165   0.54833   0.84690   0.00000  Uiso   1.00
H952   H     0.59334   0.45083   0.85738   0.00000  Uiso   1.00
H953   H     0.39832   0.54828   0.65315   0.00000  Uiso   1.00
H954   H     0.51596   0.57425   0.53534   0.00000  Uiso   1.00
N955   N     0.50000   0.61736   0.75000   0.00000  Uiso   1.00
N956   N     0.50000   0.38264   0.75000   0.00000  Uiso   1.00
O957   O     0.43988   0.53958   0.74999   0.00000  Uiso   1.00
O958   O     0.38988   0.37016   0.67254   0.00000  Uiso   1.00
O959   O     0.42609   0.44490   0.67158   0.00000  Uiso   1.00
O960   O     0.61201   0.62197   0.80382   0.00000  Uiso   1.00
O961   O     0.57644   0.63003   0.86659   0.00000  Uiso   1.00
O962   O     0.57340   0.55497   0.82882   0.00000  Uiso   1.00
O963   O     0.55383   0.37640   0.86939   0.00000  Uiso   1.00
O964   O     0.61011   0.37016   0.82748   0.00000  Uiso   1.00
O965   O     0.57393   0.44492   0.82842   0.00000  Uiso   1.00
O966   O     0.38799   0.62195   0.69619   0.00000  Uiso   1.00
O967   O     0.42355   0.62998   0.63341   0.00000  Uiso   1.00
O968   O     0.56012   0.46042   0.75000   0.00000  Uiso   1.00
O969   O     0.42659   0.55494   0.67118   0.00000  Uiso   1.00
O970   O     0.56012   0.53958   0.75000   0.00000  Uiso   1.00
O971   O     0.43988   0.46042   0.74999   0.00000  Uiso   1.00
O972   O     0.50000   0.53959   0.68573   0.00000  Uiso   1.00
O973   O     0.50000   0.46041   0.81427   0.00000  Uiso   1.00
O974   O     0.50000   0.53959   0.81427   0.00000  Uiso   1.00
O975   O     0.50000   0.46041   0.68573   0.00000  Uiso   1.00
O976   O     0.44616   0.37633   0.63062   0.00000  Uiso   1.00
S977   S     0.43334   0.38800   0.67397   0.00000  Uiso   1.00
S978   S     0.57230   0.61169   0.81993   0.00000  Uiso   1.00
S979   S     0.56665   0.38803   0.82604   0.00000  Uiso   1.00
S980   S     0.42769   0.61167   0.68007   0.00000  Uiso   1.00
C981   C     0.75432   0.49991   0.75089   0.00000  Uiso   1.00
C982   C     0.97853   0.54100   0.74846   0.00000  Uiso   1.00
C983   C     0.97863   0.45775   0.74968   0.00000  Uiso   1.00
C984   C     0.68814   0.54100   0.75154   0.00000  Uiso   1.00
C985   C     0.84237   0.54218   0.55018   0.00000  Uiso   1.00
C986   C     0.83914   0.46066   0.95320   0.00000  Uiso   1.00
C987   C     0.82449   0.54221   0.94988   0.00000  Uiso   1.00
C988   C     0.82744   0.46069   0.54677   0.00000  Uiso   1.00
C989   C     0.84225   0.54189   0.59596   0.00000  Uiso   1.00
C990   C     0.83646   0.46007   0.90719   0.00000  Uiso   1.00
C991   C     0.82459   0.54192   0.90409   0.00000  Uiso   1.00
C992   C     0.91235   0.49991   0.74911   0.00000  Uiso   1.00
C993   C     0.83011   0.46008   0.59278   0.00000  Uiso   1.00
C994   C     0.83577   0.50072   0.61751   0.00000  Uiso   1.00
C995   C     0.83093   0.50073   0.88249   0.00000  Uiso   1.00
C996   C     0.83403   0.50165   0.52459   0.00000  Uiso   1.00
C997   C     0.83269   0.50165   0.97542   0.00000  Uiso   1.00
C998   C     0.95699   0.49952   0.74879   0.00000  Uiso   1.00
C999   C     0.70968   0.49952   0.75121   0.00000  Uiso   1.00
C1000  C     0.83448   0.50012   0.66541   0.00000  Uiso   1.00
C1001  C     0.83219   0.50013   0.83459   0.00000  Uiso   1.00
C1002  C     0.80401   0.35845   0.71862   0.00000  Uiso   1.00
C1003  C     0.86298   0.64148   0.78109   0.00000  Uiso   1.00
C1004  C     0.86266   0.35846   0.78138   0.00000  Uiso   1.00
C1005  C     0.80368   0.64147   0.71892   0.00000  Uiso   1.00
C1006  C     0.68804   0.45775   0.75032   0.00000  Uiso   1.00
Cu1007 Cu    0.83333   0.54689   0.75000   0.00000  Uiso   1.00
Cu1008 Cu    0.83333   0.45311   0.75000   0.00000  Uiso   1.00
H1009  H     0.70404   0.42514   0.75033   0.00000  Uiso   1.00
H1010  H     0.84668   0.42863   0.97081   0.00000  Uiso   1.00
H1011  H     0.81768   0.57431   0.96476   0.00000  Uiso   1.00
H1012  H     0.81980   0.42868   0.52913   0.00000  Uiso   1.00
H1013  H     0.84779   0.57379   0.61451   0.00000  Uiso   1.00
H1014  H     0.83903   0.42767   0.89109   0.00000  Uiso   1.00
H1015  H     0.81916   0.57385   0.88557   0.00000  Uiso   1.00
H1016  H     0.82743   0.42769   0.60884   0.00000  Uiso   1.00
H1017  H     0.96233   0.57348   0.74579   0.00000  Uiso   1.00
H1018  H     0.96263   0.42514   0.74968   0.00000  Uiso   1.00
H1019  H     0.70434   0.57348   0.75421   0.00000  Uiso   1.00
H1020  H     0.74028   0.45083   0.64245   0.00000  Uiso   1.00
H1021  H     0.93498   0.54833   0.84690   0.00000  Uiso   1.00
H1022  H     0.92667   0.45083   0.85738   0.00000  Uiso   1.00
H1023  H     0.73166   0.54828   0.65315   0.00000  Uiso   1.00
H1024  H     0.84929   0.57425   0.53534   0.00000  Uiso   1.00
N1025  N     0.83333   0.61736   0.75000   0.00000  Uiso   1.00
N1026  N     0.83333   0.38264   0.75000   0.00000  Uiso   1.00
O1027  O     0.77321   0.53958   0.74999   0.00000  Uiso   1.00
O1028  O     0.72322   0.37016   0.67254   0.00000  Uiso   1.00
O1029  O     0.75942   0.44490   0.67158   0.00000  Uiso   1.00
O1030  O     0.94534   0.62197   0.80382   0.00000  Uiso   1.00
O1031  O     0.90977   0.63003   0.86659   0.00000  Uiso   1.00
O1032  O     0.90673   0.55497   0.82882   0.00000  Uiso   1.00
O1033  O     0.88716   0.37640   0.86939   0.00000  Uiso   1.00
O1034  O     0.94344   0.37016   0.82748   0.00000  Uiso   1.00
O1035  O     0.90726   0.44492   0.82842   0.00000  Uiso   1.00
O1036  O     0.72132   0.62195   0.69619   0.00000  Uiso   1.00
O1037  O     0.75688   0.62998   0.63341   0.00000  Uiso   1.00
O1038  O     0.89345   0.46042   0.75000   0.00000  Uiso   1.00
O1039  O     0.75993   0.55494   0.67118   0.00000  Uiso   1.00
O1040  O     0.89345   0.53958   0.75000   0.00000  Uiso   1.00
O1041  O     0.77321   0.46042   0.74999   0.00000  Uiso   1.00
O1042  O     0.83333   0.53959   0.68573   0.00000  Uiso   1.00
O1043  O     0.83334   0.46041   0.81427   0.00000  Uiso   1.00
O1044  O     0.83334   0.53959   0.81427   0.00000  Uiso   1.00
O1045  O     0.83333   0.46041   0.68573   0.00000  Uiso   1.00
O1046  O     0.77949   0.37633   0.63062   0.00000  Uiso   1.00
S1047  S     0.76668   0.38800   0.67397   0.00000  Uiso   1.00
S1048  S     0.90563   0.61169   0.81993   0.00000  Uiso   1.00
S1049  S     0.89999   0.38803   0.82604   0.00000  Uiso   1.00
S1050  S     0.76103   0.61167   0.68007   0.00000  Uiso   1.00
C1051  C     0.08765   0.83324   0.75089   0.00000  Uiso   1.00
C1052  C     0.31186   0.87433   0.74846   0.00000  Uiso   1.00
C1053  C     0.31196   0.79108   0.74968   0.00000  Uiso   1.00
C1054  C     0.02147   0.87433   0.75154   0.00000  Uiso   1.00
C1055  C     0.17571   0.87551   0.55018   0.00000  Uiso   1.00
C1056  C     0.17247   0.79400   0.95320   0.00000  Uiso   1.00
C1057  C     0.15782   0.87555   0.94988   0.00000  Uiso   1.00
C1058  C     0.16078   0.79402   0.54677   0.00000  Uiso   1.00
C1059  C     0.17559   0.87522   0.59596   0.00000  Uiso   1.00
C1060  C     0.16980   0.79340   0.90719   0.00000  Uiso   1.00
C1061  C     0.15792   0.87526   0.90409   0.00000  Uiso   1.00
C1062  C     0.24568   0.83324   0.74911   0.00000  Uiso   1.00
C1063  C     0.16344   0.79342   0.59278   0.00000  Uiso   1.00
C1064  C     0.16910   0.83406   0.61751   0.00000  Uiso   1.00
C1065  C     0.16426   0.83407   0.88249   0.00000  Uiso   1.00
C1066  C     0.16737   0.83498   0.52459   0.00000  Uiso   1.00
C1067  C     0.16602   0.83498   0.97542   0.00000  Uiso   1.00
C1068  C     0.29032   0.83285   0.74879   0.00000  Uiso   1.00
C1069  C     0.04301   0.83285   0.75121   0.00000  Uiso   1.00
C1070  C     0.16782   0.83346   0.66541   0.00000  Uiso   1.00
C1071  C     0.16552   0.83346   0.83459   0.00000  Uiso   1.00
C1072  C     0.13734   0.69179   0.71862   0.00000  Uiso   1.00
C1073  C     0.19632   0.97481   0.78109   0.00000  Uiso   1.00
C1074  C     0.19599   0.69180   0.78138   0.00000  Uiso   1.00
C1075  C     0.13702   0.97480   0.71892   0.00000  Uiso   1.00
C1076  C     0.02137   0.79108   0.75032   0.00000  Uiso   1.00
Cu1077 Cu    0.16667   0.88022   0.75000   0.00000  Uiso   1.00
Cu1078 Cu    0.16667   0.78645   0.75000   0.00000  Uiso   1.00
H1079  H     0.03738   0.75847   0.75033   0.00000  Uiso   1.00
H1080  H     0.18001   0.76196   0.97081   0.00000  Uiso   1.00
H1081  H     0.15101   0.90764   0.96476   0.00000  Uiso   1.00
H1082  H     0.15313   0.76201   0.52913   0.00000  Uiso   1.00
H1083  H     0.18112   0.90712   0.61451   0.00000  Uiso   1.00
H1084  H     0.17236   0.76100   0.89109   0.00000  Uiso   1.00
H1085  H     0.15250   0.90718   0.88557   0.00000  Uiso   1.00
H1086  H     0.16076   0.76103   0.60884   0.00000  Uiso   1.00
H1087  H     0.29566   0.90682   0.74579   0.00000  Uiso   1.00
H1088  H     0.29596   0.75847   0.74968   0.00000  Uiso   1.00
H1089  H     0.03768   0.90682   0.75421   0.00000  Uiso   1.00
H1090  H     0.07361   0.78417   0.64245   0.00000  Uiso   1.00
H1091  H     0.26832   0.88166   0.84690   0.00000  Uiso   1.00
H1092  H     0.26001   0.78417   0.85738   0.00000  Uiso   1.00
H1093  H     0.06499   0.88162   0.65315   0.00000  Uiso   1.00
H1094  H     0.18262   0.90758   0.53534   0.00000  Uiso   1.00
N1095  N     0.16667   0.95069   0.75000   0.00000  Uiso   1.00
N1096  N     0.16667   0.71598   0.75000   0.00000  Uiso   1.00
O1097  O     0.10655   0.87291   0.74999   0.00000  Uiso   1.00
O1098  O     0.05655   0.70349   0.67254   0.00000  Uiso   1.00
O1099  O     0.09275   0.77823   0.67158   0.00000  Uiso   1.00
O1100  O     0.27867   0.95530   0.80382   0.00000  Uiso   1.00
O1101  O     0.24310   0.96336   0.86659   0.00000  Uiso   1.00
O1102  O     0.24007   0.88830   0.82882   0.00000  Uiso   1.00
O1103  O     0.22049   0.70973   0.86939   0.00000  Uiso   1.00
O1104  O     0.27678   0.70350   0.82748   0.00000  Uiso   1.00
O1105  O     0.24059   0.77825   0.82842   0.00000  Uiso   1.00
O1106  O     0.05466   0.95529   0.69619   0.00000  Uiso   1.00
O1107  O     0.09021   0.96331   0.63341   0.00000  Uiso   1.00
O1108  O     0.22679   0.79375   0.75000   0.00000  Uiso   1.00
O1109  O     0.09326   0.88827   0.67118   0.00000  Uiso   1.00
O1110  O     0.22679   0.87291   0.75000   0.00000  Uiso   1.00
O1111  O     0.10655   0.79375   0.74999   0.00000  Uiso   1.00
O1112  O     0.16666   0.87293   0.68573   0.00000  Uiso   1.00
O1113  O     0.16667   0.79374   0.81427   0.00000  Uiso   1.00
O1114  O     0.16667   0.87293   0.81427   0.00000  Uiso   1.00
O1115  O     0.16666   0.79374   0.68573   0.00000  Uiso   1.00
O1116  O     0.11282   0.70966   0.63062   0.00000  Uiso   1.00
S1117  S     0.10001   0.72133   0.67397   0.00000  Uiso   1.00
S1118  S     0.23897   0.94503   0.81993   0.00000  Uiso   1.00
S1119  S     0.23332   0.72136   0.82604   0.00000  Uiso   1.00
S1120  S     0.09436   0.94500   0.68007   0.00000  Uiso   1.00
C1121  C     0.42098   0.83324   0.75089   0.00000  Uiso   1.00
C1122  C     0.64520   0.87433   0.74846   0.00000  Uiso   1.00
C1123  C     0.64529   0.79108   0.74968   0.00000  Uiso   1.00
C1124  C     0.35480   0.87433   0.75154   0.00000  Uiso   1.00
C1125  C     0.50904   0.87551   0.55018   0.00000  Uiso   1.00
C1126  C     0.50581   0.79400   0.95320   0.00000  Uiso   1.00
C1127  C     0.49115   0.87555   0.94988   0.00000  Uiso   1.00
C1128  C     0.49411   0.79402   0.54677   0.00000  Uiso   1.00
C1129  C     0.50892   0.87522   0.59596   0.00000  Uiso   1.00
C1130  C     0.50313   0.79340   0.90719   0.00000  Uiso   1.00
C1131  C     0.49125   0.87526   0.90409   0.00000  Uiso   1.00
C1132  C     0.57902   0.83324   0.74911   0.00000  Uiso   1.00
C1133  C     0.49677   0.79342   0.59278   0.00000  Uiso   1.00
C1134  C     0.50244   0.83406   0.61751   0.00000  Uiso   1.00
C1135  C     0.49759   0.83407   0.88249   0.00000  Uiso   1.00
C1136  C     0.50070   0.83498   0.52459   0.00000  Uiso   1.00
C1137  C     0.49936   0.83498   0.97542   0.00000  Uiso   1.00
C1138  C     0.62366   0.83285   0.74879   0.00000  Uiso   1.00
C1139  C     0.37634   0.83285   0.75121   0.00000  Uiso   1.00
C1140  C     0.50115   0.83346   0.66541   0.00000  Uiso   1.00
C1141  C     0.49886   0.83346   0.83459   0.00000  Uiso   1.00
C1142  C     0.47067   0.69179   0.71862   0.00000  Uiso   1.00
C1143  C     0.52965   0.97481   0.78109   0.00000  Uiso   1.00
C1144  C     0.52932   0.69180   0.78138   0.00000  Uiso   1.00
C1145  C     0.47035   0.97480   0.71892   0.00000  Uiso   1.00
C1146  C     0.35471   0.79108   0.75032   0.00000  Uiso   1.00
Cu1147 Cu    0.50000   0.88022   0.75000   0.00000  Uiso   1.00
Cu1148 Cu    0.50000   0.78645   0.75000   0.00000  Uiso   1.00
H1149  H     0.37071   0.75847   0.75033   0.00000  Uiso   1.00
H1150  H     0.51335   0.76196   0.97081   0.00000  Uiso   1.00
H1151  H     0.48435   0.90764   0.96476   0.00000  Uiso   1.00
H1152  H     0.48646   0.76201   0.52913   0.00000  Uiso   1.00
H1153  H     0.51445   0.90712   0.61451   0.00000  Uiso   1.00
H1154  H     0.50570   0.76100   0.89109   0.00000  Uiso   1.00
H1155  H     0.48583   0.90718   0.88557   0.00000  Uiso   1.00
H1156  H     0.49410   0.76103   0.60884   0.00000  Uiso   1.00
H1157  H     0.62899   0.90682   0.74579   0.00000  Uiso   1.00
H1158  H     0.62929   0.75847   0.74968   0.00000  Uiso   1.00
H1159  H     0.37101   0.90682   0.75421   0.00000  Uiso   1.00
H1160  H     0.40694   0.78417   0.64245   0.00000  Uiso   1.00
H1161  H     0.60165   0.88166   0.84690   0.00000  Uiso   1.00
H1162  H     0.59334   0.78417   0.85738   0.00000  Uiso   1.00
H1163  H     0.39832   0.88162   0.65315   0.00000  Uiso   1.00
H1164  H     0.51596   0.90758   0.53534   0.00000  Uiso   1.00
N1165  N     0.50000   0.95069   0.75000   0.00000  Uiso   1.00
N1166  N     0.50000   0.71598   0.75000   0.00000  Uiso   1.00
O1167  O     0.43988   0.87291   0.74999   0.00000  Uiso   1.00
O1168  O     0.38988   0.70349   0.67254   0.00000  Uiso   1.00
O1169  O     0.42609   0.77823   0.67158   0.00000  Uiso   1.00
O1170  O     0.61201   0.95530   0.80382   0.00000  Uiso   1.00
O1171  O     0.57644   0.96336   0.86659   0.00000  Uiso   1.00
O1172  O     0.57340   0.88830   0.82882   0.00000  Uiso   1.00
O1173  O     0.55383   0.70973   0.86939   0.00000  Uiso   1.00
O1174  O     0.61011   0.70350   0.82748   0.00000  Uiso   1.00
O1175  O     0.57393   0.77825   0.82842   0.00000  Uiso   1.00
O1176  O     0.38799   0.95529   0.69619   0.00000  Uiso   1.00
O1177  O     0.42355   0.96331   0.63341   0.00000  Uiso   1.00
O1178  O     0.56012   0.79375   0.75000   0.00000  Uiso   1.00
O1179  O     0.42659   0.88827   0.67118   0.00000  Uiso   1.00
O1180  O     0.56012   0.87291   0.75000   0.00000  Uiso   1.00
O1181  O     0.43988   0.79375   0.74999   0.00000  Uiso   1.00
O1182  O     0.50000   0.87293   0.68573   0.00000  Uiso   1.00
O1183  O     0.50000   0.79374   0.81427   0.00000  Uiso   1.00
O1184  O     0.50000   0.87293   0.81427   0.00000  Uiso   1.00
O1185  O     0.50000   0.79374   0.68573   0.00000  Uiso   1.00
O1186  O     0.44616   0.70966   0.63062   0.00000  Uiso   1.00
S1187  S     0.43334   0.72133   0.67397   0.00000  Uiso   1.00
S1188  S     0.57230   0.94503   0.81993   0.00000  Uiso   1.00
S1189  S     0.56665   0.72136   0.82604   0.00000  Uiso   1.00
S1190  S     0.42769   0.94500   0.68007   0.00000  Uiso   1.00
C1191  C     0.75432   0.83324   0.75089   0.00000  Uiso   1.00
C1192  C     0.97853   0.87433   0.74846   0.00000  Uiso   1.00
C1193  C     0.97863   0.79108   0.74968   0.00000  Uiso   1.00
C1194  C     0.68814   0.87433   0.75154   0.00000  Uiso   1.00
C1195  C     0.84237   0.87551   0.55018   0.00000  Uiso   1.00
C1196  C     0.83914   0.79400   0.95320   0.00000  Uiso   1.00
C1197  C     0.82449   0.87555   0.94988   0.00000  Uiso   1.00
C1198  C     0.82744   0.79402   0.54677   0.00000  Uiso   1.00
C1199  C     0.84225   0.87522   0.59596   0.00000  Uiso   1.00
C1200  C     0.83646   0.79340   0.90719   0.00000  Uiso   1.00
C1201  C     0.82459   0.87526   0.90409   0.00000  Uiso   1.00
C1202  C     0.91235   0.83324   0.74911   0.00000  Uiso   1.00
C1203  C     0.83011   0.79342   0.59278   0.00000  Uiso   1.00
C1204  C     0.83577   0.83406   0.61751   0.00000  Uiso   1.00
C1205  C     0.83093   0.83407   0.88249   0.00000  Uiso   1.00
C1206  C     0.83403   0.83498   0.52459   0.00000  Uiso   1.00
C1207  C     0.83269   0.83498   0.97542   0.00000  Uiso   1.00
C1208  C     0.95699   0.83285   0.74879   0.00000  Uiso   1.00
C1209  C     0.70968   0.83285   0.75121   0.00000  Uiso   1.00
C1210  C     0.83448   0.83346   0.66541   0.00000  Uiso   1.00
C1211  C     0.83219   0.83346   0.83459   0.00000  Uiso   1.00
C1212  C     0.80401   0.69179   0.71862   0.00000  Uiso   1.00
C1213  C     0.86298   0.97481   0.78109   0.00000  Uiso   1.00
C1214  C     0.86266   0.69180   0.78138   0.00000  Uiso   1.00
C1215  C     0.80368   0.97480   0.71892   0.00000  Uiso   1.00
C1216  C     0.68804   0.79108   0.75032   0.00000  Uiso   1.00
Cu1217 Cu    0.83333   0.88022   0.75000   0.00000  Uiso   1.00
Cu1218 Cu    0.83333   0.78645   0.75000   0.00000  Uiso   1.00
H1219  H     0.70404   0.75847   0.75033   0.00000  Uiso   1.00
H1220  H     0.84668   0.76196   0.97081   0.00000  Uiso   1.00
H1221  H     0.81768   0.90764   0.96476   0.00000  Uiso   1.00
H1222  H     0.81980   0.76201   0.52913   0.00000  Uiso   1.00
H1223  H     0.84779   0.90712   0.61451   0.00000  Uiso   1.00
H1224  H     0.83903   0.76100   0.89109   0.00000  Uiso   1.00
H1225  H     0.81916   0.90718   0.88557   0.00000  Uiso   1.00
H1226  H     0.82743   0.76103   0.60884   0.00000  Uiso   1.00
H1227  H     0.96233   0.90682   0.74579   0.00000  Uiso   1.00
H1228  H     0.96263   0.75847   0.74968   0.00000  Uiso   1.00
H1229  H     0.70434   0.90682   0.75421   0.00000  Uiso   1.00
H1230  H     0.74028   0.78417   0.64245   0.00000  Uiso   1.00
H1231  H     0.93498   0.88166   0.84690   0.00000  Uiso   1.00
H1232  H     0.92667   0.78417   0.85738   0.00000  Uiso   1.00
H1233  H     0.73166   0.88162   0.65315   0.00000  Uiso   1.00
H1234  H     0.84929   0.90758   0.53534   0.00000  Uiso   1.00
N1235  N     0.83333   0.95069   0.75000   0.00000  Uiso   1.00
N1236  N     0.83333   0.71598   0.75000   0.00000  Uiso   1.00
O1237  O     0.77321   0.87291   0.74999   0.00000  Uiso   1.00
O1238  O     0.72322   0.70349   0.67254   0.00000  Uiso   1.00
O1239  O     0.75942   0.77823   0.67158   0.00000  Uiso   1.00
O1240  O     0.94534   0.95530   0.80382   0.00000  Uiso   1.00
O1241  O     0.90977   0.96336   0.86659   0.00000  Uiso   1.00
O1242  O     0.90673   0.88830   0.82882   0.00000  Uiso   1.00
O1243  O     0.88716   0.70973   0.86939   0.00000  Uiso   1.00
O1244  O     0.94344   0.70350   0.82748   0.00000  Uiso   1.00
O1245  O     0.90726   0.77825   0.82842   0.00000  Uiso   1.00
O1246  O     0.72132   0.95529   0.69619   0.00000  Uiso   1.00
O1247  O     0.75688   0.96331   0.63341   0.00000  Uiso   1.00
O1248  O     0.89345   0.79375   0.75000   0.00000  Uiso   1.00
O1249  O     0.75993   0.88827   0.67118   0.00000  Uiso   1.00
O1250  O     0.89345   0.87291   0.75000   0.00000  Uiso   1.00
O1251  O     0.77321   0.79375   0.74999   0.00000  Uiso   1.00
O1252  O     0.83333   0.87293   0.68573   0.00000  Uiso   1.00
O1253  O     0.83334   0.79374   0.81427   0.00000  Uiso   1.00
O1254  O     0.83334   0.87293   0.81427   0.00000  Uiso   1.00
O1255  O     0.83333   0.79374   0.68573   0.00000  Uiso   1.00
O1256  O     0.77949   0.70966   0.63062   0.00000  Uiso   1.00
S1257  S     0.76668   0.72133   0.67397   0.00000  Uiso   1.00
S1258  S     0.90563   0.94503   0.81993   0.00000  Uiso   1.00
S1259  S     0.89999   0.72136   0.82604   0.00000  Uiso   1.00
S1260  S     0.76103   0.94500   0.68007   0.00000  Uiso   1.00
loop_
_geom_bond_atom_site_label_1
_geom_bond_atom_site_label_2
_geom_bond_distance
_geom_bond_site_symmetry_2
_ccdc_geom_bond_type
C1     C19     1.454   .     S
C1     O47     1.311   .     A
C1     O61     1.307   .     A
C2     C18     1.398   .     A
C2     H37     1.078   .     S
C2     C74     1.381   .     S
C3     C18     1.403   .     A
C3     H38     1.083   .     S
C3     C96     1.387   .     S
C4     H39     1.078   .     S
C4     C19     1.398   .     A
C4     C142    1.381   1_455 S
C5     C9      1.394   .     A
C5     H44     1.080   .     S
C5     C16     1.410   .     A
C6     C10     1.385   .     A
C6     C17     1.408   .     A
C6     H30     1.079   .     S
C7     C17     1.410   .     A
C7     C11     1.394   .     A
C7     H31     1.080   .     S
C8     C13     1.385   .     A
C8     C16     1.408   .     A
C8     H32     1.079   .     S
C9     C14     1.403   .     A
C9     H33     1.083   .     S
C10    H34     1.074   .     S
C10    C15     1.395   .     A
C11    H35     1.083   .     S
C11    C15     1.403   .     A
C12    O58     1.307   .     A
C12    O60     1.311   .     A
C12    C18     1.454   .     S
C13    C14     1.395   .     A
C13    H36     1.074   .     S
C14    C20     1.467   .     S
C15    C21     1.467   .     S
C16    C647    1.488   1_554 S
C17    C646    1.488   .     S
C19    C26     1.403   .     A
C20    O62     1.309   .     A
C20    O65     1.316   .     A
C21    O63     1.316   .     A
C21    O64     1.309   .     A
C22    N46     1.398   .     A
C22    S67     1.844   .     S
C22    C445    1.465   1_545 S
C23    S68     1.849   .     S
C23    N45     1.397   .     A
C23    C234    1.465   .     S
C24    N46     1.398   .     A
C24    S69     1.844   .     S
C24    C443    1.465   1_545 S
C25    N45     1.397   .     A
C25    S70     1.849   .     S
C25    C232    1.465   .     S
C26    H29     1.083   .     S
C26    C143    1.387   1_455 S
Cu27   O62     1.967   .     S
Cu27   O60     1.968   .     S
Cu27   N45     2.052   .     S
Cu27   O64     1.967   .     S
Cu27   O47     1.968   .     S
Cu27   Cu28    2.731   .     S
Cu28   O58     1.968   .     S
Cu28   O61     1.968   .     S
Cu28   N46     2.052   .     S
Cu28   O65     1.967   .     S
Cu28   O63     1.967   .     S
H40    O49     0.991   .     S
H41    O52     0.991   .     S
H42    O55     0.991   .     S
H43    O59     0.991   .     S
O48    S67     1.499   .     D
O49    S67     1.673   .     S
O50    S68     1.501   .     D
O51    S68     1.497   .     D
O52    S68     1.673   .     S
O53    S69     1.500   .     D
O54    S69     1.499   .     D
O55    S69     1.673   .     S
O56    S70     1.501   .     D
O57    S70     1.497   .     D
O59    S70     1.673   .     S
O66    S67     1.500   .     D
C71    C89     1.454   .     S
C71    O117    1.311   .     A
C71    O131    1.307   .     A
C72    C88     1.398   .     A
C72    H107    1.078   .     S
C72    C144    1.381   .     S
C73    C88     1.403   .     A
C73    H108    1.083   .     S
C73    C166    1.387   .     S
C74    H109    1.078   .     S
C74    C89     1.398   .     A
C75    C79     1.394   .     A
C75    H114    1.080   .     S
C75    C86     1.410   .     A
C76    C80     1.385   .     A
C76    C87     1.408   .     A
C76    H100    1.079   .     S
C77    C87     1.410   .     A
C77    C81     1.394   .     A
C77    H101    1.080   .     S
C78    C83     1.385   .     A
C78    C86     1.408   .     A
C78    H102    1.079   .     S
C79    C84     1.403   .     A
C79    H103    1.083   .     S
C80    H104    1.074   .     S
C80    C85     1.395   .     A
C81    H105    1.083   .     S
C81    C85     1.403   .     A
C82    O128    1.307   .     A
C82    O130    1.311   .     A
C82    C88     1.454   .     S
C83    C84     1.395   .     A
C83    H106    1.074   .     S
C84    C90     1.467   .     S
C85    C91     1.467   .     S
C86    C717    1.488   1_554 S
C87    C716    1.488   .     S
C89    C96     1.403   .     A
C90    O132    1.309   .     A
C90    O135    1.316   .     A
C91    O133    1.316   .     A
C91    O134    1.309   .     A
C92    N116    1.398   .     A
C92    S137    1.844   .     S
C92    C515    1.465   1_545 S
C93    S138    1.849   .     S
C93    N115    1.397   .     A
C93    C304    1.465   .     S
C94    N116    1.398   .     A
C94    S139    1.844   .     S
C94    C513    1.465   1_545 S
C95    N115    1.397   .     A
C95    S140    1.849   .     S
C95    C302    1.465   .     S
C96    H99     1.083   .     S
Cu97   O132    1.967   .     S
Cu97   O130    1.968   .     S
Cu97   N115    2.052   .     S
Cu97   O134    1.967   .     S
Cu97   O117    1.968   .     S
Cu97   Cu98    2.731   .     S
Cu98   O128    1.968   .     S
Cu98   O131    1.968   .     S
Cu98   N116    2.052   .     S
Cu98   O135    1.967   .     S
Cu98   O133    1.967   .     S
H110   O119    0.991   .     S
H111   O122    0.991   .     S
H112   O125    0.991   .     S
H113   O129    0.991   .     S
O118   S137    1.499   .     D
O119   S137    1.673   .     S
O120   S138    1.501   .     D
O121   S138    1.497   .     D
O122   S138    1.673   .     S
O123   S139    1.500   .     D
O124   S139    1.499   .     D
O125   S139    1.673   .     S
O126   S140    1.501   .     D
O127   S140    1.497   .     D
O129   S140    1.673   .     S
O136   S137    1.500   .     D
C141   C159    1.454   .     S
C141   O187    1.311   .     A
C141   O201    1.307   .     A
C142   C158    1.398   .     A
C142   H177    1.078   .     S
C142   C4      1.381   1_655 S
C143   C158    1.403   .     A
C143   H178    1.083   .     S
C143   C26     1.387   1_655 S
C144   H179    1.078   .     S
C144   C159    1.398   .     A
C145   C149    1.394   .     A
C145   H184    1.080   .     S
C145   C156    1.410   .     A
C146   C150    1.385   .     A
C146   C157    1.408   .     A
C146   H170    1.079   .     S
C147   C157    1.410   .     A
C147   C151    1.394   .     A
C147   H171    1.080   .     S
C148   C153    1.385   .     A
C148   C156    1.408   .     A
C148   H172    1.079   .     S
C149   C154    1.403   .     A
C149   H173    1.083   .     S
C150   H174    1.074   .     S
C150   C155    1.395   .     A
C151   H175    1.083   .     S
C151   C155    1.403   .     A
C152   O198    1.307   .     A
C152   O200    1.311   .     A
C152   C158    1.454   .     S
C153   C154    1.395   .     A
C153   H176    1.074   .     S
C154   C160    1.467   .     S
C155   C161    1.467   .     S
C156   C787    1.488   1_554 S
C157   C786    1.488   .     S
C159   C166    1.403   .     A
C160   O202    1.309   .     A
C160   O205    1.316   .     A
C161   O203    1.316   .     A
C161   O204    1.309   .     A
C162   N186    1.398   .     A
C162   S207    1.844   .     S
C162   C585    1.465   1_545 S
C163   S208    1.849   .     S
C163   N185    1.397   .     A
C163   C374    1.465   .     S
C164   N186    1.398   .     A
C164   S209    1.844   .     S
C164   C583    1.465   1_545 S
C165   N185    1.397   .     A
C165   S210    1.849   .     S
C165   C372    1.465   .     S
C166   H169    1.083   .     S
Cu167  O202    1.967   .     S
Cu167  O200    1.968   .     S
Cu167  N185    2.052   .     S
Cu167  O204    1.967   .     S
Cu167  O187    1.968   .     S
Cu167  Cu168   2.731   .     S
Cu168  O198    1.968   .     S
Cu168  O201    1.968   .     S
Cu168  N186    2.052   .     S
Cu168  O205    1.967   .     S
Cu168  O203    1.967   .     S
H180   O189    0.991   .     S
H181   O192    0.991   .     S
H182   O195    0.991   .     S
H183   O199    0.991   .     S
O188   S207    1.499   .     D
O189   S207    1.673   .     S
O190   S208    1.501   .     D
O191   S208    1.497   .     D
O192   S208    1.673   .     S
O193   S209    1.500   .     D
O194   S209    1.499   .     D
O195   S209    1.673   .     S
O196   S210    1.501   .     D
O197   S210    1.497   .     D
O199   S210    1.673   .     S
O206   S207    1.500   .     D
C211   C229    1.454   .     S
C211   O257    1.311   .     A
C211   O271    1.307   .     A
C212   C228    1.398   .     A
C212   H247    1.078   .     S
C212   C284    1.381   .     S
C213   C228    1.403   .     A
C213   H248    1.083   .     S
C213   C306    1.387   .     S
C214   H249    1.078   .     S
C214   C229    1.398   .     A
C214   C352    1.381   1_455 S
C215   C219    1.394   .     A
C215   H254    1.080   .     S
C215   C226    1.410   .     A
C216   C220    1.385   .     A
C216   C227    1.408   .     A
C216   H240    1.079   .     S
C217   C227    1.410   .     A
C217   C221    1.394   .     A
C217   H241    1.080   .     S
C218   C223    1.385   .     A
C218   C226    1.408   .     A
C218   H242    1.079   .     S
C219   C224    1.403   .     A
C219   H243    1.083   .     S
C220   H244    1.074   .     S
C220   C225    1.395   .     A
C221   H245    1.083   .     S
C221   C225    1.403   .     A
C222   O268    1.307   .     A
C222   O270    1.311   .     A
C222   C228    1.454   .     S
C223   C224    1.395   .     A
C223   H246    1.074   .     S
C224   C230    1.467   .     S
C225   C231    1.467   .     S
C226   C857    1.488   1_554 S
C227   C856    1.488   .     S
C229   C236    1.403   .     A
C230   O272    1.309   .     A
C230   O275    1.316   .     A
C231   O273    1.316   .     A
C231   O274    1.309   .     A
C232   N256    1.398   .     A
C232   S277    1.844   .     S
C233   S278    1.849   .     S
C233   N255    1.397   .     A
C233   C444    1.465   .     S
C234   N256    1.398   .     A
C234   S279    1.844   .     S
C235   N255    1.397   .     A
C235   S280    1.849   .     S
C235   C442    1.465   .     S
C236   H239    1.083   .     S
C236   C353    1.387   1_455 S
Cu237  O272    1.967   .     S
Cu237  O270    1.968   .     S
Cu237  N255    2.052   .     S
Cu237  O274    1.967   .     S
Cu237  O257    1.968   .     S
Cu237  Cu238   2.731   .     S
Cu238  O268    1.968   .     S
Cu238  O271    1.968   .     S
Cu238  N256    2.052   .     S
Cu238  O275    1.967   .     S
Cu238  O273    1.967   .     S
H250   O259    0.991   .     S
H251   O262    0.991   .     S
H252   O265    0.991   .     S
H253   O269    0.991   .     S
O258   S277    1.499   .     D
O259   S277    1.673   .     S
O260   S278    1.501   .     D
O261   S278    1.497   .     D
O262   S278    1.673   .     S
O263   S279    1.500   .     D
O264   S279    1.499   .     D
O265   S279    1.673   .     S
O266   S280    1.501   .     D
O267   S280    1.497   .     D
O269   S280    1.673   .     S
O276   S277    1.500   .     D
C281   C299    1.454   .     S
C281   O327    1.311   .     A
C281   O341    1.307   .     A
C282   C298    1.398   .     A
C282   H317    1.078   .     S
C282   C354    1.381   .     S
C283   C298    1.403   .     A
C283   H318    1.083   .     S
C283   C376    1.387   .     S
C284   H319    1.078   .     S
C284   C299    1.398   .     A
C285   C289    1.394   .     A
C285   H324    1.080   .     S
C285   C296    1.410   .     A
C286   C290    1.385   .     A
C286   C297    1.408   .     A
C286   H310    1.079   .     S
C287   C297    1.410   .     A
C287   C291    1.394   .     A
C287   H311    1.080   .     S
C288   C293    1.385   .     A
C288   C296    1.408   .     A
C288   H312    1.079   .     S
C289   C294    1.403   .     A
C289   H313    1.083   .     S
C290   H314    1.074   .     S
C290   C295    1.395   .     A
C291   H315    1.083   .     S
C291   C295    1.403   .     A
C292   O338    1.307   .     A
C292   O340    1.311   .     A
C292   C298    1.454   .     S
C293   C294    1.395   .     A
C293   H316    1.074   .     S
C294   C300    1.467   .     S
C295   C301    1.467   .     S
C296   C927    1.488   1_554 S
C297   C926    1.488   .     S
C299   C306    1.403   .     A
C300   O342    1.309   .     A
C300   O345    1.316   .     A
C301   O343    1.316   .     A
C301   O344    1.309   .     A
C302   N326    1.398   .     A
C302   S347    1.844   .     S
C303   S348    1.849   .     S
C303   N325    1.397   .     A
C303   C514    1.465   .     S
C304   N326    1.398   .     A
C304   S349    1.844   .     S
C305   N325    1.397   .     A
C305   S350    1.849   .     S
C305   C512    1.465   .     S
C306   H309    1.083   .     S
Cu307  O342    1.967   .     S
Cu307  O340    1.968   .     S
Cu307  N325    2.052   .     S
Cu307  O344    1.967   .     S
Cu307  O327    1.968   .     S
Cu307  Cu308   2.731   .     S
Cu308  O338    1.968   .     S
Cu308  O341    1.968   .     S
Cu308  N326    2.052   .     S
Cu308  O345    1.967   .     S
Cu308  O343    1.967   .     S
H320   O329    0.991   .     S
H321   O332    0.991   .     S
H322   O335    0.991   .     S
H323   O339    0.991   .     S
O328   S347    1.499   .     D
O329   S347    1.673   .     S
O330   S348    1.501   .     D
O331   S348    1.497   .     D
O332   S348    1.673   .     S
O333   S349    1.500   .     D
O334   S349    1.499   .     D
O335   S349    1.673   .     S
O336   S350    1.501   .     D
O337   S350    1.497   .     D
O339   S350    1.673   .     S
O346   S347    1.500   .     D
C351   C369    1.454   .     S
C351   O397    1.311   .     A
C351   O411    1.307   .     A
C352   C368    1.398   .     A
C352   H387    1.078   .     S
C352   C214    1.381   1_655 S
C353   C368    1.403   .     A
C353   H388    1.083   .     S
C353   C236    1.387   1_655 S
C354   H389    1.078   .     S
C354   C369    1.398   .     A
C355   C359    1.394   .     A
C355   H394    1.080   .     S
C355   C366    1.410   .     A
C356   C360    1.385   .     A
C356   C367    1.408   .     A
C356   H380    1.079   .     S
C357   C367    1.410   .     A
C357   C361    1.394   .     A
C357   H381    1.080   .     S
C358   C363    1.385   .     A
C358   C366    1.408   .     A
C358   H382    1.079   .     S
C359   C364    1.403   .     A
C359   H383    1.083   .     S
C360   H384    1.074   .     S
C360   C365    1.395   .     A
C361   H385    1.083   .     S
C361   C365    1.403   .     A
C362   O408    1.307   .     A
C362   O410    1.311   .     A
C362   C368    1.454   .     S
C363   C364    1.395   .     A
C363   H386    1.074   .     S
C364   C370    1.467   .     S
C365   C371    1.467   .     S
C366   C997    1.488   1_554 S
C367   C996    1.488   .     S
C369   C376    1.403   .     A
C370   O412    1.309   .     A
C370   O415    1.316   .     A
C371   O413    1.316   .     A
C371   O414    1.309   .     A
C372   N396    1.398   .     A
C372   S417    1.844   .     S
C373   S418    1.849   .     S
C373   N395    1.397   .     A
C373   C584    1.465   .     S
C374   N396    1.398   .     A
C374   S419    1.844   .     S
C375   N395    1.397   .     A
C375   S420    1.849   .     S
C375   C582    1.465   .     S
C376   H379    1.083   .     S
Cu377  O412    1.967   .     S
Cu377  O410    1.968   .     S
Cu377  N395    2.052   .     S
Cu377  O414    1.967   .     S
Cu377  O397    1.968   .     S
Cu377  Cu378   2.731   .     S
Cu378  O408    1.968   .     S
Cu378  O411    1.968   .     S
Cu378  N396    2.052   .     S
Cu378  O415    1.967   .     S
Cu378  O413    1.967   .     S
H390   O399    0.991   .     S
H391   O402    0.991   .     S
H392   O405    0.991   .     S
H393   O409    0.991   .     S
O398   S417    1.499   .     D
O399   S417    1.673   .     S
O400   S418    1.501   .     D
O401   S418    1.497   .     D
O402   S418    1.673   .     S
O403   S419    1.500   .     D
O404   S419    1.499   .     D
O405   S419    1.673   .     S
O406   S420    1.501   .     D
O407   S420    1.497   .     D
O409   S420    1.673   .     S
O416   S417    1.500   .     D
C421   C439    1.454   .     S
C421   O467    1.311   .     A
C421   O481    1.307   .     A
C422   C438    1.398   .     A
C422   H457    1.078   .     S
C422   C494    1.381   .     S
C423   C438    1.403   .     A
C423   H458    1.083   .     S
C423   C516    1.387   .     S
C424   H459    1.078   .     S
C424   C439    1.398   .     A
C424   C562    1.381   1_455 S
C425   C429    1.394   .     A
C425   H464    1.080   .     S
C425   C436    1.410   .     A
C426   C430    1.385   .     A
C426   C437    1.408   .     A
C426   H450    1.079   .     S
C427   C437    1.410   .     A
C427   C431    1.394   .     A
C427   H451    1.080   .     S
C428   C433    1.385   .     A
C428   C436    1.408   .     A
C428   H452    1.079   .     S
C429   C434    1.403   .     A
C429   H453    1.083   .     S
C430   H454    1.074   .     S
C430   C435    1.395   .     A
C431   H455    1.083   .     S
C431   C435    1.403   .     A
C432   O478    1.307   .     A
C432   O480    1.311   .     A
C432   C438    1.454   .     S
C433   C434    1.395   .     A
C433   H456    1.074   .     S
C434   C440    1.467   .     S
C435   C441    1.467   .     S
C436   C1067   1.488   1_554 S
C437   C1066   1.488   .     S
C439   C446    1.403   .     A
C440   O482    1.309   .     A
C440   O485    1.316   .     A
C441   O483    1.316   .     A
C441   O484    1.309   .     A
C442   N466    1.398   .     A
C442   S487    1.844   .     S
C443   S488    1.849   .     S
C443   N465    1.397   .     A
C443   C24     1.465   1_565 S
C444   N466    1.398   .     A
C444   S489    1.844   .     S
C445   N465    1.397   .     A
C445   S490    1.849   .     S
C445   C22     1.465   1_565 S
C446   H449    1.083   .     S
C446   C563    1.387   1_455 S
Cu447  O482    1.967   .     S
Cu447  O480    1.968   .     S
Cu447  N465    2.052   .     S
Cu447  O484    1.967   .     S
Cu447  O467    1.968   .     S
Cu447  Cu448   2.731   .     S
Cu448  O478    1.968   .     S
Cu448  O481    1.968   .     S
Cu448  N466    2.052   .     S
Cu448  O485    1.967   .     S
Cu448  O483    1.967   .     S
H460   O469    0.991   .     S
H461   O472    0.991   .     S
H462   O475    0.991   .     S
H463   O479    0.991   .     S
O468   S487    1.499   .     D
O469   S487    1.673   .     S
O470   S488    1.501   .     D
O471   S488    1.497   .     D
O472   S488    1.673   .     S
O473   S489    1.500   .     D
O474   S489    1.499   .     D
O475   S489    1.673   .     S
O476   S490    1.501   .     D
O477   S490    1.497   .     D
O479   S490    1.673   .     S
O486   S487    1.500   .     D
C491   C509    1.454   .     S
C491   O537    1.311   .     A
C491   O551    1.307   .     A
C492   C508    1.398   .     A
C492   H527    1.078   .     S
C492   C564    1.381   .     S
C493   C508    1.403   .     A
C493   H528    1.083   .     S
C493   C586    1.387   .     S
C494   H529    1.078   .     S
C494   C509    1.398   .     A
C495   C499    1.394   .     A
C495   H534    1.080   .     S
C495   C506    1.410   .     A
C496   C500    1.385   .     A
C496   C507    1.408   .     A
C496   H520    1.079   .     S
C497   C507    1.410   .     A
C497   C501    1.394   .     A
C497   H521    1.080   .     S
C498   C503    1.385   .     A
C498   C506    1.408   .     A
C498   H522    1.079   .     S
C499   C504    1.403   .     A
C499   H523    1.083   .     S
C500   H524    1.074   .     S
C500   C505    1.395   .     A
C501   H525    1.083   .     S
C501   C505    1.403   .     A
C502   O548    1.307   .     A
C502   O550    1.311   .     A
C502   C508    1.454   .     S
C503   C504    1.395   .     A
C503   H526    1.074   .     S
C504   C510    1.467   .     S
C505   C511    1.467   .     S
C506   C1137   1.488   1_554 S
C507   C1136   1.488   .     S
C509   C516    1.403   .     A
C510   O552    1.309   .     A
C510   O555    1.316   .     A
C511   O553    1.316   .     A
C511   O554    1.309   .     A
C512   N536    1.398   .     A
C512   S557    1.844   .     S
C513   S558    1.849   .     S
C513   N535    1.397   .     A
C513   C94     1.465   1_565 S
C514   N536    1.398   .     A
C514   S559    1.844   .     S
C515   N535    1.397   .     A
C515   S560    1.849   .     S
C515   C92     1.465   1_565 S
C516   H519    1.083   .     S
Cu517  O552    1.967   .     S
Cu517  O550    1.968   .     S
Cu517  N535    2.052   .     S
Cu517  O554    1.967   .     S
Cu517  O537    1.968   .     S
Cu517  Cu518   2.731   .     S
Cu518  O548    1.968   .     S
Cu518  O551    1.968   .     S
Cu518  N536    2.052   .     S
Cu518  O555    1.967   .     S
Cu518  O553    1.967   .     S
H530   O539    0.991   .     S
H531   O542    0.991   .     S
H532   O545    0.991   .     S
H533   O549    0.991   .     S
O538   S557    1.499   .     D
O539   S557    1.673   .     S
O540   S558    1.501   .     D
O541   S558    1.497   .     D
O542   S558    1.673   .     S
O543   S559    1.500   .     D
O544   S559    1.499   .     D
O545   S559    1.673   .     S
O546   S560    1.501   .     D
O547   S560    1.497   .     D
O549   S560    1.673   .     S
O556   S557    1.500   .     D
C561   C579    1.454   .     S
C561   O607    1.311   .     A
C561   O621    1.307   .     A
C562   C578    1.398   .     A
C562   H597    1.078   .     S
C562   C424    1.381   1_655 S
C563   C578    1.403   .     A
C563   H598    1.083   .     S
C563   C446    1.387   1_655 S
C564   H599    1.078   .     S
C564   C579    1.398   .     A
C565   C569    1.394   .     A
C565   H604    1.080   .     S
C565   C576    1.410   .     A
C566   C570    1.385   .     A
C566   C577    1.408   .     A
C566   H590    1.079   .     S
C567   C577    1.410   .     A
C567   C571    1.394   .     A
C567   H591    1.080   .     S
C568   C573    1.385   .     A
C568   C576    1.408   .     A
C568   H592    1.079   .     S
C569   C574    1.403   .     A
C569   H593    1.083   .     S
C570   H594    1.074   .     S
C570   C575    1.395   .     A
C571   H595    1.083   .     S
C571   C575    1.403   .     A
C572   O618    1.307   .     A
C572   O620    1.311   .     A
C572   C578    1.454   .     S
C573   C574    1.395   .     A
C573   H596    1.074   .     S
C574   C580    1.467   .     S
C575   C581    1.467   .     S
C576   C1207   1.488   1_554 S
C577   C1206   1.488   .     S
C579   C586    1.403   .     A
C580   O622    1.309   .     A
C580   O625    1.316   .     A
C581   O623    1.316   .     A
C581   O624    1.309   .     A
C582   N606    1.398   .     A
C582   S627    1.844   .     S
C583   S628    1.849   .     S
C583   N605    1.397   .     A
C583   C164    1.465   1_565 S
C584   N606    1.398   .     A
C584   S629    1.844   .     S
C585   N605    1.397   .     A
C585   S630    1.849   .     S
C585   C162    1.465   1_565 S
C586   H589    1.083   .     S
Cu587  O622    1.967   .     S
Cu587  O620    1.968   .     S
Cu587  N605    2.052   .     S
Cu587  O624    1.967   .     S
Cu587  O607    1.968   .     S
Cu587  Cu588   2.731   .     S
Cu588  O618    1.968   .     S
Cu588  O621    1.968   .     S
Cu588  N606    2.052   .     S
Cu588  O625    1.967   .     S
Cu588  O623    1.967   .     S
H600   O609    0.991   .     S
H601   O612    0.991   .     S
H602   O615    0.991   .     S
H603   O619    0.991   .     S
O608   S627    1.499   .     D
O609   S627    1.673   .     S
O610   S628    1.501   .     D
O611   S628    1.497   .     D
O612   S628    1.673   .     S
O613   S629    1.500   .     D
O614   S629    1.499   .     D
O615   S629    1.673   .     S
O616   S630    1.501   .     D
O617   S630    1.497   .     D
O619   S630    1.673   .     S
O626   S627    1.500   .     D
C631   C649    1.454   .     S
C631   O677    1.311   .     A
C631   O691    1.307   .     A
C632   C648    1.398   .     A
C632   H667    1.078   .     S
C632   C704    1.381   .     S
C633   C648    1.403   .     A
C633   H668    1.083   .     S
C633   C726    1.387   .     S
C634   H669    1.078   .     S
C634   C649    1.398   .     A
C634   C772    1.381   1_455 S
C635   C639    1.394   .     A
C635   H674    1.080   .     S
C635   C646    1.410   .     A
C636   C640    1.385   .     A
C636   C647    1.408   .     A
C636   H660    1.079   .     S
C637   C647    1.410   .     A
C637   C641    1.394   .     A
C637   H661    1.080   .     S
C638   C643    1.385   .     A
C638   C646    1.408   .     A
C638   H662    1.079   .     S
C639   C644    1.403   .     A
C639   H663    1.083   .     S
C640   H664    1.074   .     S
C640   C645    1.395   .     A
C641   H665    1.083   .     S
C641   C645    1.403   .     A
C642   O688    1.307   .     A
C642   O690    1.311   .     A
C642   C648    1.454   .     S
C643   C644    1.395   .     A
C643   H666    1.074   .     S
C644   C650    1.467   .     S
C645   C651    1.467   .     S
C647   C16     1.488   1_556 S
C649   C656    1.403   .     A
C650   O692    1.309   .     A
C650   O695    1.316   .     A
C651   O693    1.316   .     A
C651   O694    1.309   .     A
C652   N676    1.398   .     A
C652   S697    1.844   .     S
C652   C1075   1.465   1_545 S
C653   S698    1.849   .     S
C653   N675    1.397   .     A
C653   C864    1.465   .     S
C654   N676    1.398   .     A
C654   S699    1.844   .     S
C654   C1073   1.465   1_545 S
C655   N675    1.397   .     A
C655   S700    1.849   .     S
C655   C862    1.465   .     S
C656   H659    1.083   .     S
C656   C773    1.387   1_455 S
Cu657  O692    1.967   .     S
Cu657  O690    1.968   .     S
Cu657  N675    2.052   .     S
Cu657  O694    1.967   .     S
Cu657  O677    1.968   .     S
Cu657  Cu658   2.731   .     S
Cu658  O688    1.968   .     S
Cu658  O691    1.968   .     S
Cu658  N676    2.052   .     S
Cu658  O695    1.967   .     S
Cu658  O693    1.967   .     S
H670   O679    0.991   .     S
H671   O682    0.991   .     S
H672   O685    0.991   .     S
H673   O689    0.991   .     S
O678   S697    1.499   .     D
O679   S697    1.673   .     S
O680   S698    1.501   .     D
O681   S698    1.497   .     D
O682   S698    1.673   .     S
O683   S699    1.500   .     D
O684   S699    1.499   .     D
O685   S699    1.673   .     S
O686   S700    1.501   .     D
O687   S700    1.497   .     D
O689   S700    1.673   .     S
O696   S697    1.500   .     D
C701   C719    1.454   .     S
C701   O747    1.311   .     A
C701   O761    1.307   .     A
C702   C718    1.398   .     A
C702   H737    1.078   .     S
C702   C774    1.381   .     S
C703   C718    1.403   .     A
C703   H738    1.083   .     S
C703   C796    1.387   .     S
C704   H739    1.078   .     S
C704   C719    1.398   .     A
C705   C709    1.394   .     A
C705   H744    1.080   .     S
C705   C716    1.410   .     A
C706   C710    1.385   .     A
C706   C717    1.408   .     A
C706   H730    1.079   .     S
C707   C717    1.410   .     A
C707   C711    1.394   .     A
C707   H731    1.080   .     S
C708   C713    1.385   .     A
C708   C716    1.408   .     A
C708   H732    1.079   .     S
C709   C714    1.403   .     A
C709   H733    1.083   .     S
C710   H734    1.074   .     S
C710   C715    1.395   .     A
C711   H735    1.083   .     S
C711   C715    1.403   .     A
C712   O758    1.307   .     A
C712   O760    1.311   .     A
C712   C718    1.454   .     S
C713   C714    1.395   .     A
C713   H736    1.074   .     S
C714   C720    1.467   .     S
C715   C721    1.467   .     S
C717   C86     1.488   1_556 S
C719   C726    1.403   .     A
C720   O762    1.309   .     A
C720   O765    1.316   .     A
C721   O763    1.316   .     A
C721   O764    1.309   .     A
C722   N746    1.398   .     A
C722   S767    1.844   .     S
C722   C1145   1.465   1_545 S
C723   S768    1.849   .     S
C723   N745    1.397   .     A
C723   C934    1.465   .     S
C724   N746    1.398   .     A
C724   S769    1.844   .     S
C724   C1143   1.465   1_545 S
C725   N745    1.397   .     A
C725   S770    1.849   .     S
C725   C932    1.465   .     S
C726   H729    1.083   .     S
Cu727  O762    1.967   .     S
Cu727  O760    1.968   .     S
Cu727  N745    2.052   .     S
Cu727  O764    1.967   .     S
Cu727  O747    1.968   .     S
Cu727  Cu728   2.731   .     S
Cu728  O758    1.968   .     S
Cu728  O761    1.968   .     S
Cu728  N746    2.052   .     S
Cu728  O765    1.967   .     S
Cu728  O763    1.967   .     S
H740   O749    0.991   .     S
H741   O752    0.991   .     S
H742   O755    0.991   .     S
H743   O759    0.991   .     S
O748   S767    1.499   .     D
O749   S767    1.673   .     S
O750   S768    1.501   .     D
O751   S768    1.497   .     D
O752   S768    1.673   .     S
O753   S769    1.500   .     D
O754   S769    1.499   .     D
O755   S769    1.673   .     S
O756   S770    1.501   .     D
O757   S770    1.497   .     D
O759   S770    1.673   .     S
O766   S767    1.500   .     D
C771   C789    1.454   .     S
C771   O817    1.311   .     A
C771   O831    1.307   .     A
C772   C788    1.398   .     A
C772   H807    1.078   .     S
C772   C634    1.381   1_655 S
C773   C788    1.403   .     A
C773   H808    1.083   .     S
C773   C656    1.387   1_655 S
C774   H809    1.078   .     S
C774   C789    1.398   .     A
C775   C779    1.394   .     A
C775   H814    1.080   .     S
C775   C786    1.410   .     A
C776   C780    1.385   .     A
C776   C787    1.408   .     A
C776   H800    1.079   .     S
C777   C787    1.410   .     A
C777   C781    1.394   .     A
C777   H801    1.080   .     S
C778   C783    1.385   .     A
C778   C786    1.408   .     A
C778   H802    1.079   .     S
C779   C784    1.403   .     A
C779   H803    1.083   .     S
C780   H804    1.074   .     S
C780   C785    1.395   .     A
C781   H805    1.083   .     S
C781   C785    1.403   .     A
C782   O828    1.307   .     A
C782   O830    1.311   .     A
C782   C788    1.454   .     S
C783   C784    1.395   .     A
C783   H806    1.074   .     S
C784   C790    1.467   .     S
C785   C791    1.467   .     S
C787   C156    1.488   1_556 S
C789   C796    1.403   .     A
C790   O832    1.309   .     A
C790   O835    1.316   .     A
C791   O833    1.316   .     A
C791   O834    1.309   .     A
C792   N816    1.398   .     A
C792   S837    1.844   .     S
C792   C1215   1.465   1_545 S
C793   S838    1.849   .     S
C793   N815    1.397   .     A
C793   C1004   1.465   .     S
C794   N816    1.398   .     A
C794   S839    1.844   .     S
C794   C1213   1.465   1_545 S
C795   N815    1.397   .     A
C795   S840    1.849   .     S
C795   C1002   1.465   .     S
C796   H799    1.083   .     S
Cu797  O832    1.967   .     S
Cu797  O830    1.968   .     S
Cu797  N815    2.052   .     S
Cu797  O834    1.967   .     S
Cu797  O817    1.968   .     S
Cu797  Cu798   2.731   .     S
Cu798  O828    1.968   .     S
Cu798  O831    1.968   .     S
Cu798  N816    2.052   .     S
Cu798  O835    1.967   .     S
Cu798  O833    1.967   .     S
H810   O819    0.991   .     S
H811   O822    0.991   .     S
H812   O825    0.991   .     S
H813   O829    0.991   .     S
O818   S837    1.499   .     D
O819   S837    1.673   .     S
O820   S838    1.501   .     D
O821   S838    1.497   .     D
O822   S838    1.673   .     S
O823   S839    1.500   .     D
O824   S839    1.499   .     D
O825   S839    1.673   .     S
O826   S840    1.501   .     D
O827   S840    1.497   .     D
O829   S840    1.673   .     S
O836   S837    1.500   .     D
C841   C859    1.454   .     S
C841   O887    1.311   .     A
C841   O901    1.307   .     A
C842   C858    1.398   .     A
C842   H877    1.078   .     S
C842   C914    1.381   .     S
C843   C858    1.403   .     A
C843   H878    1.083   .     S
C843   C936    1.387   .     S
C844   H879    1.078   .     S
C844   C859    1.398   .     A
C844   C982    1.381   1_455 S
C845   C849    1.394   .     A
C845   H884    1.080   .     S
C845   C856    1.410   .     A
C846   C850    1.385   .     A
C846   C857    1.408   .     A
C846   H870    1.079   .     S
C847   C857    1.410   .     A
C847   C851    1.394   .     A
C847   H871    1.080   .     S
C848   C853    1.385   .     A
C848   C856    1.408   .     A
C848   H872    1.079   .     S
C849   C854    1.403   .     A
C849   H873    1.083   .     S
C850   H874    1.074   .     S
C850   C855    1.395   .     A
C851   H875    1.083   .     S
C851   C855    1.403   .     A
C852   O898    1.307   .     A
C852   O900    1.311   .     A
C852   C858    1.454   .     S
C853   C854    1.395   .     A
C853   H876    1.074   .     S
C854   C860    1.467   .     S
C855   C861    1.467   .     S
C857   C226    1.488   1_556 S
C859   C866    1.403   .     A
C860   O902    1.309   .     A
C860   O905    1.316   .     A
C861   O903    1.316   .     A
C861   O904    1.309   .     A
C862   N886    1.398   .     A
C862   S907    1.844   .     S
C863   S908    1.849   .     S
C863   N885    1.397   .     A
C863   C1074   1.465   .     S
C864   N886    1.398   .     A
C864   S909    1.844   .     S
C865   N885    1.397   .     A
C865   S910    1.849   .     S
C865   C1072   1.465   .     S
C866   H869    1.083   .     S
C866   C983    1.387   1_455 S
Cu867  O902    1.967   .     S
Cu867  O900    1.968   .     S
Cu867  N885    2.052   .     S
Cu867  O904    1.967   .     S
Cu867  O887    1.968   .     S
Cu867  Cu868   2.731   .     S
Cu868  O898    1.968   .     S
Cu868  O901    1.968   .     S
Cu868  N886    2.052   .     S
Cu868  O905    1.967   .     S
Cu868  O903    1.967   .     S
H880   O889    0.991   .     S
H881   O892    0.991   .     S
H882   O895    0.991   .     S
H883   O899    0.991   .     S
O888   S907    1.499   .     D
O889   S907    1.673   .     S
O890   S908    1.501   .     D
O891   S908    1.497   .     D
O892   S908    1.673   .     S
O893   S909    1.500   .     D
O894   S909    1.499   .     D
O895   S909    1.673   .     S
O896   S910    1.501   .     D
O897   S910    1.497   .     D
O899   S910    1.673   .     S
O906   S907    1.500   .     D
C911   C929    1.454   .     S
C911   O957    1.311   .     A
C911   O971    1.307   .     A
C912   C928    1.398   .     A
C912   H947    1.078   .     S
C912   C984    1.381   .     S
C913   C928    1.403   .     A
C913   H948    1.083   .     S
C913   C1006   1.387   .     S
C914   H949    1.078   .     S
C914   C929    1.398   .     A
C915   C919    1.394   .     A
C915   H954    1.080   .     S
C915   C926    1.410   .     A
C916   C920    1.385   .     A
C916   C927    1.408   .     A
C916   H940    1.079   .     S
C917   C927    1.410   .     A
C917   C921    1.394   .     A
C917   H941    1.080   .     S
C918   C923    1.385   .     A
C918   C926    1.408   .     A
C918   H942    1.079   .     S
C919   C924    1.403   .     A
C919   H943    1.083   .     S
C920   H944    1.074   .     S
C920   C925    1.395   .     A
C921   H945    1.083   .     S
C921   C925    1.403   .     A
C922   O968    1.307   .     A
C922   O970    1.311   .     A
C922   C928    1.454   .     S
C923   C924    1.395   .     A
C923   H946    1.074   .     S
C924   C930    1.467   .     S
C925   C931    1.467   .     S
C927   C296    1.488   1_556 S
C929   C936    1.403   .     A
C930   O972    1.309   .     A
C930   O975    1.316   .     A
C931   O973    1.316   .     A
C931   O974    1.309   .     A
C932   N956    1.398   .     A
C932   S977    1.844   .     S
C933   S978    1.849   .     S
C933   N955    1.397   .     A
C933   C1144   1.465   .     S
C934   N956    1.398   .     A
C934   S979    1.844   .     S
C935   N955    1.397   .     A
C935   S980    1.849   .     S
C935   C1142   1.465   .     S
C936   H939    1.083   .     S
Cu937  O972    1.967   .     S
Cu937  O970    1.968   .     S
Cu937  N955    2.052   .     S
Cu937  O974    1.967   .     S
Cu937  O957    1.968   .     S
Cu937  Cu938   2.731   .     S
Cu938  O968    1.968   .     S
Cu938  O971    1.968   .     S
Cu938  N956    2.052   .     S
Cu938  O975    1.967   .     S
Cu938  O973    1.967   .     S
H950   O959    0.991   .     S
H951   O962    0.991   .     S
H952   O965    0.991   .     S
H953   O969    0.991   .     S
O958   S977    1.499   .     D
O959   S977    1.673   .     S
O960   S978    1.501   .     D
O961   S978    1.497   .     D
O962   S978    1.673   .     S
O963   S979    1.500   .     D
O964   S979    1.499   .     D
O965   S979    1.673   .     S
O966   S980    1.501   .     D
O967   S980    1.497   .     D
O969   S980    1.673   .     S
O976   S977    1.500   .     D
C981   C999    1.454   .     S
C981   O1027   1.311   .     A
C981   O1041   1.307   .     A
C982   C998    1.398   .     A
C982   H1017   1.078   .     S
C982   C844    1.381   1_655 S
C983   C998    1.403   .     A
C983   H1018   1.083   .     S
C983   C866    1.387   1_655 S
C984   H1019   1.078   .     S
C984   C999    1.398   .     A
C985   C989    1.394   .     A
C985   H1024   1.080   .     S
C985   C996    1.410   .     A
C986   C990    1.385   .     A
C986   C997    1.408   .     A
C986   H1010   1.079   .     S
C987   C997    1.410   .     A
C987   C991    1.394   .     A
C987   H1011   1.080   .     S
C988   C993    1.385   .     A
C988   C996    1.408   .     A
C988   H1012   1.079   .     S
C989   C994    1.403   .     A
C989   H1013   1.083   .     S
C990   H1014   1.074   .     S
C990   C995    1.395   .     A
C991   H1015   1.083   .     S
C991   C995    1.403   .     A
C992   O1038   1.307   .     A
C992   O1040   1.311   .     A
C992   C998    1.454   .     S
C993   C994    1.395   .     A
C993   H1016   1.074   .     S
C994   C1000   1.467   .     S
C995   C1001   1.467   .     S
C997   C366    1.488   1_556 S
C999   C1006   1.403   .     A
C1000  O1042   1.309   .     A
C1000  O1045   1.316   .     A
C1001  O1043   1.316   .     A
C1001  O1044   1.309   .     A
C1002  N1026   1.398   .     A
C1002  S1047   1.844   .     S
C1003  S1048   1.849   .     S
C1003  N1025   1.397   .     A
C1003  C1214   1.465   .     S
C1004  N1026   1.398   .     A
C1004  S1049   1.844   .     S
C1005  N1025   1.397   .     A
C1005  S1050   1.849   .     S
C1005  C1212   1.465   .     S
C1006  H1009   1.083   .     S
Cu1007 O1042   1.967   .     S
Cu1007 O1040   1.968   .     S
Cu1007 N1025   2.052   .     S
Cu1007 O1044   1.967   .     S
Cu1007 O1027   1.968   .     S
Cu1007 Cu1008  2.731   .     S
Cu1008 O1038   1.968   .     S
Cu1008 O1041   1.968   .     S
Cu1008 N1026   2.052   .     S
Cu1008 O1045   1.967   .     S
Cu1008 O1043   1.967   .     S
H1020  O1029   0.991   .     S
H1021  O1032   0.991   .     S
H1022  O1035   0.991   .     S
H1023  O1039   0.991   .     S
O1028  S1047   1.499   .     D
O1029  S1047   1.673   .     S
O1030  S1048   1.501   .     D
O1031  S1048   1.497   .     D
O1032  S1048   1.673   .     S
O1033  S1049   1.500   .     D
O1034  S1049   1.499   .     D
O1035  S1049   1.673   .     S
O1036  S1050   1.501   .     D
O1037  S1050   1.497   .     D
O1039  S1050   1.673   .     S
O1046  S1047   1.500   .     D
C1051  C1069   1.454   .     S
C1051  O1097   1.311   .     A
C1051  O1111   1.307   .     A
C1052  C1068   1.398   .     A
C1052  H1087   1.078   .     S
C1052  C1124   1.381   .     S
C1053  C1068   1.403   .     A
C1053  H1088   1.083   .     S
C1053  C1146   1.387   .     S
C1054  H1089   1.078   .     S
C1054  C1069   1.398   .     A
C1054  C1192   1.381   1_455 S
C1055  C1059   1.394   .     A
C1055  H1094   1.080   .     S
C1055  C1066   1.410   .     A
C1056  C1060   1.385   .     A
C1056  C1067   1.408   .     A
C1056  H1080   1.079   .     S
C1057  C1067   1.410   .     A
C1057  C1061   1.394   .     A
C1057  H1081   1.080   .     S
C1058  C1063   1.385   .     A
C1058  C1066   1.408   .     A
C1058  H1082   1.079   .     S
C1059  C1064   1.403   .     A
C1059  H1083   1.083   .     S
C1060  H1084   1.074   .     S
C1060  C1065   1.395   .     A
C1061  H1085   1.083   .     S
C1061  C1065   1.403   .     A
C1062  O1108   1.307   .     A
C1062  O1110   1.311   .     A
C1062  C1068   1.454   .     S
C1063  C1064   1.395   .     A
C1063  H1086   1.074   .     S
C1064  C1070   1.467   .     S
C1065  C1071   1.467   .     S
C1067  C436    1.488   1_556 S
C1069  C1076   1.403   .     A
C1070  O1112   1.309   .     A
C1070  O1115   1.316   .     A
C1071  O1113   1.316   .     A
C1071  O1114   1.309   .     A
C1072  N1096   1.398   .     A
C1072  S1117   1.844   .     S
C1073  S1118   1.849   .     S
C1073  N1095   1.397   .     A
C1073  C654    1.465   1_565 S
C1074  N1096   1.398   .     A
C1074  S1119   1.844   .     S
C1075  N1095   1.397   .     A
C1075  S1120   1.849   .     S
C1075  C652    1.465   1_565 S
C1076  H1079   1.083   .     S
C1076  C1193   1.387   1_455 S
Cu1077 O1112   1.967   .     S
Cu1077 O1110   1.968   .     S
Cu1077 N1095   2.052   .     S
Cu1077 O1114   1.967   .     S
Cu1077 O1097   1.968   .     S
Cu1077 Cu1078  2.731   .     S
Cu1078 O1108   1.968   .     S
Cu1078 O1111   1.968   .     S
Cu1078 N1096   2.052   .     S
Cu1078 O1115   1.967   .     S
Cu1078 O1113   1.967   .     S
H1090  O1099   0.991   .     S
H1091  O1102   0.991   .     S
H1092  O1105   0.991   .     S
H1093  O1109   0.991   .     S
O1098  S1117   1.499   .     D
O1099  S1117   1.673   .     S
O1100  S1118   1.501   .     D
O1101  S1118   1.497   .     D
O1102  S1118   1.673   .     S
O1103  S1119   1.500   .     D
O1104  S1119   1.499   .     D
O1105  S1119   1.673   .     S
O1106  S1120   1.501   .     D
O1107  S1120   1.497   .     D
O1109  S1120   1.673   .     S
O1116  S1117   1.500   .     D
C1121  C1139   1.454   .     S
C1121  O1167   1.311   .     A
C1121  O1181   1.307   .     A
C1122  C1138   1.398   .     A
C1122  H1157   1.078   .     S
C1122  C1194   1.381   .     S
C1123  C1138   1.403   .     A
C1123  H1158   1.083   .     S
C1123  C1216   1.387   .     S
C1124  H1159   1.078   .     S
C1124  C1139   1.398   .     A
C1125  C1129   1.394   .     A
C1125  H1164   1.080   .     S
C1125  C1136   1.410   .     A
C1126  C1130   1.385   .     A
C1126  C1137   1.408   .     A
C1126  H1150   1.079   .     S
C1127  C1137   1.410   .     A
C1127  C1131   1.394   .     A
C1127  H1151   1.080   .     S
C1128  C1133   1.385   .     A
C1128  C1136   1.408   .     A
C1128  H1152   1.079   .     S
C1129  C1134   1.403   .     A
C1129  H1153   1.083   .     S
C1130  H1154   1.074   .     S
C1130  C1135   1.395   .     A
C1131  H1155   1.083   .     S
C1131  C1135   1.403   .     A
C1132  O1178   1.307   .     A
C1132  O1180   1.311   .     A
C1132  C1138   1.454   .     S
C1133  C1134   1.395   .     A
C1133  H1156   1.074   .     S
C1134  C1140   1.467   .     S
C1135  C1141   1.467   .     S
C1137  C506    1.488   1_556 S
C1139  C1146   1.403   .     A
C1140  O1182   1.309   .     A
C1140  O1185   1.316   .     A
C1141  O1183   1.316   .     A
C1141  O1184   1.309   .     A
C1142  N1166   1.398   .     A
C1142  S1187   1.844   .     S
C1143  S1188   1.849   .     S
C1143  N1165   1.397   .     A
C1143  C724    1.465   1_565 S
C1144  N1166   1.398   .     A
C1144  S1189   1.844   .     S
C1145  N1165   1.397   .     A
C1145  S1190   1.849   .     S
C1145  C722    1.465   1_565 S
C1146  H1149   1.083   .     S
Cu1147 O1182   1.967   .     S
Cu1147 O1180   1.968   .     S
Cu1147 N1165   2.052   .     S
Cu1147 O1184   1.967   .     S
Cu1147 O1167   1.968   .     S
Cu1147 Cu1148  2.731   .     S
Cu1148 O1178   1.968   .     S
Cu1148 O1181   1.968   .     S
Cu1148 N1166   2.052   .     S
Cu1148 O1185   1.967   .     S
Cu1148 O1183   1.967   .     S
H1160  O1169   0.991   .     S
H1161  O1172   0.991   .     S
H1162  O1175   0.991   .     S
H1163  O1179   0.991   .     S
O1168  S1187   1.499   .     D
O1169  S1187   1.673   .     S
O1170  S1188   1.501   .     D
O1171  S1188   1.497   .     D
O1172  S1188   1.673   .     S
O1173  S1189   1.500   .     D
O1174  S1189   1.499   .     D
O1175  S1189   1.673   .     S
O1176  S1190   1.501   .     D
O1177  S1190   1.497   .     D
O1179  S1190   1.673   .     S
O1186  S1187   1.500   .     D
C1191  C1209   1.454   .     S
C1191  O1237   1.311   .     A
C1191  O1251   1.307   .     A
C1192  C1208   1.398   .     A
C1192  H1227   1.078   .     S
C1192  C1054   1.381   1_655 S
C1193  C1208   1.403   .     A
C1193  H1228   1.083   .     S
C1193  C1076   1.387   1_655 S
C1194  H1229   1.078   .     S
C1194  C1209   1.398   .     A
C1195  C1199   1.394   .     A
C1195  H1234   1.080   .     S
C1195  C1206   1.410   .     A
C1196  C1200   1.385   .     A
C1196  C1207   1.408   .     A
C1196  H1220   1.079   .     S
C1197  C1207   1.410   .     A
C1197  C1201   1.394   .     A
C1197  H1221   1.080   .     S
C1198  C1203   1.385   .     A
C1198  C1206   1.408   .     A
C1198  H1222   1.079   .     S
C1199  C1204   1.403   .     A
C1199  H1223   1.083   .     S
C1200  H1224   1.074   .     S
C1200  C1205   1.395   .     A
C1201  H1225   1.083   .     S
C1201  C1205   1.403   .     A
C1202  O1248   1.307   .     A
C1202  O1250   1.311   .     A
C1202  C1208   1.454   .     S
C1203  C1204   1.395   .     A
C1203  H1226   1.074   .     S
C1204  C1210   1.467   .     S
C1205  C1211   1.467   .     S
C1207  C576    1.488   1_556 S
C1209  C1216   1.403   .     A
C1210  O1252   1.309   .     A
C1210  O1255   1.316   .     A
C1211  O1253   1.316   .     A
C1211  O1254   1.309   .     A
C1212  N1236   1.398   .     A
C1212  S1257   1.844   .     S
C1213  S1258   1.849   .     S
C1213  N1235   1.397   .     A
C1213  C794    1.465   1_565 S
C1214  N1236   1.398   .     A
C1214  S1259   1.844   .     S
C1215  N1235   1.397   .     A
C1215  S1260   1.849   .     S
C1215  C792    1.465   1_565 S
C1216  H1219   1.083   .     S
Cu1217 O1252   1.967   .     S
Cu1217 O1250   1.968   .     S
Cu1217 N1235   2.052   .     S
Cu1217 O1254   1.967   .     S
Cu1217 O1237   1.968   .     S
Cu1217 Cu1218  2.731   .     S
Cu1218 O1248   1.968   .     S
Cu1218 O1251   1.968   .     S
Cu1218 N1236   2.052   .     S
Cu1218 O1255   1.967   .     S
Cu1218 O1253   1.967   .     S
H1230  O1239   0.991   .     S
H1231  O1242   0.991   .     S
H1232  O1245   0.991   .     S
H1233  O1249   0.991   .     S
O1238  S1257   1.499   .     D
O1239  S1257   1.673   .     S
O1240  S1258   1.501   .     D
O1241  S1258   1.497   .     D
O1242  S1258   1.673   .     S
O1243  S1259   1.500   .     D
O1244  S1259   1.499   .     D
O1245  S1259   1.673   .     S
O1246  S1260   1.501   .     D
O1247  S1260   1.497   .     D
O1249  S1260   1.673   .     S
O1256  S1257   1.500   .     D
