data_str_m2_o2_o10_pcu_sym.34
_audit_creation_date              2020-01-03
_audit_creation_method            'Materials Studio'
_symmetry_space_group_name_H-M    'P1'
_symmetry_Int_Tables_number       1
_symmetry_cell_setting            triclinic
loop_
_symmetry_equiv_pos_as_xyz
  x,y,z
_cell_length_a                    26.3682
_cell_length_b                    30.2272
_cell_length_c                    27.8419
_cell_angle_alpha                 90.6397
_cell_angle_beta                  97.9157
_cell_angle_gamma                 90.6598
loop_
_atom_site_label
_atom_site_type_symbol
_atom_site_fract_x
_atom_site_fract_y
_atom_site_fract_z
_atom_site_U_iso_or_equiv
_atom_site_adp_type
_atom_site_occupancy
C1     C     0.16682   0.16507   0.24976   0.00000  Uiso   1.00
C2     C     0.18028   0.28657   0.44969   0.00000  Uiso   1.00
C3     C     0.16905   0.24716   0.02776   0.00000  Uiso   1.00
C4     C     0.16865   0.24734   0.47304   0.00000  Uiso   1.00
C5     C     0.06813   0.25102   0.23778   0.00000  Uiso   1.00
C6     C     0.26526   0.24903   0.26228   0.00000  Uiso   1.00
C7     C     0.01323   0.25664   0.23211   0.00000  Uiso   1.00
C8     C     0.32028   0.24368   0.26818   0.00000  Uiso   1.00
C9     C     0.13145   0.04571   0.21944   0.00000  Uiso   1.00
C10    C     0.20105   0.45253   0.22455   0.00000  Uiso   1.00
C11    C     0.13114   0.09226   0.21830   0.00000  Uiso   1.00
C12    C     0.16634   0.33495   0.25018   0.00000  Uiso   1.00
C13    C     0.19998   0.40624   0.22446   0.00000  Uiso   1.00
C14    C     0.16843   0.11678   0.24947   0.00000  Uiso   1.00
C15    C     0.16603   0.38331   0.25052   0.00000  Uiso   1.00
C16    C     0.20594   0.09477   0.28171   0.00000  Uiso   1.00
C17    C     0.13295   0.40683   0.27733   0.00000  Uiso   1.00
C18    C     0.20491   0.04872   0.28359   0.00000  Uiso   1.00
C19    C     0.13535   0.45294   0.27901   0.00000  Uiso   1.00
C20    C     0.16810   0.02443   0.25226   0.00000  Uiso   1.00
C21    C     0.16872   0.47592   0.25229   0.00000  Uiso   1.00
C22    C     0.21201   0.26236   0.06070   0.00000  Uiso   1.00
C23    C     0.15601   0.20910   0.44320   0.00000  Uiso   1.00
C24    C     0.20828   0.26572   0.11055   0.00000  Uiso   1.00
C25    C     0.15252   0.21235   0.39235   0.00000  Uiso   1.00
C26    C     0.12611   0.23180   0.09901   0.00000  Uiso   1.00
C27    C     0.18310   0.28619   0.39936   0.00000  Uiso   1.00
C28    C     0.12523   0.23296   0.04755   0.00000  Uiso   1.00
Cu29   Cu    0.16667   0.24999   0.29822   0.00000  Uiso   1.00
Cu30   Cu    0.16667   0.25000   0.20179   0.00000  Uiso   1.00
H31    H     0.24012   0.27961   0.13458   0.00000  Uiso   1.00
H32    H     0.27190   0.39169   0.21200   0.00000  Uiso   1.00
H33    H     0.25029   0.14646   0.29825   0.00000  Uiso   1.00
H34    H     0.08768   0.35703   0.28626   0.00000  Uiso   1.00
H35    H     0.22376   0.00710   0.33960   0.00000  Uiso   1.00
H36    H     0.26424   0.00653   0.29728   0.00000  Uiso   1.00
H37    H     0.12490   0.49640   0.33268   0.00000  Uiso   1.00
H38    H     0.07794   0.49610   0.28443   0.00000  Uiso   1.00
H39    H     0.26028   0.26075   0.01384   0.00000  Uiso   1.00
H40    H     0.16222   0.16746   0.49638   0.00000  Uiso   1.00
H41    H     0.06188   0.19754   0.09481   0.00000  Uiso   1.00
H42    H     0.14046   0.18341   0.37049   0.00000  Uiso   1.00
H43    H     0.22918   0.31066   0.35961   0.00000  Uiso   1.00
H44    H     0.04931   0.23973   0.02414   0.00000  Uiso   1.00
H45    H     0.07178   0.18743   0.01864   0.00000  Uiso   1.00
H46    H     0.16513   0.35068   0.46254   0.00000  Uiso   1.00
H47    H     0.22785   0.33764   0.47367   0.00000  Uiso   1.00
H48    H     0.01453   0.28825   0.17127   0.00000  Uiso   1.00
H49    H     0.31920   0.21263   0.32942   0.00000  Uiso   1.00
H50    H     0.07365   0.03850   0.16733   0.00000  Uiso   1.00
H51    H     0.23090   0.00566   0.19877   0.00000  Uiso   1.00
H52    H     0.10924   0.13121   0.16038   0.00000  Uiso   1.00
H53    H     0.07323   0.13647   0.20649   0.00000  Uiso   1.00
H54    H     0.22734   0.39086   0.16190   0.00000  Uiso   1.00
N55    N     0.16667   0.25001   0.12935   0.00000  Uiso   1.00
N56    N     0.16667   0.24999   0.37066   0.00000  Uiso   1.00
N57    N     0.09206   0.11409   0.18638   0.00000  Uiso   1.00
N58    N     0.23437   0.38215   0.19843   0.00000  Uiso   1.00
N59    N     0.24262   0.02695   0.31696   0.00000  Uiso   1.00
N60    N     0.10236   0.47610   0.30737   0.00000  Uiso   1.00
N61    N     0.07985   0.22107   0.01509   0.00000  Uiso   1.00
N62    N     0.19082   0.32675   0.47735   0.00000  Uiso   1.00
O63    O     0.16667   0.18572   0.29072   0.00000  Uiso   1.00
O64    O     0.01149   0.22284   0.30895   0.00000  Uiso   1.00
O65    O     0.09667   0.01973   0.18929   0.00000  Uiso   1.00
O66    O     0.23436   0.47319   0.19730   0.00000  Uiso   1.00
O67    O     0.24466   0.11685   0.31149   0.00000  Uiso   1.00
O68    O     0.09705   0.38622   0.30158   0.00000  Uiso   1.00
O69    O     0.25842   0.27377   0.04631   0.00000  Uiso   1.00
O70    O     0.14765   0.16788   0.46168   0.00000  Uiso   1.00
O71    O     0.08698   0.21222   0.11965   0.00000  Uiso   1.00
O72    O     0.20504   0.32236   0.38070   0.00000  Uiso   1.00
O73    O     0.16666   0.31427   0.20929   0.00000  Uiso   1.00
O74    O     0.16667   0.18573   0.20928   0.00000  Uiso   1.00
O75    O     0.16666   0.31427   0.29072   0.00000  Uiso   1.00
O76    O     0.09161   0.24999   0.28132   0.00000  Uiso   1.00
O77    O     0.24172   0.25000   0.21868   0.00000  Uiso   1.00
O78    O     0.09161   0.25000   0.19989   0.00000  Uiso   1.00
O79    O     0.24172   0.25000   0.30012   0.00000  Uiso   1.00
O80    O     0.32224   0.27810   0.19176   0.00000  Uiso   1.00
C81    C     0.50015   0.16507   0.24976   0.00000  Uiso   1.00
C82    C     0.51361   0.28657   0.44969   0.00000  Uiso   1.00
C83    C     0.50238   0.24716   0.02776   0.00000  Uiso   1.00
C84    C     0.50198   0.24734   0.47304   0.00000  Uiso   1.00
C85    C     0.40146   0.25102   0.23778   0.00000  Uiso   1.00
C86    C     0.59859   0.24903   0.26228   0.00000  Uiso   1.00
C87    C     0.34656   0.25664   0.23211   0.00000  Uiso   1.00
C88    C     0.65361   0.24368   0.26818   0.00000  Uiso   1.00
C89    C     0.46478   0.04571   0.21944   0.00000  Uiso   1.00
C90    C     0.53438   0.45253   0.22455   0.00000  Uiso   1.00
C91    C     0.46447   0.09226   0.21830   0.00000  Uiso   1.00
C92    C     0.49968   0.33495   0.25018   0.00000  Uiso   1.00
C93    C     0.53331   0.40624   0.22446   0.00000  Uiso   1.00
C94    C     0.50176   0.11678   0.24947   0.00000  Uiso   1.00
C95    C     0.49936   0.38331   0.25052   0.00000  Uiso   1.00
C96    C     0.53927   0.09477   0.28171   0.00000  Uiso   1.00
C97    C     0.46628   0.40683   0.27733   0.00000  Uiso   1.00
C98    C     0.53824   0.04872   0.28359   0.00000  Uiso   1.00
C99    C     0.46868   0.45294   0.27901   0.00000  Uiso   1.00
C100   C     0.50144   0.02443   0.25226   0.00000  Uiso   1.00
C101   C     0.50205   0.47592   0.25229   0.00000  Uiso   1.00
C102   C     0.54534   0.26236   0.06070   0.00000  Uiso   1.00
C103   C     0.48934   0.20910   0.44320   0.00000  Uiso   1.00
C104   C     0.54162   0.26572   0.11055   0.00000  Uiso   1.00
C105   C     0.48586   0.21235   0.39235   0.00000  Uiso   1.00
C106   C     0.45945   0.23180   0.09901   0.00000  Uiso   1.00
C107   C     0.51643   0.28619   0.39936   0.00000  Uiso   1.00
C108   C     0.45857   0.23296   0.04755   0.00000  Uiso   1.00
Cu109  Cu    0.50000   0.24999   0.29822   0.00000  Uiso   1.00
Cu110  Cu    0.50000   0.25000   0.20179   0.00000  Uiso   1.00
H111   H     0.57346   0.27961   0.13458   0.00000  Uiso   1.00
H112   H     0.60524   0.39169   0.21200   0.00000  Uiso   1.00
H113   H     0.58362   0.14646   0.29825   0.00000  Uiso   1.00
H114   H     0.42101   0.35703   0.28626   0.00000  Uiso   1.00
H115   H     0.55709   0.00710   0.33960   0.00000  Uiso   1.00
H116   H     0.59757   0.00653   0.29728   0.00000  Uiso   1.00
H117   H     0.45823   0.49640   0.33268   0.00000  Uiso   1.00
H118   H     0.41128   0.49610   0.28443   0.00000  Uiso   1.00
H119   H     0.59361   0.26075   0.01384   0.00000  Uiso   1.00
H120   H     0.49555   0.16746   0.49638   0.00000  Uiso   1.00
H121   H     0.39522   0.19754   0.09481   0.00000  Uiso   1.00
H122   H     0.47380   0.18341   0.37049   0.00000  Uiso   1.00
H123   H     0.56252   0.31066   0.35961   0.00000  Uiso   1.00
H124   H     0.38265   0.23973   0.02414   0.00000  Uiso   1.00
H125   H     0.40511   0.18743   0.01864   0.00000  Uiso   1.00
H126   H     0.49846   0.35068   0.46254   0.00000  Uiso   1.00
H127   H     0.56118   0.33764   0.47367   0.00000  Uiso   1.00
H128   H     0.34787   0.28825   0.17127   0.00000  Uiso   1.00
H129   H     0.65254   0.21263   0.32942   0.00000  Uiso   1.00
H130   H     0.40699   0.03850   0.16733   0.00000  Uiso   1.00
H131   H     0.56423   0.00566   0.19877   0.00000  Uiso   1.00
H132   H     0.44257   0.13121   0.16038   0.00000  Uiso   1.00
H133   H     0.40656   0.13647   0.20649   0.00000  Uiso   1.00
H134   H     0.56068   0.39086   0.16190   0.00000  Uiso   1.00
N135   N     0.50000   0.25001   0.12935   0.00000  Uiso   1.00
N136   N     0.50000   0.24999   0.37066   0.00000  Uiso   1.00
N137   N     0.42539   0.11409   0.18638   0.00000  Uiso   1.00
N138   N     0.56770   0.38215   0.19843   0.00000  Uiso   1.00
N139   N     0.57596   0.02695   0.31696   0.00000  Uiso   1.00
N140   N     0.43570   0.47610   0.30737   0.00000  Uiso   1.00
N141   N     0.41319   0.22107   0.01509   0.00000  Uiso   1.00
N142   N     0.52415   0.32675   0.47735   0.00000  Uiso   1.00
O143   O     0.50000   0.18572   0.29072   0.00000  Uiso   1.00
O144   O     0.34482   0.22284   0.30895   0.00000  Uiso   1.00
O145   O     0.43000   0.01973   0.18929   0.00000  Uiso   1.00
O146   O     0.56770   0.47319   0.19730   0.00000  Uiso   1.00
O147   O     0.57799   0.11685   0.31149   0.00000  Uiso   1.00
O148   O     0.43038   0.38622   0.30158   0.00000  Uiso   1.00
O149   O     0.59176   0.27377   0.04631   0.00000  Uiso   1.00
O150   O     0.48098   0.16788   0.46168   0.00000  Uiso   1.00
O151   O     0.42031   0.21222   0.11965   0.00000  Uiso   1.00
O152   O     0.53838   0.32236   0.38070   0.00000  Uiso   1.00
O153   O     0.50000   0.31427   0.20929   0.00000  Uiso   1.00
O154   O     0.50000   0.18573   0.20928   0.00000  Uiso   1.00
O155   O     0.50000   0.31427   0.29072   0.00000  Uiso   1.00
O156   O     0.42495   0.24999   0.28132   0.00000  Uiso   1.00
O157   O     0.57505   0.25000   0.21868   0.00000  Uiso   1.00
O158   O     0.42495   0.25000   0.19989   0.00000  Uiso   1.00
O159   O     0.57505   0.25000   0.30012   0.00000  Uiso   1.00
O160   O     0.65557   0.27810   0.19176   0.00000  Uiso   1.00
C161   C     0.83349   0.16507   0.24976   0.00000  Uiso   1.00
C162   C     0.84695   0.28657   0.44969   0.00000  Uiso   1.00
C163   C     0.83572   0.24716   0.02776   0.00000  Uiso   1.00
C164   C     0.83532   0.24734   0.47304   0.00000  Uiso   1.00
C165   C     0.73479   0.25102   0.23778   0.00000  Uiso   1.00
C166   C     0.93192   0.24903   0.26228   0.00000  Uiso   1.00
C167   C     0.67990   0.25664   0.23211   0.00000  Uiso   1.00
C168   C     0.98695   0.24368   0.26818   0.00000  Uiso   1.00
C169   C     0.79811   0.04571   0.21944   0.00000  Uiso   1.00
C170   C     0.86771   0.45253   0.22455   0.00000  Uiso   1.00
C171   C     0.79781   0.09226   0.21830   0.00000  Uiso   1.00
C172   C     0.83301   0.33495   0.25018   0.00000  Uiso   1.00
C173   C     0.86665   0.40624   0.22446   0.00000  Uiso   1.00
C174   C     0.83510   0.11678   0.24947   0.00000  Uiso   1.00
C175   C     0.83270   0.38331   0.25052   0.00000  Uiso   1.00
C176   C     0.87261   0.09477   0.28171   0.00000  Uiso   1.00
C177   C     0.79961   0.40683   0.27733   0.00000  Uiso   1.00
C178   C     0.87158   0.04872   0.28359   0.00000  Uiso   1.00
C179   C     0.80202   0.45294   0.27901   0.00000  Uiso   1.00
C180   C     0.83477   0.02443   0.25226   0.00000  Uiso   1.00
C181   C     0.83538   0.47592   0.25229   0.00000  Uiso   1.00
C182   C     0.87868   0.26236   0.06070   0.00000  Uiso   1.00
C183   C     0.82267   0.20910   0.44320   0.00000  Uiso   1.00
C184   C     0.87495   0.26572   0.11055   0.00000  Uiso   1.00
C185   C     0.81919   0.21235   0.39235   0.00000  Uiso   1.00
C186   C     0.79278   0.23180   0.09901   0.00000  Uiso   1.00
C187   C     0.84977   0.28619   0.39936   0.00000  Uiso   1.00
C188   C     0.79190   0.23296   0.04755   0.00000  Uiso   1.00
Cu189  Cu    0.83333   0.24999   0.29822   0.00000  Uiso   1.00
Cu190  Cu    0.83333   0.25000   0.20179   0.00000  Uiso   1.00
H191   H     0.90679   0.27961   0.13458   0.00000  Uiso   1.00
H192   H     0.93857   0.39169   0.21200   0.00000  Uiso   1.00
H193   H     0.91696   0.14646   0.29825   0.00000  Uiso   1.00
H194   H     0.75434   0.35703   0.28626   0.00000  Uiso   1.00
H195   H     0.89042   0.00710   0.33960   0.00000  Uiso   1.00
H196   H     0.93090   0.00653   0.29728   0.00000  Uiso   1.00
H197   H     0.79157   0.49640   0.33268   0.00000  Uiso   1.00
H198   H     0.74461   0.49610   0.28443   0.00000  Uiso   1.00
H199   H     0.92694   0.26075   0.01384   0.00000  Uiso   1.00
H200   H     0.82889   0.16746   0.49638   0.00000  Uiso   1.00
H201   H     0.72855   0.19754   0.09481   0.00000  Uiso   1.00
H202   H     0.80713   0.18341   0.37049   0.00000  Uiso   1.00
H203   H     0.89585   0.31066   0.35961   0.00000  Uiso   1.00
H204   H     0.71598   0.23973   0.02414   0.00000  Uiso   1.00
H205   H     0.73844   0.18743   0.01864   0.00000  Uiso   1.00
H206   H     0.83179   0.35068   0.46254   0.00000  Uiso   1.00
H207   H     0.89452   0.33764   0.47367   0.00000  Uiso   1.00
H208   H     0.68120   0.28825   0.17127   0.00000  Uiso   1.00
H209   H     0.98587   0.21263   0.32942   0.00000  Uiso   1.00
H210   H     0.74032   0.03850   0.16733   0.00000  Uiso   1.00
H211   H     0.89756   0.00566   0.19877   0.00000  Uiso   1.00
H212   H     0.77591   0.13121   0.16038   0.00000  Uiso   1.00
H213   H     0.73989   0.13647   0.20649   0.00000  Uiso   1.00
H214   H     0.89401   0.39086   0.16190   0.00000  Uiso   1.00
N215   N     0.83333   0.25001   0.12935   0.00000  Uiso   1.00
N216   N     0.83333   0.24999   0.37066   0.00000  Uiso   1.00
N217   N     0.75873   0.11409   0.18638   0.00000  Uiso   1.00
N218   N     0.90104   0.38215   0.19843   0.00000  Uiso   1.00
N219   N     0.90929   0.02695   0.31696   0.00000  Uiso   1.00
N220   N     0.76903   0.47610   0.30737   0.00000  Uiso   1.00
N221   N     0.74652   0.22107   0.01509   0.00000  Uiso   1.00
N222   N     0.85748   0.32675   0.47735   0.00000  Uiso   1.00
O223   O     0.83334   0.18572   0.29072   0.00000  Uiso   1.00
O224   O     0.67816   0.22284   0.30895   0.00000  Uiso   1.00
O225   O     0.76333   0.01973   0.18929   0.00000  Uiso   1.00
O226   O     0.90103   0.47319   0.19730   0.00000  Uiso   1.00
O227   O     0.91132   0.11685   0.31149   0.00000  Uiso   1.00
O228   O     0.76372   0.38622   0.30158   0.00000  Uiso   1.00
O229   O     0.92509   0.27377   0.04631   0.00000  Uiso   1.00
O230   O     0.81432   0.16788   0.46168   0.00000  Uiso   1.00
O231   O     0.75364   0.21222   0.11965   0.00000  Uiso   1.00
O232   O     0.87171   0.32236   0.38070   0.00000  Uiso   1.00
O233   O     0.83333   0.31427   0.20929   0.00000  Uiso   1.00
O234   O     0.83334   0.18573   0.20928   0.00000  Uiso   1.00
O235   O     0.83333   0.31427   0.29072   0.00000  Uiso   1.00
O236   O     0.75828   0.24999   0.28132   0.00000  Uiso   1.00
O237   O     0.90839   0.25000   0.21868   0.00000  Uiso   1.00
O238   O     0.75828   0.25000   0.19989   0.00000  Uiso   1.00
O239   O     0.90839   0.25000   0.30012   0.00000  Uiso   1.00
O240   O     0.98891   0.27810   0.19176   0.00000  Uiso   1.00
C241   C     0.16682   0.66507   0.24976   0.00000  Uiso   1.00
C242   C     0.18028   0.78657   0.44969   0.00000  Uiso   1.00
C243   C     0.16905   0.74716   0.02776   0.00000  Uiso   1.00
C244   C     0.16865   0.74734   0.47304   0.00000  Uiso   1.00
C245   C     0.06813   0.75102   0.23778   0.00000  Uiso   1.00
C246   C     0.26526   0.74903   0.26228   0.00000  Uiso   1.00
C247   C     0.01323   0.75664   0.23211   0.00000  Uiso   1.00
C248   C     0.32028   0.74368   0.26818   0.00000  Uiso   1.00
C249   C     0.13145   0.54571   0.21944   0.00000  Uiso   1.00
C250   C     0.20105   0.95253   0.22455   0.00000  Uiso   1.00
C251   C     0.13114   0.59226   0.21830   0.00000  Uiso   1.00
C252   C     0.16634   0.83495   0.25018   0.00000  Uiso   1.00
C253   C     0.19998   0.90624   0.22446   0.00000  Uiso   1.00
C254   C     0.16843   0.61678   0.24947   0.00000  Uiso   1.00
C255   C     0.16603   0.88331   0.25052   0.00000  Uiso   1.00
C256   C     0.20594   0.59477   0.28171   0.00000  Uiso   1.00
C257   C     0.13295   0.90683   0.27733   0.00000  Uiso   1.00
C258   C     0.20491   0.54872   0.28359   0.00000  Uiso   1.00
C259   C     0.13535   0.95294   0.27901   0.00000  Uiso   1.00
C260   C     0.16810   0.52443   0.25226   0.00000  Uiso   1.00
C261   C     0.16872   0.97592   0.25229   0.00000  Uiso   1.00
C262   C     0.21201   0.76236   0.06070   0.00000  Uiso   1.00
C263   C     0.15601   0.70910   0.44320   0.00000  Uiso   1.00
C264   C     0.20828   0.76572   0.11055   0.00000  Uiso   1.00
C265   C     0.15252   0.71235   0.39235   0.00000  Uiso   1.00
C266   C     0.12611   0.73180   0.09901   0.00000  Uiso   1.00
C267   C     0.18310   0.78619   0.39936   0.00000  Uiso   1.00
C268   C     0.12523   0.73296   0.04755   0.00000  Uiso   1.00
Cu269  Cu    0.16667   0.74999   0.29822   0.00000  Uiso   1.00
Cu270  Cu    0.16667   0.75000   0.20179   0.00000  Uiso   1.00
H271   H     0.24012   0.77961   0.13458   0.00000  Uiso   1.00
H272   H     0.27190   0.89169   0.21200   0.00000  Uiso   1.00
H273   H     0.25029   0.64646   0.29825   0.00000  Uiso   1.00
H274   H     0.08768   0.85703   0.28626   0.00000  Uiso   1.00
H275   H     0.22376   0.50710   0.33960   0.00000  Uiso   1.00
H276   H     0.26424   0.50653   0.29728   0.00000  Uiso   1.00
H277   H     0.12490   0.99640   0.33268   0.00000  Uiso   1.00
H278   H     0.07794   0.99610   0.28443   0.00000  Uiso   1.00
H279   H     0.26028   0.76075   0.01384   0.00000  Uiso   1.00
H280   H     0.16222   0.66746   0.49638   0.00000  Uiso   1.00
H281   H     0.06188   0.69754   0.09481   0.00000  Uiso   1.00
H282   H     0.14046   0.68341   0.37049   0.00000  Uiso   1.00
H283   H     0.22918   0.81066   0.35961   0.00000  Uiso   1.00
H284   H     0.04931   0.73973   0.02414   0.00000  Uiso   1.00
H285   H     0.07178   0.68743   0.01864   0.00000  Uiso   1.00
H286   H     0.16513   0.85068   0.46254   0.00000  Uiso   1.00
H287   H     0.22785   0.83764   0.47367   0.00000  Uiso   1.00
H288   H     0.01453   0.78825   0.17127   0.00000  Uiso   1.00
H289   H     0.31920   0.71263   0.32942   0.00000  Uiso   1.00
H290   H     0.07365   0.53850   0.16733   0.00000  Uiso   1.00
H291   H     0.23090   0.50566   0.19877   0.00000  Uiso   1.00
H292   H     0.10924   0.63121   0.16038   0.00000  Uiso   1.00
H293   H     0.07323   0.63647   0.20649   0.00000  Uiso   1.00
H294   H     0.22734   0.89086   0.16190   0.00000  Uiso   1.00
N295   N     0.16667   0.75001   0.12935   0.00000  Uiso   1.00
N296   N     0.16667   0.74999   0.37066   0.00000  Uiso   1.00
N297   N     0.09206   0.61409   0.18638   0.00000  Uiso   1.00
N298   N     0.23437   0.88215   0.19843   0.00000  Uiso   1.00
N299   N     0.24262   0.52695   0.31696   0.00000  Uiso   1.00
N300   N     0.10236   0.97610   0.30737   0.00000  Uiso   1.00
N301   N     0.07985   0.72107   0.01509   0.00000  Uiso   1.00
N302   N     0.19082   0.82675   0.47735   0.00000  Uiso   1.00
O303   O     0.16667   0.68572   0.29072   0.00000  Uiso   1.00
O304   O     0.01149   0.72284   0.30895   0.00000  Uiso   1.00
O305   O     0.09667   0.51973   0.18929   0.00000  Uiso   1.00
O306   O     0.23436   0.97319   0.19730   0.00000  Uiso   1.00
O307   O     0.24466   0.61685   0.31149   0.00000  Uiso   1.00
O308   O     0.09705   0.88622   0.30158   0.00000  Uiso   1.00
O309   O     0.25842   0.77377   0.04631   0.00000  Uiso   1.00
O310   O     0.14765   0.66788   0.46168   0.00000  Uiso   1.00
O311   O     0.08698   0.71222   0.11965   0.00000  Uiso   1.00
O312   O     0.20504   0.82236   0.38070   0.00000  Uiso   1.00
O313   O     0.16666   0.81427   0.20929   0.00000  Uiso   1.00
O314   O     0.16667   0.68573   0.20928   0.00000  Uiso   1.00
O315   O     0.16666   0.81427   0.29072   0.00000  Uiso   1.00
O316   O     0.09161   0.74999   0.28132   0.00000  Uiso   1.00
O317   O     0.24172   0.75000   0.21868   0.00000  Uiso   1.00
O318   O     0.09161   0.75000   0.19989   0.00000  Uiso   1.00
O319   O     0.24172   0.75000   0.30012   0.00000  Uiso   1.00
O320   O     0.32224   0.77810   0.19176   0.00000  Uiso   1.00
C321   C     0.50015   0.66507   0.24976   0.00000  Uiso   1.00
C322   C     0.51361   0.78657   0.44969   0.00000  Uiso   1.00
C323   C     0.50238   0.74716   0.02776   0.00000  Uiso   1.00
C324   C     0.50198   0.74734   0.47304   0.00000  Uiso   1.00
C325   C     0.40146   0.75102   0.23778   0.00000  Uiso   1.00
C326   C     0.59859   0.74903   0.26228   0.00000  Uiso   1.00
C327   C     0.34656   0.75664   0.23211   0.00000  Uiso   1.00
C328   C     0.65361   0.74368   0.26818   0.00000  Uiso   1.00
C329   C     0.46478   0.54571   0.21944   0.00000  Uiso   1.00
C330   C     0.53438   0.95253   0.22455   0.00000  Uiso   1.00
C331   C     0.46447   0.59226   0.21830   0.00000  Uiso   1.00
C332   C     0.49968   0.83495   0.25018   0.00000  Uiso   1.00
C333   C     0.53331   0.90624   0.22446   0.00000  Uiso   1.00
C334   C     0.50176   0.61678   0.24947   0.00000  Uiso   1.00
C335   C     0.49936   0.88331   0.25052   0.00000  Uiso   1.00
C336   C     0.53927   0.59477   0.28171   0.00000  Uiso   1.00
C337   C     0.46628   0.90683   0.27733   0.00000  Uiso   1.00
C338   C     0.53824   0.54872   0.28359   0.00000  Uiso   1.00
C339   C     0.46868   0.95294   0.27901   0.00000  Uiso   1.00
C340   C     0.50144   0.52443   0.25226   0.00000  Uiso   1.00
C341   C     0.50205   0.97592   0.25229   0.00000  Uiso   1.00
C342   C     0.54534   0.76236   0.06070   0.00000  Uiso   1.00
C343   C     0.48934   0.70910   0.44320   0.00000  Uiso   1.00
C344   C     0.54162   0.76572   0.11055   0.00000  Uiso   1.00
C345   C     0.48586   0.71235   0.39235   0.00000  Uiso   1.00
C346   C     0.45945   0.73180   0.09901   0.00000  Uiso   1.00
C347   C     0.51643   0.78619   0.39936   0.00000  Uiso   1.00
C348   C     0.45857   0.73296   0.04755   0.00000  Uiso   1.00
Cu349  Cu    0.50000   0.74999   0.29822   0.00000  Uiso   1.00
Cu350  Cu    0.50000   0.75000   0.20179   0.00000  Uiso   1.00
H351   H     0.57346   0.77961   0.13458   0.00000  Uiso   1.00
H352   H     0.60524   0.89169   0.21200   0.00000  Uiso   1.00
H353   H     0.58362   0.64646   0.29825   0.00000  Uiso   1.00
H354   H     0.42101   0.85703   0.28626   0.00000  Uiso   1.00
H355   H     0.55709   0.50710   0.33960   0.00000  Uiso   1.00
H356   H     0.59757   0.50653   0.29728   0.00000  Uiso   1.00
H357   H     0.45823   0.99640   0.33268   0.00000  Uiso   1.00
H358   H     0.41128   0.99610   0.28443   0.00000  Uiso   1.00
H359   H     0.59361   0.76075   0.01384   0.00000  Uiso   1.00
H360   H     0.49555   0.66746   0.49638   0.00000  Uiso   1.00
H361   H     0.39522   0.69754   0.09481   0.00000  Uiso   1.00
H362   H     0.47380   0.68341   0.37049   0.00000  Uiso   1.00
H363   H     0.56252   0.81066   0.35961   0.00000  Uiso   1.00
H364   H     0.38265   0.73973   0.02414   0.00000  Uiso   1.00
H365   H     0.40511   0.68743   0.01864   0.00000  Uiso   1.00
H366   H     0.49846   0.85068   0.46254   0.00000  Uiso   1.00
H367   H     0.56118   0.83764   0.47367   0.00000  Uiso   1.00
H368   H     0.34787   0.78825   0.17127   0.00000  Uiso   1.00
H369   H     0.65254   0.71263   0.32942   0.00000  Uiso   1.00
H370   H     0.40699   0.53850   0.16733   0.00000  Uiso   1.00
H371   H     0.56423   0.50566   0.19877   0.00000  Uiso   1.00
H372   H     0.44257   0.63121   0.16038   0.00000  Uiso   1.00
H373   H     0.40656   0.63647   0.20649   0.00000  Uiso   1.00
H374   H     0.56068   0.89086   0.16190   0.00000  Uiso   1.00
N375   N     0.50000   0.75001   0.12935   0.00000  Uiso   1.00
N376   N     0.50000   0.74999   0.37066   0.00000  Uiso   1.00
N377   N     0.42539   0.61409   0.18638   0.00000  Uiso   1.00
N378   N     0.56770   0.88215   0.19843   0.00000  Uiso   1.00
N379   N     0.57596   0.52695   0.31696   0.00000  Uiso   1.00
N380   N     0.43570   0.97610   0.30737   0.00000  Uiso   1.00
N381   N     0.41319   0.72107   0.01509   0.00000  Uiso   1.00
N382   N     0.52415   0.82675   0.47735   0.00000  Uiso   1.00
O383   O     0.50000   0.68572   0.29072   0.00000  Uiso   1.00
O384   O     0.34482   0.72284   0.30895   0.00000  Uiso   1.00
O385   O     0.43000   0.51973   0.18929   0.00000  Uiso   1.00
O386   O     0.56770   0.97319   0.19730   0.00000  Uiso   1.00
O387   O     0.57799   0.61685   0.31149   0.00000  Uiso   1.00
O388   O     0.43038   0.88622   0.30158   0.00000  Uiso   1.00
O389   O     0.59176   0.77377   0.04631   0.00000  Uiso   1.00
O390   O     0.48098   0.66788   0.46168   0.00000  Uiso   1.00
O391   O     0.42031   0.71222   0.11965   0.00000  Uiso   1.00
O392   O     0.53838   0.82236   0.38070   0.00000  Uiso   1.00
O393   O     0.50000   0.81427   0.20929   0.00000  Uiso   1.00
O394   O     0.50000   0.68573   0.20928   0.00000  Uiso   1.00
O395   O     0.50000   0.81427   0.29072   0.00000  Uiso   1.00
O396   O     0.42495   0.74999   0.28132   0.00000  Uiso   1.00
O397   O     0.57505   0.75000   0.21868   0.00000  Uiso   1.00
O398   O     0.42495   0.75000   0.19989   0.00000  Uiso   1.00
O399   O     0.57505   0.75000   0.30012   0.00000  Uiso   1.00
O400   O     0.65557   0.77810   0.19176   0.00000  Uiso   1.00
C401   C     0.83349   0.66507   0.24976   0.00000  Uiso   1.00
C402   C     0.84695   0.78657   0.44969   0.00000  Uiso   1.00
C403   C     0.83572   0.74716   0.02776   0.00000  Uiso   1.00
C404   C     0.83532   0.74734   0.47304   0.00000  Uiso   1.00
C405   C     0.73479   0.75102   0.23778   0.00000  Uiso   1.00
C406   C     0.93192   0.74903   0.26228   0.00000  Uiso   1.00
C407   C     0.67990   0.75664   0.23211   0.00000  Uiso   1.00
C408   C     0.98695   0.74368   0.26818   0.00000  Uiso   1.00
C409   C     0.79811   0.54571   0.21944   0.00000  Uiso   1.00
C410   C     0.86771   0.95253   0.22455   0.00000  Uiso   1.00
C411   C     0.79781   0.59226   0.21830   0.00000  Uiso   1.00
C412   C     0.83301   0.83495   0.25018   0.00000  Uiso   1.00
C413   C     0.86665   0.90624   0.22446   0.00000  Uiso   1.00
C414   C     0.83510   0.61678   0.24947   0.00000  Uiso   1.00
C415   C     0.83270   0.88331   0.25052   0.00000  Uiso   1.00
C416   C     0.87261   0.59477   0.28171   0.00000  Uiso   1.00
C417   C     0.79961   0.90683   0.27733   0.00000  Uiso   1.00
C418   C     0.87158   0.54872   0.28359   0.00000  Uiso   1.00
C419   C     0.80202   0.95294   0.27901   0.00000  Uiso   1.00
C420   C     0.83477   0.52443   0.25226   0.00000  Uiso   1.00
C421   C     0.83538   0.97592   0.25229   0.00000  Uiso   1.00
C422   C     0.87868   0.76236   0.06070   0.00000  Uiso   1.00
C423   C     0.82267   0.70910   0.44320   0.00000  Uiso   1.00
C424   C     0.87495   0.76572   0.11055   0.00000  Uiso   1.00
C425   C     0.81919   0.71235   0.39235   0.00000  Uiso   1.00
C426   C     0.79278   0.73180   0.09901   0.00000  Uiso   1.00
C427   C     0.84977   0.78619   0.39936   0.00000  Uiso   1.00
C428   C     0.79190   0.73296   0.04755   0.00000  Uiso   1.00
Cu429  Cu    0.83333   0.74999   0.29822   0.00000  Uiso   1.00
Cu430  Cu    0.83333   0.75000   0.20179   0.00000  Uiso   1.00
H431   H     0.90679   0.77961   0.13458   0.00000  Uiso   1.00
H432   H     0.93857   0.89169   0.21200   0.00000  Uiso   1.00
H433   H     0.91696   0.64646   0.29825   0.00000  Uiso   1.00
H434   H     0.75434   0.85703   0.28626   0.00000  Uiso   1.00
H435   H     0.89042   0.50710   0.33960   0.00000  Uiso   1.00
H436   H     0.93090   0.50653   0.29728   0.00000  Uiso   1.00
H437   H     0.79157   0.99640   0.33268   0.00000  Uiso   1.00
H438   H     0.74461   0.99610   0.28443   0.00000  Uiso   1.00
H439   H     0.92694   0.76075   0.01384   0.00000  Uiso   1.00
H440   H     0.82889   0.66746   0.49638   0.00000  Uiso   1.00
H441   H     0.72855   0.69754   0.09481   0.00000  Uiso   1.00
H442   H     0.80713   0.68341   0.37049   0.00000  Uiso   1.00
H443   H     0.89585   0.81066   0.35961   0.00000  Uiso   1.00
H444   H     0.71598   0.73973   0.02414   0.00000  Uiso   1.00
H445   H     0.73844   0.68743   0.01864   0.00000  Uiso   1.00
H446   H     0.83179   0.85068   0.46254   0.00000  Uiso   1.00
H447   H     0.89452   0.83764   0.47367   0.00000  Uiso   1.00
H448   H     0.68120   0.78825   0.17127   0.00000  Uiso   1.00
H449   H     0.98587   0.71263   0.32942   0.00000  Uiso   1.00
H450   H     0.74032   0.53850   0.16733   0.00000  Uiso   1.00
H451   H     0.89756   0.50566   0.19877   0.00000  Uiso   1.00
H452   H     0.77591   0.63121   0.16038   0.00000  Uiso   1.00
H453   H     0.73989   0.63647   0.20649   0.00000  Uiso   1.00
H454   H     0.89401   0.89086   0.16190   0.00000  Uiso   1.00
N455   N     0.83333   0.75001   0.12935   0.00000  Uiso   1.00
N456   N     0.83333   0.74999   0.37066   0.00000  Uiso   1.00
N457   N     0.75873   0.61409   0.18638   0.00000  Uiso   1.00
N458   N     0.90104   0.88215   0.19843   0.00000  Uiso   1.00
N459   N     0.90929   0.52695   0.31696   0.00000  Uiso   1.00
N460   N     0.76903   0.97610   0.30737   0.00000  Uiso   1.00
N461   N     0.74652   0.72107   0.01509   0.00000  Uiso   1.00
N462   N     0.85748   0.82675   0.47735   0.00000  Uiso   1.00
O463   O     0.83334   0.68572   0.29072   0.00000  Uiso   1.00
O464   O     0.67816   0.72284   0.30895   0.00000  Uiso   1.00
O465   O     0.76333   0.51973   0.18929   0.00000  Uiso   1.00
O466   O     0.90103   0.97319   0.19730   0.00000  Uiso   1.00
O467   O     0.91132   0.61685   0.31149   0.00000  Uiso   1.00
O468   O     0.76372   0.88622   0.30158   0.00000  Uiso   1.00
O469   O     0.92509   0.77377   0.04631   0.00000  Uiso   1.00
O470   O     0.81432   0.66788   0.46168   0.00000  Uiso   1.00
O471   O     0.75364   0.71222   0.11965   0.00000  Uiso   1.00
O472   O     0.87171   0.82236   0.38070   0.00000  Uiso   1.00
O473   O     0.83333   0.81427   0.20929   0.00000  Uiso   1.00
O474   O     0.83334   0.68573   0.20928   0.00000  Uiso   1.00
O475   O     0.83333   0.81427   0.29072   0.00000  Uiso   1.00
O476   O     0.75828   0.74999   0.28132   0.00000  Uiso   1.00
O477   O     0.90839   0.75000   0.21868   0.00000  Uiso   1.00
O478   O     0.75828   0.75000   0.19989   0.00000  Uiso   1.00
O479   O     0.90839   0.75000   0.30012   0.00000  Uiso   1.00
O480   O     0.98891   0.77810   0.19176   0.00000  Uiso   1.00
C481   C     0.16682   0.16507   0.74976   0.00000  Uiso   1.00
C482   C     0.18028   0.28657   0.94969   0.00000  Uiso   1.00
C483   C     0.16905   0.24716   0.52776   0.00000  Uiso   1.00
C484   C     0.16865   0.24734   0.97304   0.00000  Uiso   1.00
C485   C     0.06813   0.25102   0.73778   0.00000  Uiso   1.00
C486   C     0.26526   0.24903   0.76228   0.00000  Uiso   1.00
C487   C     0.01323   0.25664   0.73211   0.00000  Uiso   1.00
C488   C     0.32028   0.24368   0.76818   0.00000  Uiso   1.00
C489   C     0.13145   0.04571   0.71944   0.00000  Uiso   1.00
C490   C     0.20105   0.45253   0.72455   0.00000  Uiso   1.00
C491   C     0.13114   0.09226   0.71830   0.00000  Uiso   1.00
C492   C     0.16634   0.33495   0.75018   0.00000  Uiso   1.00
C493   C     0.19998   0.40624   0.72446   0.00000  Uiso   1.00
C494   C     0.16843   0.11678   0.74947   0.00000  Uiso   1.00
C495   C     0.16603   0.38331   0.75052   0.00000  Uiso   1.00
C496   C     0.20594   0.09477   0.78171   0.00000  Uiso   1.00
C497   C     0.13295   0.40683   0.77733   0.00000  Uiso   1.00
C498   C     0.20491   0.04872   0.78359   0.00000  Uiso   1.00
C499   C     0.13535   0.45294   0.77901   0.00000  Uiso   1.00
C500   C     0.16810   0.02443   0.75226   0.00000  Uiso   1.00
C501   C     0.16872   0.47592   0.75229   0.00000  Uiso   1.00
C502   C     0.21201   0.26236   0.56070   0.00000  Uiso   1.00
C503   C     0.15601   0.20910   0.94320   0.00000  Uiso   1.00
C504   C     0.20828   0.26572   0.61055   0.00000  Uiso   1.00
C505   C     0.15252   0.21235   0.89235   0.00000  Uiso   1.00
C506   C     0.12611   0.23180   0.59901   0.00000  Uiso   1.00
C507   C     0.18310   0.28619   0.89936   0.00000  Uiso   1.00
C508   C     0.12523   0.23296   0.54755   0.00000  Uiso   1.00
Cu509  Cu    0.16667   0.24999   0.79822   0.00000  Uiso   1.00
Cu510  Cu    0.16667   0.25000   0.70179   0.00000  Uiso   1.00
H511   H     0.24012   0.27961   0.63458   0.00000  Uiso   1.00
H512   H     0.27190   0.39169   0.71200   0.00000  Uiso   1.00
H513   H     0.25029   0.14646   0.79825   0.00000  Uiso   1.00
H514   H     0.08768   0.35703   0.78626   0.00000  Uiso   1.00
H515   H     0.22376   0.00710   0.83960   0.00000  Uiso   1.00
H516   H     0.26424   0.00653   0.79728   0.00000  Uiso   1.00
H517   H     0.12490   0.49640   0.83268   0.00000  Uiso   1.00
H518   H     0.07794   0.49610   0.78443   0.00000  Uiso   1.00
H519   H     0.26028   0.26075   0.51384   0.00000  Uiso   1.00
H520   H     0.16222   0.16746   0.99638   0.00000  Uiso   1.00
H521   H     0.06188   0.19754   0.59481   0.00000  Uiso   1.00
H522   H     0.14046   0.18341   0.87049   0.00000  Uiso   1.00
H523   H     0.22918   0.31066   0.85961   0.00000  Uiso   1.00
H524   H     0.04931   0.23973   0.52414   0.00000  Uiso   1.00
H525   H     0.07178   0.18743   0.51864   0.00000  Uiso   1.00
H526   H     0.16513   0.35068   0.96254   0.00000  Uiso   1.00
H527   H     0.22785   0.33764   0.97367   0.00000  Uiso   1.00
H528   H     0.01453   0.28825   0.67127   0.00000  Uiso   1.00
H529   H     0.31920   0.21263   0.82942   0.00000  Uiso   1.00
H530   H     0.07365   0.03850   0.66733   0.00000  Uiso   1.00
H531   H     0.23090   0.00566   0.69877   0.00000  Uiso   1.00
H532   H     0.10924   0.13121   0.66038   0.00000  Uiso   1.00
H533   H     0.07323   0.13647   0.70649   0.00000  Uiso   1.00
H534   H     0.22734   0.39086   0.66190   0.00000  Uiso   1.00
N535   N     0.16667   0.25001   0.62935   0.00000  Uiso   1.00
N536   N     0.16667   0.24999   0.87066   0.00000  Uiso   1.00
N537   N     0.09206   0.11409   0.68638   0.00000  Uiso   1.00
N538   N     0.23437   0.38215   0.69843   0.00000  Uiso   1.00
N539   N     0.24262   0.02695   0.81696   0.00000  Uiso   1.00
N540   N     0.10236   0.47610   0.80737   0.00000  Uiso   1.00
N541   N     0.07985   0.22107   0.51509   0.00000  Uiso   1.00
N542   N     0.19082   0.32675   0.97735   0.00000  Uiso   1.00
O543   O     0.16667   0.18572   0.79072   0.00000  Uiso   1.00
O544   O     0.01149   0.22284   0.80895   0.00000  Uiso   1.00
O545   O     0.09667   0.01973   0.68929   0.00000  Uiso   1.00
O546   O     0.23436   0.47319   0.69730   0.00000  Uiso   1.00
O547   O     0.24466   0.11685   0.81149   0.00000  Uiso   1.00
O548   O     0.09705   0.38622   0.80158   0.00000  Uiso   1.00
O549   O     0.25842   0.27377   0.54631   0.00000  Uiso   1.00
O550   O     0.14765   0.16788   0.96168   0.00000  Uiso   1.00
O551   O     0.08698   0.21222   0.61965   0.00000  Uiso   1.00
O552   O     0.20504   0.32236   0.88070   0.00000  Uiso   1.00
O553   O     0.16666   0.31427   0.70929   0.00000  Uiso   1.00
O554   O     0.16667   0.18573   0.70928   0.00000  Uiso   1.00
O555   O     0.16666   0.31427   0.79072   0.00000  Uiso   1.00
O556   O     0.09161   0.24999   0.78132   0.00000  Uiso   1.00
O557   O     0.24172   0.25000   0.71868   0.00000  Uiso   1.00
O558   O     0.09161   0.25000   0.69989   0.00000  Uiso   1.00
O559   O     0.24172   0.25000   0.80012   0.00000  Uiso   1.00
O560   O     0.32224   0.27810   0.69176   0.00000  Uiso   1.00
C561   C     0.50015   0.16507   0.74976   0.00000  Uiso   1.00
C562   C     0.51361   0.28657   0.94969   0.00000  Uiso   1.00
C563   C     0.50238   0.24716   0.52776   0.00000  Uiso   1.00
C564   C     0.50198   0.24734   0.97304   0.00000  Uiso   1.00
C565   C     0.40146   0.25102   0.73778   0.00000  Uiso   1.00
C566   C     0.59859   0.24903   0.76228   0.00000  Uiso   1.00
C567   C     0.34656   0.25664   0.73211   0.00000  Uiso   1.00
C568   C     0.65361   0.24368   0.76818   0.00000  Uiso   1.00
C569   C     0.46478   0.04571   0.71944   0.00000  Uiso   1.00
C570   C     0.53438   0.45253   0.72455   0.00000  Uiso   1.00
C571   C     0.46447   0.09226   0.71830   0.00000  Uiso   1.00
C572   C     0.49968   0.33495   0.75018   0.00000  Uiso   1.00
C573   C     0.53331   0.40624   0.72446   0.00000  Uiso   1.00
C574   C     0.50176   0.11678   0.74947   0.00000  Uiso   1.00
C575   C     0.49936   0.38331   0.75052   0.00000  Uiso   1.00
C576   C     0.53927   0.09477   0.78171   0.00000  Uiso   1.00
C577   C     0.46628   0.40683   0.77733   0.00000  Uiso   1.00
C578   C     0.53824   0.04872   0.78359   0.00000  Uiso   1.00
C579   C     0.46868   0.45294   0.77901   0.00000  Uiso   1.00
C580   C     0.50144   0.02443   0.75226   0.00000  Uiso   1.00
C581   C     0.50205   0.47592   0.75229   0.00000  Uiso   1.00
C582   C     0.54534   0.26236   0.56070   0.00000  Uiso   1.00
C583   C     0.48934   0.20910   0.94320   0.00000  Uiso   1.00
C584   C     0.54162   0.26572   0.61055   0.00000  Uiso   1.00
C585   C     0.48586   0.21235   0.89235   0.00000  Uiso   1.00
C586   C     0.45945   0.23180   0.59901   0.00000  Uiso   1.00
C587   C     0.51643   0.28619   0.89936   0.00000  Uiso   1.00
C588   C     0.45857   0.23296   0.54755   0.00000  Uiso   1.00
Cu589  Cu    0.50000   0.24999   0.79822   0.00000  Uiso   1.00
Cu590  Cu    0.50000   0.25000   0.70179   0.00000  Uiso   1.00
H591   H     0.57346   0.27961   0.63458   0.00000  Uiso   1.00
H592   H     0.60524   0.39169   0.71200   0.00000  Uiso   1.00
H593   H     0.58362   0.14646   0.79825   0.00000  Uiso   1.00
H594   H     0.42101   0.35703   0.78626   0.00000  Uiso   1.00
H595   H     0.55709   0.00710   0.83960   0.00000  Uiso   1.00
H596   H     0.59757   0.00653   0.79728   0.00000  Uiso   1.00
H597   H     0.45823   0.49640   0.83268   0.00000  Uiso   1.00
H598   H     0.41128   0.49610   0.78443   0.00000  Uiso   1.00
H599   H     0.59361   0.26075   0.51384   0.00000  Uiso   1.00
H600   H     0.49555   0.16746   0.99638   0.00000  Uiso   1.00
H601   H     0.39522   0.19754   0.59481   0.00000  Uiso   1.00
H602   H     0.47380   0.18341   0.87049   0.00000  Uiso   1.00
H603   H     0.56252   0.31066   0.85961   0.00000  Uiso   1.00
H604   H     0.38265   0.23973   0.52414   0.00000  Uiso   1.00
H605   H     0.40511   0.18743   0.51864   0.00000  Uiso   1.00
H606   H     0.49846   0.35068   0.96254   0.00000  Uiso   1.00
H607   H     0.56118   0.33764   0.97367   0.00000  Uiso   1.00
H608   H     0.34787   0.28825   0.67127   0.00000  Uiso   1.00
H609   H     0.65254   0.21263   0.82942   0.00000  Uiso   1.00
H610   H     0.40699   0.03850   0.66733   0.00000  Uiso   1.00
H611   H     0.56423   0.00566   0.69877   0.00000  Uiso   1.00
H612   H     0.44257   0.13121   0.66038   0.00000  Uiso   1.00
H613   H     0.40656   0.13647   0.70649   0.00000  Uiso   1.00
H614   H     0.56068   0.39086   0.66190   0.00000  Uiso   1.00
N615   N     0.50000   0.25001   0.62935   0.00000  Uiso   1.00
N616   N     0.50000   0.24999   0.87066   0.00000  Uiso   1.00
N617   N     0.42539   0.11409   0.68638   0.00000  Uiso   1.00
N618   N     0.56770   0.38215   0.69843   0.00000  Uiso   1.00
N619   N     0.57596   0.02695   0.81696   0.00000  Uiso   1.00
N620   N     0.43570   0.47610   0.80737   0.00000  Uiso   1.00
N621   N     0.41319   0.22107   0.51509   0.00000  Uiso   1.00
N622   N     0.52415   0.32675   0.97735   0.00000  Uiso   1.00
O623   O     0.50000   0.18572   0.79072   0.00000  Uiso   1.00
O624   O     0.34482   0.22284   0.80895   0.00000  Uiso   1.00
O625   O     0.43000   0.01973   0.68929   0.00000  Uiso   1.00
O626   O     0.56770   0.47319   0.69730   0.00000  Uiso   1.00
O627   O     0.57799   0.11685   0.81149   0.00000  Uiso   1.00
O628   O     0.43038   0.38622   0.80158   0.00000  Uiso   1.00
O629   O     0.59176   0.27377   0.54631   0.00000  Uiso   1.00
O630   O     0.48098   0.16788   0.96168   0.00000  Uiso   1.00
O631   O     0.42031   0.21222   0.61965   0.00000  Uiso   1.00
O632   O     0.53838   0.32236   0.88070   0.00000  Uiso   1.00
O633   O     0.50000   0.31427   0.70929   0.00000  Uiso   1.00
O634   O     0.50000   0.18573   0.70928   0.00000  Uiso   1.00
O635   O     0.50000   0.31427   0.79072   0.00000  Uiso   1.00
O636   O     0.42495   0.24999   0.78132   0.00000  Uiso   1.00
O637   O     0.57505   0.25000   0.71868   0.00000  Uiso   1.00
O638   O     0.42495   0.25000   0.69989   0.00000  Uiso   1.00
O639   O     0.57505   0.25000   0.80012   0.00000  Uiso   1.00
O640   O     0.65557   0.27810   0.69176   0.00000  Uiso   1.00
C641   C     0.83349   0.16507   0.74976   0.00000  Uiso   1.00
C642   C     0.84695   0.28657   0.94969   0.00000  Uiso   1.00
C643   C     0.83572   0.24716   0.52776   0.00000  Uiso   1.00
C644   C     0.83532   0.24734   0.97304   0.00000  Uiso   1.00
C645   C     0.73479   0.25102   0.73778   0.00000  Uiso   1.00
C646   C     0.93192   0.24903   0.76228   0.00000  Uiso   1.00
C647   C     0.67990   0.25664   0.73211   0.00000  Uiso   1.00
C648   C     0.98695   0.24368   0.76818   0.00000  Uiso   1.00
C649   C     0.79811   0.04571   0.71944   0.00000  Uiso   1.00
C650   C     0.86771   0.45253   0.72455   0.00000  Uiso   1.00
C651   C     0.79781   0.09226   0.71830   0.00000  Uiso   1.00
C652   C     0.83301   0.33495   0.75018   0.00000  Uiso   1.00
C653   C     0.86665   0.40624   0.72446   0.00000  Uiso   1.00
C654   C     0.83510   0.11678   0.74947   0.00000  Uiso   1.00
C655   C     0.83270   0.38331   0.75052   0.00000  Uiso   1.00
C656   C     0.87261   0.09477   0.78171   0.00000  Uiso   1.00
C657   C     0.79961   0.40683   0.77733   0.00000  Uiso   1.00
C658   C     0.87158   0.04872   0.78359   0.00000  Uiso   1.00
C659   C     0.80202   0.45294   0.77901   0.00000  Uiso   1.00
C660   C     0.83477   0.02443   0.75226   0.00000  Uiso   1.00
C661   C     0.83538   0.47592   0.75229   0.00000  Uiso   1.00
C662   C     0.87868   0.26236   0.56070   0.00000  Uiso   1.00
C663   C     0.82267   0.20910   0.94320   0.00000  Uiso   1.00
C664   C     0.87495   0.26572   0.61055   0.00000  Uiso   1.00
C665   C     0.81919   0.21235   0.89235   0.00000  Uiso   1.00
C666   C     0.79278   0.23180   0.59901   0.00000  Uiso   1.00
C667   C     0.84977   0.28619   0.89936   0.00000  Uiso   1.00
C668   C     0.79190   0.23296   0.54755   0.00000  Uiso   1.00
Cu669  Cu    0.83333   0.24999   0.79822   0.00000  Uiso   1.00
Cu670  Cu    0.83333   0.25000   0.70179   0.00000  Uiso   1.00
H671   H     0.90679   0.27961   0.63458   0.00000  Uiso   1.00
H672   H     0.93857   0.39169   0.71200   0.00000  Uiso   1.00
H673   H     0.91696   0.14646   0.79825   0.00000  Uiso   1.00
H674   H     0.75434   0.35703   0.78626   0.00000  Uiso   1.00
H675   H     0.89042   0.00710   0.83960   0.00000  Uiso   1.00
H676   H     0.93090   0.00653   0.79728   0.00000  Uiso   1.00
H677   H     0.79157   0.49640   0.83268   0.00000  Uiso   1.00
H678   H     0.74461   0.49610   0.78443   0.00000  Uiso   1.00
H679   H     0.92694   0.26075   0.51384   0.00000  Uiso   1.00
H680   H     0.82889   0.16746   0.99638   0.00000  Uiso   1.00
H681   H     0.72855   0.19754   0.59481   0.00000  Uiso   1.00
H682   H     0.80713   0.18341   0.87049   0.00000  Uiso   1.00
H683   H     0.89585   0.31066   0.85961   0.00000  Uiso   1.00
H684   H     0.71598   0.23973   0.52414   0.00000  Uiso   1.00
H685   H     0.73844   0.18743   0.51864   0.00000  Uiso   1.00
H686   H     0.83179   0.35068   0.96254   0.00000  Uiso   1.00
H687   H     0.89452   0.33764   0.97367   0.00000  Uiso   1.00
H688   H     0.68120   0.28825   0.67127   0.00000  Uiso   1.00
H689   H     0.98587   0.21263   0.82942   0.00000  Uiso   1.00
H690   H     0.74032   0.03850   0.66733   0.00000  Uiso   1.00
H691   H     0.89756   0.00566   0.69877   0.00000  Uiso   1.00
H692   H     0.77591   0.13121   0.66038   0.00000  Uiso   1.00
H693   H     0.73989   0.13647   0.70649   0.00000  Uiso   1.00
H694   H     0.89401   0.39086   0.66190   0.00000  Uiso   1.00
N695   N     0.83333   0.25001   0.62935   0.00000  Uiso   1.00
N696   N     0.83333   0.24999   0.87066   0.00000  Uiso   1.00
N697   N     0.75873   0.11409   0.68638   0.00000  Uiso   1.00
N698   N     0.90104   0.38215   0.69843   0.00000  Uiso   1.00
N699   N     0.90929   0.02695   0.81696   0.00000  Uiso   1.00
N700   N     0.76903   0.47610   0.80737   0.00000  Uiso   1.00
N701   N     0.74652   0.22107   0.51509   0.00000  Uiso   1.00
N702   N     0.85748   0.32675   0.97735   0.00000  Uiso   1.00
O703   O     0.83334   0.18572   0.79072   0.00000  Uiso   1.00
O704   O     0.67816   0.22284   0.80895   0.00000  Uiso   1.00
O705   O     0.76333   0.01973   0.68929   0.00000  Uiso   1.00
O706   O     0.90103   0.47319   0.69730   0.00000  Uiso   1.00
O707   O     0.91132   0.11685   0.81149   0.00000  Uiso   1.00
O708   O     0.76372   0.38622   0.80158   0.00000  Uiso   1.00
O709   O     0.92509   0.27377   0.54631   0.00000  Uiso   1.00
O710   O     0.81432   0.16788   0.96168   0.00000  Uiso   1.00
O711   O     0.75364   0.21222   0.61965   0.00000  Uiso   1.00
O712   O     0.87171   0.32236   0.88070   0.00000  Uiso   1.00
O713   O     0.83333   0.31427   0.70929   0.00000  Uiso   1.00
O714   O     0.83334   0.18573   0.70928   0.00000  Uiso   1.00
O715   O     0.83333   0.31427   0.79072   0.00000  Uiso   1.00
O716   O     0.75828   0.24999   0.78132   0.00000  Uiso   1.00
O717   O     0.90839   0.25000   0.71868   0.00000  Uiso   1.00
O718   O     0.75828   0.25000   0.69989   0.00000  Uiso   1.00
O719   O     0.90839   0.25000   0.80012   0.00000  Uiso   1.00
O720   O     0.98891   0.27810   0.69176   0.00000  Uiso   1.00
C721   C     0.16682   0.66507   0.74976   0.00000  Uiso   1.00
C722   C     0.18028   0.78657   0.94969   0.00000  Uiso   1.00
C723   C     0.16905   0.74716   0.52776   0.00000  Uiso   1.00
C724   C     0.16865   0.74734   0.97304   0.00000  Uiso   1.00
C725   C     0.06813   0.75102   0.73778   0.00000  Uiso   1.00
C726   C     0.26526   0.74903   0.76228   0.00000  Uiso   1.00
C727   C     0.01323   0.75664   0.73211   0.00000  Uiso   1.00
C728   C     0.32028   0.74368   0.76818   0.00000  Uiso   1.00
C729   C     0.13145   0.54571   0.71944   0.00000  Uiso   1.00
C730   C     0.20105   0.95253   0.72455   0.00000  Uiso   1.00
C731   C     0.13114   0.59226   0.71830   0.00000  Uiso   1.00
C732   C     0.16634   0.83495   0.75018   0.00000  Uiso   1.00
C733   C     0.19998   0.90624   0.72446   0.00000  Uiso   1.00
C734   C     0.16843   0.61678   0.74947   0.00000  Uiso   1.00
C735   C     0.16603   0.88331   0.75052   0.00000  Uiso   1.00
C736   C     0.20594   0.59477   0.78171   0.00000  Uiso   1.00
C737   C     0.13295   0.90683   0.77733   0.00000  Uiso   1.00
C738   C     0.20491   0.54872   0.78359   0.00000  Uiso   1.00
C739   C     0.13535   0.95294   0.77901   0.00000  Uiso   1.00
C740   C     0.16810   0.52443   0.75226   0.00000  Uiso   1.00
C741   C     0.16872   0.97592   0.75229   0.00000  Uiso   1.00
C742   C     0.21201   0.76236   0.56070   0.00000  Uiso   1.00
C743   C     0.15601   0.70910   0.94320   0.00000  Uiso   1.00
C744   C     0.20828   0.76572   0.61055   0.00000  Uiso   1.00
C745   C     0.15252   0.71235   0.89235   0.00000  Uiso   1.00
C746   C     0.12611   0.73180   0.59901   0.00000  Uiso   1.00
C747   C     0.18310   0.78619   0.89936   0.00000  Uiso   1.00
C748   C     0.12523   0.73296   0.54755   0.00000  Uiso   1.00
Cu749  Cu    0.16667   0.74999   0.79822   0.00000  Uiso   1.00
Cu750  Cu    0.16667   0.75000   0.70179   0.00000  Uiso   1.00
H751   H     0.24012   0.77961   0.63458   0.00000  Uiso   1.00
H752   H     0.27190   0.89169   0.71200   0.00000  Uiso   1.00
H753   H     0.25029   0.64646   0.79825   0.00000  Uiso   1.00
H754   H     0.08768   0.85703   0.78626   0.00000  Uiso   1.00
H755   H     0.22376   0.50710   0.83960   0.00000  Uiso   1.00
H756   H     0.26424   0.50653   0.79728   0.00000  Uiso   1.00
H757   H     0.12490   0.99640   0.83268   0.00000  Uiso   1.00
H758   H     0.07794   0.99610   0.78443   0.00000  Uiso   1.00
H759   H     0.26028   0.76075   0.51384   0.00000  Uiso   1.00
H760   H     0.16222   0.66746   0.99638   0.00000  Uiso   1.00
H761   H     0.06188   0.69754   0.59481   0.00000  Uiso   1.00
H762   H     0.14046   0.68341   0.87049   0.00000  Uiso   1.00
H763   H     0.22918   0.81066   0.85961   0.00000  Uiso   1.00
H764   H     0.04931   0.73973   0.52414   0.00000  Uiso   1.00
H765   H     0.07178   0.68743   0.51864   0.00000  Uiso   1.00
H766   H     0.16513   0.85068   0.96254   0.00000  Uiso   1.00
H767   H     0.22785   0.83764   0.97367   0.00000  Uiso   1.00
H768   H     0.01453   0.78825   0.67127   0.00000  Uiso   1.00
H769   H     0.31920   0.71263   0.82942   0.00000  Uiso   1.00
H770   H     0.07365   0.53850   0.66733   0.00000  Uiso   1.00
H771   H     0.23090   0.50566   0.69877   0.00000  Uiso   1.00
H772   H     0.10924   0.63121   0.66038   0.00000  Uiso   1.00
H773   H     0.07323   0.63647   0.70649   0.00000  Uiso   1.00
H774   H     0.22734   0.89086   0.66190   0.00000  Uiso   1.00
N775   N     0.16667   0.75001   0.62935   0.00000  Uiso   1.00
N776   N     0.16667   0.74999   0.87066   0.00000  Uiso   1.00
N777   N     0.09206   0.61409   0.68638   0.00000  Uiso   1.00
N778   N     0.23437   0.88215   0.69843   0.00000  Uiso   1.00
N779   N     0.24262   0.52695   0.81696   0.00000  Uiso   1.00
N780   N     0.10236   0.97610   0.80737   0.00000  Uiso   1.00
N781   N     0.07985   0.72107   0.51509   0.00000  Uiso   1.00
N782   N     0.19082   0.82675   0.97735   0.00000  Uiso   1.00
O783   O     0.16667   0.68572   0.79072   0.00000  Uiso   1.00
O784   O     0.01149   0.72284   0.80895   0.00000  Uiso   1.00
O785   O     0.09667   0.51973   0.68929   0.00000  Uiso   1.00
O786   O     0.23436   0.97319   0.69730   0.00000  Uiso   1.00
O787   O     0.24466   0.61685   0.81149   0.00000  Uiso   1.00
O788   O     0.09705   0.88622   0.80158   0.00000  Uiso   1.00
O789   O     0.25842   0.77377   0.54631   0.00000  Uiso   1.00
O790   O     0.14765   0.66788   0.96168   0.00000  Uiso   1.00
O791   O     0.08698   0.71222   0.61965   0.00000  Uiso   1.00
O792   O     0.20504   0.82236   0.88070   0.00000  Uiso   1.00
O793   O     0.16666   0.81427   0.70929   0.00000  Uiso   1.00
O794   O     0.16667   0.68573   0.70928   0.00000  Uiso   1.00
O795   O     0.16666   0.81427   0.79072   0.00000  Uiso   1.00
O796   O     0.09161   0.74999   0.78132   0.00000  Uiso   1.00
O797   O     0.24172   0.75000   0.71868   0.00000  Uiso   1.00
O798   O     0.09161   0.75000   0.69989   0.00000  Uiso   1.00
O799   O     0.24172   0.75000   0.80012   0.00000  Uiso   1.00
O800   O     0.32224   0.77810   0.69176   0.00000  Uiso   1.00
C801   C     0.50015   0.66507   0.74976   0.00000  Uiso   1.00
C802   C     0.51361   0.78657   0.94969   0.00000  Uiso   1.00
C803   C     0.50238   0.74716   0.52776   0.00000  Uiso   1.00
C804   C     0.50198   0.74734   0.97304   0.00000  Uiso   1.00
C805   C     0.40146   0.75102   0.73778   0.00000  Uiso   1.00
C806   C     0.59859   0.74903   0.76228   0.00000  Uiso   1.00
C807   C     0.34656   0.75664   0.73211   0.00000  Uiso   1.00
C808   C     0.65361   0.74368   0.76818   0.00000  Uiso   1.00
C809   C     0.46478   0.54571   0.71944   0.00000  Uiso   1.00
C810   C     0.53438   0.95253   0.72455   0.00000  Uiso   1.00
C811   C     0.46447   0.59226   0.71830   0.00000  Uiso   1.00
C812   C     0.49968   0.83495   0.75018   0.00000  Uiso   1.00
C813   C     0.53331   0.90624   0.72446   0.00000  Uiso   1.00
C814   C     0.50176   0.61678   0.74947   0.00000  Uiso   1.00
C815   C     0.49936   0.88331   0.75052   0.00000  Uiso   1.00
C816   C     0.53927   0.59477   0.78171   0.00000  Uiso   1.00
C817   C     0.46628   0.90683   0.77733   0.00000  Uiso   1.00
C818   C     0.53824   0.54872   0.78359   0.00000  Uiso   1.00
C819   C     0.46868   0.95294   0.77901   0.00000  Uiso   1.00
C820   C     0.50144   0.52443   0.75226   0.00000  Uiso   1.00
C821   C     0.50205   0.97592   0.75229   0.00000  Uiso   1.00
C822   C     0.54534   0.76236   0.56070   0.00000  Uiso   1.00
C823   C     0.48934   0.70910   0.94320   0.00000  Uiso   1.00
C824   C     0.54162   0.76572   0.61055   0.00000  Uiso   1.00
C825   C     0.48586   0.71235   0.89235   0.00000  Uiso   1.00
C826   C     0.45945   0.73180   0.59901   0.00000  Uiso   1.00
C827   C     0.51643   0.78619   0.89936   0.00000  Uiso   1.00
C828   C     0.45857   0.73296   0.54755   0.00000  Uiso   1.00
Cu829  Cu    0.50000   0.74999   0.79822   0.00000  Uiso   1.00
Cu830  Cu    0.50000   0.75000   0.70179   0.00000  Uiso   1.00
H831   H     0.57346   0.77961   0.63458   0.00000  Uiso   1.00
H832   H     0.60524   0.89169   0.71200   0.00000  Uiso   1.00
H833   H     0.58362   0.64646   0.79825   0.00000  Uiso   1.00
H834   H     0.42101   0.85703   0.78626   0.00000  Uiso   1.00
H835   H     0.55709   0.50710   0.83960   0.00000  Uiso   1.00
H836   H     0.59757   0.50653   0.79728   0.00000  Uiso   1.00
H837   H     0.45823   0.99640   0.83268   0.00000  Uiso   1.00
H838   H     0.41128   0.99610   0.78443   0.00000  Uiso   1.00
H839   H     0.59361   0.76075   0.51384   0.00000  Uiso   1.00
H840   H     0.49555   0.66746   0.99638   0.00000  Uiso   1.00
H841   H     0.39522   0.69754   0.59481   0.00000  Uiso   1.00
H842   H     0.47380   0.68341   0.87049   0.00000  Uiso   1.00
H843   H     0.56252   0.81066   0.85961   0.00000  Uiso   1.00
H844   H     0.38265   0.73973   0.52414   0.00000  Uiso   1.00
H845   H     0.40511   0.68743   0.51864   0.00000  Uiso   1.00
H846   H     0.49846   0.85068   0.96254   0.00000  Uiso   1.00
H847   H     0.56118   0.83764   0.97367   0.00000  Uiso   1.00
H848   H     0.34787   0.78825   0.67127   0.00000  Uiso   1.00
H849   H     0.65254   0.71263   0.82942   0.00000  Uiso   1.00
H850   H     0.40699   0.53850   0.66733   0.00000  Uiso   1.00
H851   H     0.56423   0.50566   0.69877   0.00000  Uiso   1.00
H852   H     0.44257   0.63121   0.66038   0.00000  Uiso   1.00
H853   H     0.40656   0.63647   0.70649   0.00000  Uiso   1.00
H854   H     0.56068   0.89086   0.66190   0.00000  Uiso   1.00
N855   N     0.50000   0.75001   0.62935   0.00000  Uiso   1.00
N856   N     0.50000   0.74999   0.87066   0.00000  Uiso   1.00
N857   N     0.42539   0.61409   0.68638   0.00000  Uiso   1.00
N858   N     0.56770   0.88215   0.69843   0.00000  Uiso   1.00
N859   N     0.57596   0.52695   0.81696   0.00000  Uiso   1.00
N860   N     0.43570   0.97610   0.80737   0.00000  Uiso   1.00
N861   N     0.41319   0.72107   0.51509   0.00000  Uiso   1.00
N862   N     0.52415   0.82675   0.97735   0.00000  Uiso   1.00
O863   O     0.50000   0.68572   0.79072   0.00000  Uiso   1.00
O864   O     0.34482   0.72284   0.80895   0.00000  Uiso   1.00
O865   O     0.43000   0.51973   0.68929   0.00000  Uiso   1.00
O866   O     0.56770   0.97319   0.69730   0.00000  Uiso   1.00
O867   O     0.57799   0.61685   0.81149   0.00000  Uiso   1.00
O868   O     0.43038   0.88622   0.80158   0.00000  Uiso   1.00
O869   O     0.59176   0.77377   0.54631   0.00000  Uiso   1.00
O870   O     0.48098   0.66788   0.96168   0.00000  Uiso   1.00
O871   O     0.42031   0.71222   0.61965   0.00000  Uiso   1.00
O872   O     0.53838   0.82236   0.88070   0.00000  Uiso   1.00
O873   O     0.50000   0.81427   0.70929   0.00000  Uiso   1.00
O874   O     0.50000   0.68573   0.70928   0.00000  Uiso   1.00
O875   O     0.50000   0.81427   0.79072   0.00000  Uiso   1.00
O876   O     0.42495   0.74999   0.78132   0.00000  Uiso   1.00
O877   O     0.57505   0.75000   0.71868   0.00000  Uiso   1.00
O878   O     0.42495   0.75000   0.69989   0.00000  Uiso   1.00
O879   O     0.57505   0.75000   0.80012   0.00000  Uiso   1.00
O880   O     0.65557   0.77810   0.69176   0.00000  Uiso   1.00
C881   C     0.83349   0.66507   0.74976   0.00000  Uiso   1.00
C882   C     0.84695   0.78657   0.94969   0.00000  Uiso   1.00
C883   C     0.83572   0.74716   0.52776   0.00000  Uiso   1.00
C884   C     0.83532   0.74734   0.97304   0.00000  Uiso   1.00
C885   C     0.73479   0.75102   0.73778   0.00000  Uiso   1.00
C886   C     0.93192   0.74903   0.76228   0.00000  Uiso   1.00
C887   C     0.67990   0.75664   0.73211   0.00000  Uiso   1.00
C888   C     0.98695   0.74368   0.76818   0.00000  Uiso   1.00
C889   C     0.79811   0.54571   0.71944   0.00000  Uiso   1.00
C890   C     0.86771   0.95253   0.72455   0.00000  Uiso   1.00
C891   C     0.79781   0.59226   0.71830   0.00000  Uiso   1.00
C892   C     0.83301   0.83495   0.75018   0.00000  Uiso   1.00
C893   C     0.86665   0.90624   0.72446   0.00000  Uiso   1.00
C894   C     0.83510   0.61678   0.74947   0.00000  Uiso   1.00
C895   C     0.83270   0.88331   0.75052   0.00000  Uiso   1.00
C896   C     0.87261   0.59477   0.78171   0.00000  Uiso   1.00
C897   C     0.79961   0.90683   0.77733   0.00000  Uiso   1.00
C898   C     0.87158   0.54872   0.78359   0.00000  Uiso   1.00
C899   C     0.80202   0.95294   0.77901   0.00000  Uiso   1.00
C900   C     0.83477   0.52443   0.75226   0.00000  Uiso   1.00
C901   C     0.83538   0.97592   0.75229   0.00000  Uiso   1.00
C902   C     0.87868   0.76236   0.56070   0.00000  Uiso   1.00
C903   C     0.82267   0.70910   0.94320   0.00000  Uiso   1.00
C904   C     0.87495   0.76572   0.61055   0.00000  Uiso   1.00
C905   C     0.81919   0.71235   0.89235   0.00000  Uiso   1.00
C906   C     0.79278   0.73180   0.59901   0.00000  Uiso   1.00
C907   C     0.84977   0.78619   0.89936   0.00000  Uiso   1.00
C908   C     0.79190   0.73296   0.54755   0.00000  Uiso   1.00
Cu909  Cu    0.83333   0.74999   0.79822   0.00000  Uiso   1.00
Cu910  Cu    0.83333   0.75000   0.70179   0.00000  Uiso   1.00
H911   H     0.90679   0.77961   0.63458   0.00000  Uiso   1.00
H912   H     0.93857   0.89169   0.71200   0.00000  Uiso   1.00
H913   H     0.91696   0.64646   0.79825   0.00000  Uiso   1.00
H914   H     0.75434   0.85703   0.78626   0.00000  Uiso   1.00
H915   H     0.89042   0.50710   0.83960   0.00000  Uiso   1.00
H916   H     0.93090   0.50653   0.79728   0.00000  Uiso   1.00
H917   H     0.79157   0.99640   0.83268   0.00000  Uiso   1.00
H918   H     0.74461   0.99610   0.78443   0.00000  Uiso   1.00
H919   H     0.92694   0.76075   0.51384   0.00000  Uiso   1.00
H920   H     0.82889   0.66746   0.99638   0.00000  Uiso   1.00
H921   H     0.72855   0.69754   0.59481   0.00000  Uiso   1.00
H922   H     0.80713   0.68341   0.87049   0.00000  Uiso   1.00
H923   H     0.89585   0.81066   0.85961   0.00000  Uiso   1.00
H924   H     0.71598   0.73973   0.52414   0.00000  Uiso   1.00
H925   H     0.73844   0.68743   0.51864   0.00000  Uiso   1.00
H926   H     0.83179   0.85068   0.96254   0.00000  Uiso   1.00
H927   H     0.89452   0.83764   0.97367   0.00000  Uiso   1.00
H928   H     0.68120   0.78825   0.67127   0.00000  Uiso   1.00
H929   H     0.98587   0.71263   0.82942   0.00000  Uiso   1.00
H930   H     0.74032   0.53850   0.66733   0.00000  Uiso   1.00
H931   H     0.89756   0.50566   0.69877   0.00000  Uiso   1.00
H932   H     0.77591   0.63121   0.66038   0.00000  Uiso   1.00
H933   H     0.73989   0.63647   0.70649   0.00000  Uiso   1.00
H934   H     0.89401   0.89086   0.66190   0.00000  Uiso   1.00
N935   N     0.83333   0.75001   0.62935   0.00000  Uiso   1.00
N936   N     0.83333   0.74999   0.87066   0.00000  Uiso   1.00
N937   N     0.75873   0.61409   0.68638   0.00000  Uiso   1.00
N938   N     0.90104   0.88215   0.69843   0.00000  Uiso   1.00
N939   N     0.90929   0.52695   0.81696   0.00000  Uiso   1.00
N940   N     0.76903   0.97610   0.80737   0.00000  Uiso   1.00
N941   N     0.74652   0.72107   0.51509   0.00000  Uiso   1.00
N942   N     0.85748   0.82675   0.97735   0.00000  Uiso   1.00
O943   O     0.83334   0.68572   0.79072   0.00000  Uiso   1.00
O944   O     0.67816   0.72284   0.80895   0.00000  Uiso   1.00
O945   O     0.76333   0.51973   0.68929   0.00000  Uiso   1.00
O946   O     0.90103   0.97319   0.69730   0.00000  Uiso   1.00
O947   O     0.91132   0.61685   0.81149   0.00000  Uiso   1.00
O948   O     0.76372   0.88622   0.80158   0.00000  Uiso   1.00
O949   O     0.92509   0.77377   0.54631   0.00000  Uiso   1.00
O950   O     0.81432   0.66788   0.96168   0.00000  Uiso   1.00
O951   O     0.75364   0.71222   0.61965   0.00000  Uiso   1.00
O952   O     0.87171   0.82236   0.88070   0.00000  Uiso   1.00
O953   O     0.83333   0.81427   0.70929   0.00000  Uiso   1.00
O954   O     0.83334   0.68573   0.70928   0.00000  Uiso   1.00
O955   O     0.83333   0.81427   0.79072   0.00000  Uiso   1.00
O956   O     0.75828   0.74999   0.78132   0.00000  Uiso   1.00
O957   O     0.90839   0.75000   0.71868   0.00000  Uiso   1.00
O958   O     0.75828   0.75000   0.69989   0.00000  Uiso   1.00
O959   O     0.90839   0.75000   0.80012   0.00000  Uiso   1.00
O960   O     0.98891   0.77810   0.69176   0.00000  Uiso   1.00
loop_
_geom_bond_atom_site_label_1
_geom_bond_atom_site_label_2
_geom_bond_distance
_geom_bond_site_symmetry_2
_ccdc_geom_bond_type
C1     O74     1.294   .     A
C1     O63     1.294   .     A
C1     C14     1.461   .     S
C2     C27     1.413   .     A
C2     C4      1.409   .     A
C2     N62     1.434   .     S
C3     C28     1.411   .     A
C3     C22     1.424   .     A
C3     C484    1.522   1_554 S
C4     C23     1.425   .     A
C4     C483    1.522   .     S
C5     C7      1.447   .     S
C5     O76     1.284   .     A
C5     O78     1.295   .     A
C6     O77     1.286   .     A
C6     C8      1.449   .     S
C6     O79     1.294   .     A
C7     C168    1.355   1_455 S
C7     O240    1.386   1_455 S
C8     C87     1.355   .     S
C8     O144    1.388   .     S
C9     C20     1.403   .     A
C9     C11     1.408   .     A
C9     O65     1.385   .     S
C10    O66     1.385   .     S
C10    C21     1.416   .     A
C10    C13     1.399   .     A
C11    C14     1.415   .     A
C11    N57     1.436   .     S
C12    O73     1.294   .     A
C12    C15     1.462   .     S
C12    O75     1.295   .     A
C13    N58     1.436   .     S
C13    C15     1.408   .     A
C14    C16     1.418   .     A
C15    C17     1.416   .     A
C16    O67     1.383   .     S
C16    C18     1.394   .     A
C17    O68     1.383   .     S
C17    C19     1.394   .     A
C18    C20     1.406   .     A
C18    N59     1.435   .     S
C19    C21     1.410   .     A
C19    N60     1.436   .     S
C20    C261    1.467   1_545 S
C21    C260    1.467   .     S
C22    C24     1.407   .     A
C22    O69     1.380   .     S
C23    O70     1.380   .     S
C23    C25     1.411   .     A
C24    N55     1.362   .     A
C24    H31     1.077   .     S
C25    N56     1.366   .     A
C25    H42     1.080   .     S
C26    N55     1.374   .     A
C26    O71     1.379   .     S
C26    C28     1.431   .     A
C27    N56     1.378   .     A
C27    O72     1.372   .     S
C28    N61     1.436   .     S
Cu29   O63     1.952   .     S
Cu29   O76     1.970   .     S
Cu29   Cu30    2.685   .     S
Cu29   O79     1.972   .     S
Cu29   O75     1.956   .     S
Cu29   N56     2.017   .     S
Cu30   O74     1.956   .     S
Cu30   O77     1.970   .     S
Cu30   O73     1.952   .     S
Cu30   N55     2.017   .     S
Cu30   O78     1.972   .     S
H32    N58     1.046   .     S
H33    O67     0.989   .     S
H34    O68     0.989   .     S
H35    N59     1.045   .     S
H36    N59     1.045   .     S
H37    N60     1.045   .     S
H38    N60     1.045   .     S
H39    O69     0.990   .     S
H40    O70     0.989   .     S
H41    O71     0.987   .     S
H43    O72     0.989   .     S
H44    N61     1.046   .     S
H45    N61     1.045   .     S
H46    N62     1.046   .     S
H47    N62     1.046   .     S
H48    O240    0.991   1_455 S
H49    O144    0.991   .     S
H50    O65     0.989   .     S
H51    O306    0.988   1_545 S
H52    N57     1.044   .     S
H53    N57     1.046   .     S
H54    N58     1.046   .     S
O64    H209    0.991   1_455 S
O64    C168    1.388   1_455 S
O66    H291    0.988   .     S
O80    C87     1.386   .     S
O80    H128    0.991   .     S
C81    O154    1.294   .     A
C81    O143    1.294   .     A
C81    C94     1.461   .     S
C82    C107    1.413   .     A
C82    C84     1.409   .     A
C82    N142    1.434   .     S
C83    C108    1.411   .     A
C83    C102    1.424   .     A
C83    C564    1.522   1_554 S
C84    C103    1.425   .     A
C84    C563    1.522   .     S
C85    C87     1.447   .     S
C85    O156    1.284   .     A
C85    O158    1.295   .     A
C86    O157    1.286   .     A
C86    C88     1.449   .     S
C86    O159    1.294   .     A
C88    C167    1.355   .     S
C88    O224    1.388   .     S
C89    C100    1.403   .     A
C89    C91     1.408   .     A
C89    O145    1.385   .     S
C90    O146    1.385   .     S
C90    C101    1.416   .     A
C90    C93     1.399   .     A
C91    C94     1.415   .     A
C91    N137    1.436   .     S
C92    O153    1.294   .     A
C92    C95     1.462   .     S
C92    O155    1.295   .     A
C93    N138    1.436   .     S
C93    C95     1.408   .     A
C94    C96     1.418   .     A
C95    C97     1.416   .     A
C96    O147    1.383   .     S
C96    C98     1.394   .     A
C97    O148    1.383   .     S
C97    C99     1.394   .     A
C98    C100    1.406   .     A
C98    N139    1.435   .     S
C99    C101    1.410   .     A
C99    N140    1.436   .     S
C100   C341    1.467   1_545 S
C101   C340    1.467   .     S
C102   C104    1.407   .     A
C102   O149    1.380   .     S
C103   O150    1.380   .     S
C103   C105    1.411   .     A
C104   N135    1.362   .     A
C104   H111    1.077   .     S
C105   N136    1.366   .     A
C105   H122    1.080   .     S
C106   N135    1.374   .     A
C106   O151    1.379   .     S
C106   C108    1.431   .     A
C107   N136    1.378   .     A
C107   O152    1.372   .     S
C108   N141    1.436   .     S
Cu109  O143    1.952   .     S
Cu109  O156    1.970   .     S
Cu109  Cu110   2.685   .     S
Cu109  O159    1.972   .     S
Cu109  O155    1.956   .     S
Cu109  N136    2.017   .     S
Cu110  O154    1.956   .     S
Cu110  O157    1.970   .     S
Cu110  O153    1.952   .     S
Cu110  N135    2.017   .     S
Cu110  O158    1.972   .     S
H112   N138    1.046   .     S
H113   O147    0.989   .     S
H114   O148    0.989   .     S
H115   N139    1.045   .     S
H116   N139    1.045   .     S
H117   N140    1.045   .     S
H118   N140    1.045   .     S
H119   O149    0.990   .     S
H120   O150    0.989   .     S
H121   O151    0.987   .     S
H123   O152    0.989   .     S
H124   N141    1.046   .     S
H125   N141    1.045   .     S
H126   N142    1.046   .     S
H127   N142    1.046   .     S
H129   O224    0.991   .     S
H130   O145    0.989   .     S
H131   O386    0.988   1_545 S
H132   N137    1.044   .     S
H133   N137    1.046   .     S
H134   N138    1.046   .     S
O146   H371    0.988   .     S
O160   C167    1.386   .     S
O160   H208    0.991   .     S
C161   O234    1.294   .     A
C161   O223    1.294   .     A
C161   C174    1.461   .     S
C162   C187    1.413   .     A
C162   C164    1.409   .     A
C162   N222    1.434   .     S
C163   C188    1.411   .     A
C163   C182    1.424   .     A
C163   C644    1.522   1_554 S
C164   C183    1.425   .     A
C164   C643    1.522   .     S
C165   C167    1.447   .     S
C165   O236    1.284   .     A
C165   O238    1.295   .     A
C166   O237    1.286   .     A
C166   C168    1.449   .     S
C166   O239    1.294   .     A
C168   C7      1.355   1_655 S
C168   O64     1.388   1_655 S
C169   C180    1.403   .     A
C169   C171    1.408   .     A
C169   O225    1.385   .     S
C170   O226    1.385   .     S
C170   C181    1.416   .     A
C170   C173    1.399   .     A
C171   C174    1.415   .     A
C171   N217    1.436   .     S
C172   O233    1.294   .     A
C172   C175    1.462   .     S
C172   O235    1.295   .     A
C173   N218    1.436   .     S
C173   C175    1.408   .     A
C174   C176    1.418   .     A
C175   C177    1.416   .     A
C176   O227    1.383   .     S
C176   C178    1.394   .     A
C177   O228    1.383   .     S
C177   C179    1.394   .     A
C178   C180    1.406   .     A
C178   N219    1.435   .     S
C179   C181    1.410   .     A
C179   N220    1.436   .     S
C180   C421    1.467   1_545 S
C181   C420    1.467   .     S
C182   C184    1.407   .     A
C182   O229    1.380   .     S
C183   O230    1.380   .     S
C183   C185    1.411   .     A
C184   N215    1.362   .     A
C184   H191    1.077   .     S
C185   N216    1.366   .     A
C185   H202    1.080   .     S
C186   N215    1.374   .     A
C186   O231    1.379   .     S
C186   C188    1.431   .     A
C187   N216    1.378   .     A
C187   O232    1.372   .     S
C188   N221    1.436   .     S
Cu189  O223    1.952   .     S
Cu189  O236    1.970   .     S
Cu189  Cu190   2.685   .     S
Cu189  O239    1.972   .     S
Cu189  O235    1.956   .     S
Cu189  N216    2.017   .     S
Cu190  O234    1.956   .     S
Cu190  O237    1.970   .     S
Cu190  O233    1.952   .     S
Cu190  N215    2.017   .     S
Cu190  O238    1.972   .     S
H192   N218    1.046   .     S
H193   O227    0.989   .     S
H194   O228    0.989   .     S
H195   N219    1.045   .     S
H196   N219    1.045   .     S
H197   N220    1.045   .     S
H198   N220    1.045   .     S
H199   O229    0.990   .     S
H200   O230    0.989   .     S
H201   O231    0.987   .     S
H203   O232    0.989   .     S
H204   N221    1.046   .     S
H205   N221    1.045   .     S
H206   N222    1.046   .     S
H207   N222    1.046   .     S
H209   O64     0.991   1_655 S
H210   O225    0.989   .     S
H211   O466    0.988   1_545 S
H212   N217    1.044   .     S
H213   N217    1.046   .     S
H214   N218    1.046   .     S
O226   H451    0.988   .     S
O240   C7      1.386   1_655 S
O240   H48     0.991   1_655 S
C241   O314    1.294   .     A
C241   O303    1.294   .     A
C241   C254    1.461   .     S
C242   C267    1.413   .     A
C242   C244    1.409   .     A
C242   N302    1.434   .     S
C243   C268    1.411   .     A
C243   C262    1.424   .     A
C243   C724    1.522   1_554 S
C244   C263    1.425   .     A
C244   C723    1.522   .     S
C245   C247    1.447   .     S
C245   O316    1.284   .     A
C245   O318    1.295   .     A
C246   O317    1.286   .     A
C246   C248    1.449   .     S
C246   O319    1.294   .     A
C247   C408    1.355   1_455 S
C247   O480    1.386   1_455 S
C248   C327    1.355   .     S
C248   O384    1.388   .     S
C249   C260    1.403   .     A
C249   C251    1.408   .     A
C249   O305    1.385   .     S
C250   O306    1.385   .     S
C250   C261    1.416   .     A
C250   C253    1.399   .     A
C251   C254    1.415   .     A
C251   N297    1.436   .     S
C252   O313    1.294   .     A
C252   C255    1.462   .     S
C252   O315    1.295   .     A
C253   N298    1.436   .     S
C253   C255    1.408   .     A
C254   C256    1.418   .     A
C255   C257    1.416   .     A
C256   O307    1.383   .     S
C256   C258    1.394   .     A
C257   O308    1.383   .     S
C257   C259    1.394   .     A
C258   C260    1.406   .     A
C258   N299    1.435   .     S
C259   C261    1.410   .     A
C259   N300    1.436   .     S
C261   C20     1.467   1_565 S
C262   C264    1.407   .     A
C262   O309    1.380   .     S
C263   O310    1.380   .     S
C263   C265    1.411   .     A
C264   N295    1.362   .     A
C264   H271    1.077   .     S
C265   N296    1.366   .     A
C265   H282    1.080   .     S
C266   N295    1.374   .     A
C266   O311    1.379   .     S
C266   C268    1.431   .     A
C267   N296    1.378   .     A
C267   O312    1.372   .     S
C268   N301    1.436   .     S
Cu269  O303    1.952   .     S
Cu269  O316    1.970   .     S
Cu269  Cu270   2.685   .     S
Cu269  O319    1.972   .     S
Cu269  O315    1.956   .     S
Cu269  N296    2.017   .     S
Cu270  O314    1.956   .     S
Cu270  O317    1.970   .     S
Cu270  O313    1.952   .     S
Cu270  N295    2.017   .     S
Cu270  O318    1.972   .     S
H272   N298    1.046   .     S
H273   O307    0.989   .     S
H274   O308    0.989   .     S
H275   N299    1.045   .     S
H276   N299    1.045   .     S
H277   N300    1.045   .     S
H278   N300    1.045   .     S
H279   O309    0.990   .     S
H280   O310    0.989   .     S
H281   O311    0.987   .     S
H283   O312    0.989   .     S
H284   N301    1.046   .     S
H285   N301    1.045   .     S
H286   N302    1.046   .     S
H287   N302    1.046   .     S
H288   O480    0.991   1_455 S
H289   O384    0.991   .     S
H290   O305    0.989   .     S
H292   N297    1.044   .     S
H293   N297    1.046   .     S
H294   N298    1.046   .     S
O304   H449    0.991   1_455 S
O304   C408    1.388   1_455 S
O306   H51     0.988   1_565 S
O320   C327    1.386   .     S
O320   H368    0.991   .     S
C321   O394    1.294   .     A
C321   O383    1.294   .     A
C321   C334    1.461   .     S
C322   C347    1.413   .     A
C322   C324    1.409   .     A
C322   N382    1.434   .     S
C323   C348    1.411   .     A
C323   C342    1.424   .     A
C323   C804    1.522   1_554 S
C324   C343    1.425   .     A
C324   C803    1.522   .     S
C325   C327    1.447   .     S
C325   O396    1.284   .     A
C325   O398    1.295   .     A
C326   O397    1.286   .     A
C326   C328    1.449   .     S
C326   O399    1.294   .     A
C328   C407    1.355   .     S
C328   O464    1.388   .     S
C329   C340    1.403   .     A
C329   C331    1.408   .     A
C329   O385    1.385   .     S
C330   O386    1.385   .     S
C330   C341    1.416   .     A
C330   C333    1.399   .     A
C331   C334    1.415   .     A
C331   N377    1.436   .     S
C332   O393    1.294   .     A
C332   C335    1.462   .     S
C332   O395    1.295   .     A
C333   N378    1.436   .     S
C333   C335    1.408   .     A
C334   C336    1.418   .     A
C335   C337    1.416   .     A
C336   O387    1.383   .     S
C336   C338    1.394   .     A
C337   O388    1.383   .     S
C337   C339    1.394   .     A
C338   C340    1.406   .     A
C338   N379    1.435   .     S
C339   C341    1.410   .     A
C339   N380    1.436   .     S
C341   C100    1.467   1_565 S
C342   C344    1.407   .     A
C342   O389    1.380   .     S
C343   O390    1.380   .     S
C343   C345    1.411   .     A
C344   N375    1.362   .     A
C344   H351    1.077   .     S
C345   N376    1.366   .     A
C345   H362    1.080   .     S
C346   N375    1.374   .     A
C346   O391    1.379   .     S
C346   C348    1.431   .     A
C347   N376    1.378   .     A
C347   O392    1.372   .     S
C348   N381    1.436   .     S
Cu349  O383    1.952   .     S
Cu349  O396    1.970   .     S
Cu349  Cu350   2.685   .     S
Cu349  O399    1.972   .     S
Cu349  O395    1.956   .     S
Cu349  N376    2.017   .     S
Cu350  O394    1.956   .     S
Cu350  O397    1.970   .     S
Cu350  O393    1.952   .     S
Cu350  N375    2.017   .     S
Cu350  O398    1.972   .     S
H352   N378    1.046   .     S
H353   O387    0.989   .     S
H354   O388    0.989   .     S
H355   N379    1.045   .     S
H356   N379    1.045   .     S
H357   N380    1.045   .     S
H358   N380    1.045   .     S
H359   O389    0.990   .     S
H360   O390    0.989   .     S
H361   O391    0.987   .     S
H363   O392    0.989   .     S
H364   N381    1.046   .     S
H365   N381    1.045   .     S
H366   N382    1.046   .     S
H367   N382    1.046   .     S
H369   O464    0.991   .     S
H370   O385    0.989   .     S
H372   N377    1.044   .     S
H373   N377    1.046   .     S
H374   N378    1.046   .     S
O386   H131    0.988   1_565 S
O400   C407    1.386   .     S
O400   H448    0.991   .     S
C401   O474    1.294   .     A
C401   O463    1.294   .     A
C401   C414    1.461   .     S
C402   C427    1.413   .     A
C402   C404    1.409   .     A
C402   N462    1.434   .     S
C403   C428    1.411   .     A
C403   C422    1.424   .     A
C403   C884    1.522   1_554 S
C404   C423    1.425   .     A
C404   C883    1.522   .     S
C405   C407    1.447   .     S
C405   O476    1.284   .     A
C405   O478    1.295   .     A
C406   O477    1.286   .     A
C406   C408    1.449   .     S
C406   O479    1.294   .     A
C408   C247    1.355   1_655 S
C408   O304    1.388   1_655 S
C409   C420    1.403   .     A
C409   C411    1.408   .     A
C409   O465    1.385   .     S
C410   O466    1.385   .     S
C410   C421    1.416   .     A
C410   C413    1.399   .     A
C411   C414    1.415   .     A
C411   N457    1.436   .     S
C412   O473    1.294   .     A
C412   C415    1.462   .     S
C412   O475    1.295   .     A
C413   N458    1.436   .     S
C413   C415    1.408   .     A
C414   C416    1.418   .     A
C415   C417    1.416   .     A
C416   O467    1.383   .     S
C416   C418    1.394   .     A
C417   O468    1.383   .     S
C417   C419    1.394   .     A
C418   C420    1.406   .     A
C418   N459    1.435   .     S
C419   C421    1.410   .     A
C419   N460    1.436   .     S
C421   C180    1.467   1_565 S
C422   C424    1.407   .     A
C422   O469    1.380   .     S
C423   O470    1.380   .     S
C423   C425    1.411   .     A
C424   N455    1.362   .     A
C424   H431    1.077   .     S
C425   N456    1.366   .     A
C425   H442    1.080   .     S
C426   N455    1.374   .     A
C426   O471    1.379   .     S
C426   C428    1.431   .     A
C427   N456    1.378   .     A
C427   O472    1.372   .     S
C428   N461    1.436   .     S
Cu429  O463    1.952   .     S
Cu429  O476    1.970   .     S
Cu429  Cu430   2.685   .     S
Cu429  O479    1.972   .     S
Cu429  O475    1.956   .     S
Cu429  N456    2.017   .     S
Cu430  O474    1.956   .     S
Cu430  O477    1.970   .     S
Cu430  O473    1.952   .     S
Cu430  N455    2.017   .     S
Cu430  O478    1.972   .     S
H432   N458    1.046   .     S
H433   O467    0.989   .     S
H434   O468    0.989   .     S
H435   N459    1.045   .     S
H436   N459    1.045   .     S
H437   N460    1.045   .     S
H438   N460    1.045   .     S
H439   O469    0.990   .     S
H440   O470    0.989   .     S
H441   O471    0.987   .     S
H443   O472    0.989   .     S
H444   N461    1.046   .     S
H445   N461    1.045   .     S
H446   N462    1.046   .     S
H447   N462    1.046   .     S
H449   O304    0.991   1_655 S
H450   O465    0.989   .     S
H452   N457    1.044   .     S
H453   N457    1.046   .     S
H454   N458    1.046   .     S
O466   H211    0.988   1_565 S
O480   C247    1.386   1_655 S
O480   H288    0.991   1_655 S
C481   O554    1.294   .     A
C481   O543    1.294   .     A
C481   C494    1.461   .     S
C482   C507    1.413   .     A
C482   C484    1.409   .     A
C482   N542    1.434   .     S
C483   C508    1.411   .     A
C483   C502    1.424   .     A
C484   C503    1.425   .     A
C484   C3      1.522   1_556 S
C485   C487    1.447   .     S
C485   O556    1.284   .     A
C485   O558    1.295   .     A
C486   O557    1.286   .     A
C486   C488    1.449   .     S
C486   O559    1.294   .     A
C487   C648    1.355   1_455 S
C487   O720    1.386   1_455 S
C488   C567    1.355   .     S
C488   O624    1.388   .     S
C489   C500    1.403   .     A
C489   C491    1.408   .     A
C489   O545    1.385   .     S
C490   O546    1.385   .     S
C490   C501    1.416   .     A
C490   C493    1.399   .     A
C491   C494    1.415   .     A
C491   N537    1.436   .     S
C492   O553    1.294   .     A
C492   C495    1.462   .     S
C492   O555    1.295   .     A
C493   N538    1.436   .     S
C493   C495    1.408   .     A
C494   C496    1.418   .     A
C495   C497    1.416   .     A
C496   O547    1.383   .     S
C496   C498    1.394   .     A
C497   O548    1.383   .     S
C497   C499    1.394   .     A
C498   C500    1.406   .     A
C498   N539    1.435   .     S
C499   C501    1.410   .     A
C499   N540    1.436   .     S
C500   C741    1.467   1_545 S
C501   C740    1.467   .     S
C502   C504    1.407   .     A
C502   O549    1.380   .     S
C503   O550    1.380   .     S
C503   C505    1.411   .     A
C504   N535    1.362   .     A
C504   H511    1.077   .     S
C505   N536    1.366   .     A
C505   H522    1.080   .     S
C506   N535    1.374   .     A
C506   O551    1.379   .     S
C506   C508    1.431   .     A
C507   N536    1.378   .     A
C507   O552    1.372   .     S
C508   N541    1.436   .     S
Cu509  O543    1.952   .     S
Cu509  O556    1.970   .     S
Cu509  Cu510   2.685   .     S
Cu509  O559    1.972   .     S
Cu509  O555    1.956   .     S
Cu509  N536    2.017   .     S
Cu510  O554    1.956   .     S
Cu510  O557    1.970   .     S
Cu510  O553    1.952   .     S
Cu510  N535    2.017   .     S
Cu510  O558    1.972   .     S
H512   N538    1.046   .     S
H513   O547    0.989   .     S
H514   O548    0.989   .     S
H515   N539    1.045   .     S
H516   N539    1.045   .     S
H517   N540    1.045   .     S
H518   N540    1.045   .     S
H519   O549    0.990   .     S
H520   O550    0.989   .     S
H521   O551    0.987   .     S
H523   O552    0.989   .     S
H524   N541    1.046   .     S
H525   N541    1.045   .     S
H526   N542    1.046   .     S
H527   N542    1.046   .     S
H528   O720    0.991   1_455 S
H529   O624    0.991   .     S
H530   O545    0.989   .     S
H531   O786    0.988   1_545 S
H532   N537    1.044   .     S
H533   N537    1.046   .     S
H534   N538    1.046   .     S
O544   H689    0.991   1_455 S
O544   C648    1.388   1_455 S
O546   H771    0.988   .     S
O560   C567    1.386   .     S
O560   H608    0.991   .     S
C561   O634    1.294   .     A
C561   O623    1.294   .     A
C561   C574    1.461   .     S
C562   C587    1.413   .     A
C562   C564    1.409   .     A
C562   N622    1.434   .     S
C563   C588    1.411   .     A
C563   C582    1.424   .     A
C564   C583    1.425   .     A
C564   C83     1.522   1_556 S
C565   C567    1.447   .     S
C565   O636    1.284   .     A
C565   O638    1.295   .     A
C566   O637    1.286   .     A
C566   C568    1.449   .     S
C566   O639    1.294   .     A
C568   C647    1.355   .     S
C568   O704    1.388   .     S
C569   C580    1.403   .     A
C569   C571    1.408   .     A
C569   O625    1.385   .     S
C570   O626    1.385   .     S
C570   C581    1.416   .     A
C570   C573    1.399   .     A
C571   C574    1.415   .     A
C571   N617    1.436   .     S
C572   O633    1.294   .     A
C572   C575    1.462   .     S
C572   O635    1.295   .     A
C573   N618    1.436   .     S
C573   C575    1.408   .     A
C574   C576    1.418   .     A
C575   C577    1.416   .     A
C576   O627    1.383   .     S
C576   C578    1.394   .     A
C577   O628    1.383   .     S
C577   C579    1.394   .     A
C578   C580    1.406   .     A
C578   N619    1.435   .     S
C579   C581    1.410   .     A
C579   N620    1.436   .     S
C580   C821    1.467   1_545 S
C581   C820    1.467   .     S
C582   C584    1.407   .     A
C582   O629    1.380   .     S
C583   O630    1.380   .     S
C583   C585    1.411   .     A
C584   N615    1.362   .     A
C584   H591    1.077   .     S
C585   N616    1.366   .     A
C585   H602    1.080   .     S
C586   N615    1.374   .     A
C586   O631    1.379   .     S
C586   C588    1.431   .     A
C587   N616    1.378   .     A
C587   O632    1.372   .     S
C588   N621    1.436   .     S
Cu589  O623    1.952   .     S
Cu589  O636    1.970   .     S
Cu589  Cu590   2.685   .     S
Cu589  O639    1.972   .     S
Cu589  O635    1.956   .     S
Cu589  N616    2.017   .     S
Cu590  O634    1.956   .     S
Cu590  O637    1.970   .     S
Cu590  O633    1.952   .     S
Cu590  N615    2.017   .     S
Cu590  O638    1.972   .     S
H592   N618    1.046   .     S
H593   O627    0.989   .     S
H594   O628    0.989   .     S
H595   N619    1.045   .     S
H596   N619    1.045   .     S
H597   N620    1.045   .     S
H598   N620    1.045   .     S
H599   O629    0.990   .     S
H600   O630    0.989   .     S
H601   O631    0.987   .     S
H603   O632    0.989   .     S
H604   N621    1.046   .     S
H605   N621    1.045   .     S
H606   N622    1.046   .     S
H607   N622    1.046   .     S
H609   O704    0.991   .     S
H610   O625    0.989   .     S
H611   O866    0.988   1_545 S
H612   N617    1.044   .     S
H613   N617    1.046   .     S
H614   N618    1.046   .     S
O626   H851    0.988   .     S
O640   C647    1.386   .     S
O640   H688    0.991   .     S
C641   O714    1.294   .     A
C641   O703    1.294   .     A
C641   C654    1.461   .     S
C642   C667    1.413   .     A
C642   C644    1.409   .     A
C642   N702    1.434   .     S
C643   C668    1.411   .     A
C643   C662    1.424   .     A
C644   C663    1.425   .     A
C644   C163    1.522   1_556 S
C645   C647    1.447   .     S
C645   O716    1.284   .     A
C645   O718    1.295   .     A
C646   O717    1.286   .     A
C646   C648    1.449   .     S
C646   O719    1.294   .     A
C648   C487    1.355   1_655 S
C648   O544    1.388   1_655 S
C649   C660    1.403   .     A
C649   C651    1.408   .     A
C649   O705    1.385   .     S
C650   O706    1.385   .     S
C650   C661    1.416   .     A
C650   C653    1.399   .     A
C651   C654    1.415   .     A
C651   N697    1.436   .     S
C652   O713    1.294   .     A
C652   C655    1.462   .     S
C652   O715    1.295   .     A
C653   N698    1.436   .     S
C653   C655    1.408   .     A
C654   C656    1.418   .     A
C655   C657    1.416   .     A
C656   O707    1.383   .     S
C656   C658    1.394   .     A
C657   O708    1.383   .     S
C657   C659    1.394   .     A
C658   C660    1.406   .     A
C658   N699    1.435   .     S
C659   C661    1.410   .     A
C659   N700    1.436   .     S
C660   C901    1.467   1_545 S
C661   C900    1.467   .     S
C662   C664    1.407   .     A
C662   O709    1.380   .     S
C663   O710    1.380   .     S
C663   C665    1.411   .     A
C664   N695    1.362   .     A
C664   H671    1.077   .     S
C665   N696    1.366   .     A
C665   H682    1.080   .     S
C666   N695    1.374   .     A
C666   O711    1.379   .     S
C666   C668    1.431   .     A
C667   N696    1.378   .     A
C667   O712    1.372   .     S
C668   N701    1.436   .     S
Cu669  O703    1.952   .     S
Cu669  O716    1.970   .     S
Cu669  Cu670   2.685   .     S
Cu669  O719    1.972   .     S
Cu669  O715    1.956   .     S
Cu669  N696    2.017   .     S
Cu670  O714    1.956   .     S
Cu670  O717    1.970   .     S
Cu670  O713    1.952   .     S
Cu670  N695    2.017   .     S
Cu670  O718    1.972   .     S
H672   N698    1.046   .     S
H673   O707    0.989   .     S
H674   O708    0.989   .     S
H675   N699    1.045   .     S
H676   N699    1.045   .     S
H677   N700    1.045   .     S
H678   N700    1.045   .     S
H679   O709    0.990   .     S
H680   O710    0.989   .     S
H681   O711    0.987   .     S
H683   O712    0.989   .     S
H684   N701    1.046   .     S
H685   N701    1.045   .     S
H686   N702    1.046   .     S
H687   N702    1.046   .     S
H689   O544    0.991   1_655 S
H690   O705    0.989   .     S
H691   O946    0.988   1_545 S
H692   N697    1.044   .     S
H693   N697    1.046   .     S
H694   N698    1.046   .     S
O706   H931    0.988   .     S
O720   C487    1.386   1_655 S
O720   H528    0.991   1_655 S
C721   O794    1.294   .     A
C721   O783    1.294   .     A
C721   C734    1.461   .     S
C722   C747    1.413   .     A
C722   C724    1.409   .     A
C722   N782    1.434   .     S
C723   C748    1.411   .     A
C723   C742    1.424   .     A
C724   C743    1.425   .     A
C724   C243    1.522   1_556 S
C725   C727    1.447   .     S
C725   O796    1.284   .     A
C725   O798    1.295   .     A
C726   O797    1.286   .     A
C726   C728    1.449   .     S
C726   O799    1.294   .     A
C727   C888    1.355   1_455 S
C727   O960    1.386   1_455 S
C728   C807    1.355   .     S
C728   O864    1.388   .     S
C729   C740    1.403   .     A
C729   C731    1.408   .     A
C729   O785    1.385   .     S
C730   O786    1.385   .     S
C730   C741    1.416   .     A
C730   C733    1.399   .     A
C731   C734    1.415   .     A
C731   N777    1.436   .     S
C732   O793    1.294   .     A
C732   C735    1.462   .     S
C732   O795    1.295   .     A
C733   N778    1.436   .     S
C733   C735    1.408   .     A
C734   C736    1.418   .     A
C735   C737    1.416   .     A
C736   O787    1.383   .     S
C736   C738    1.394   .     A
C737   O788    1.383   .     S
C737   C739    1.394   .     A
C738   C740    1.406   .     A
C738   N779    1.435   .     S
C739   C741    1.410   .     A
C739   N780    1.436   .     S
C741   C500    1.467   1_565 S
C742   C744    1.407   .     A
C742   O789    1.380   .     S
C743   O790    1.380   .     S
C743   C745    1.411   .     A
C744   N775    1.362   .     A
C744   H751    1.077   .     S
C745   N776    1.366   .     A
C745   H762    1.080   .     S
C746   N775    1.374   .     A
C746   O791    1.379   .     S
C746   C748    1.431   .     A
C747   N776    1.378   .     A
C747   O792    1.372   .     S
C748   N781    1.436   .     S
Cu749  O783    1.952   .     S
Cu749  O796    1.970   .     S
Cu749  Cu750   2.685   .     S
Cu749  O799    1.972   .     S
Cu749  O795    1.956   .     S
Cu749  N776    2.017   .     S
Cu750  O794    1.956   .     S
Cu750  O797    1.970   .     S
Cu750  O793    1.952   .     S
Cu750  N775    2.017   .     S
Cu750  O798    1.972   .     S
H752   N778    1.046   .     S
H753   O787    0.989   .     S
H754   O788    0.989   .     S
H755   N779    1.045   .     S
H756   N779    1.045   .     S
H757   N780    1.045   .     S
H758   N780    1.045   .     S
H759   O789    0.990   .     S
H760   O790    0.989   .     S
H761   O791    0.987   .     S
H763   O792    0.989   .     S
H764   N781    1.046   .     S
H765   N781    1.045   .     S
H766   N782    1.046   .     S
H767   N782    1.046   .     S
H768   O960    0.991   1_455 S
H769   O864    0.991   .     S
H770   O785    0.989   .     S
H772   N777    1.044   .     S
H773   N777    1.046   .     S
H774   N778    1.046   .     S
O784   H929    0.991   1_455 S
O784   C888    1.388   1_455 S
O786   H531    0.988   1_565 S
O800   C807    1.386   .     S
O800   H848    0.991   .     S
C801   O874    1.294   .     A
C801   O863    1.294   .     A
C801   C814    1.461   .     S
C802   C827    1.413   .     A
C802   C804    1.409   .     A
C802   N862    1.434   .     S
C803   C828    1.411   .     A
C803   C822    1.424   .     A
C804   C823    1.425   .     A
C804   C323    1.522   1_556 S
C805   C807    1.447   .     S
C805   O876    1.284   .     A
C805   O878    1.295   .     A
C806   O877    1.286   .     A
C806   C808    1.449   .     S
C806   O879    1.294   .     A
C808   C887    1.355   .     S
C808   O944    1.388   .     S
C809   C820    1.403   .     A
C809   C811    1.408   .     A
C809   O865    1.385   .     S
C810   O866    1.385   .     S
C810   C821    1.416   .     A
C810   C813    1.399   .     A
C811   C814    1.415   .     A
C811   N857    1.436   .     S
C812   O873    1.294   .     A
C812   C815    1.462   .     S
C812   O875    1.295   .     A
C813   N858    1.436   .     S
C813   C815    1.408   .     A
C814   C816    1.418   .     A
C815   C817    1.416   .     A
C816   O867    1.383   .     S
C816   C818    1.394   .     A
C817   O868    1.383   .     S
C817   C819    1.394   .     A
C818   C820    1.406   .     A
C818   N859    1.435   .     S
C819   C821    1.410   .     A
C819   N860    1.436   .     S
C821   C580    1.467   1_565 S
C822   C824    1.407   .     A
C822   O869    1.380   .     S
C823   O870    1.380   .     S
C823   C825    1.411   .     A
C824   N855    1.362   .     A
C824   H831    1.077   .     S
C825   N856    1.366   .     A
C825   H842    1.080   .     S
C826   N855    1.374   .     A
C826   O871    1.379   .     S
C826   C828    1.431   .     A
C827   N856    1.378   .     A
C827   O872    1.372   .     S
C828   N861    1.436   .     S
Cu829  O863    1.952   .     S
Cu829  O876    1.970   .     S
Cu829  Cu830   2.685   .     S
Cu829  O879    1.972   .     S
Cu829  O875    1.956   .     S
Cu829  N856    2.017   .     S
Cu830  O874    1.956   .     S
Cu830  O877    1.970   .     S
Cu830  O873    1.952   .     S
Cu830  N855    2.017   .     S
Cu830  O878    1.972   .     S
H832   N858    1.046   .     S
H833   O867    0.989   .     S
H834   O868    0.989   .     S
H835   N859    1.045   .     S
H836   N859    1.045   .     S
H837   N860    1.045   .     S
H838   N860    1.045   .     S
H839   O869    0.990   .     S
H840   O870    0.989   .     S
H841   O871    0.987   .     S
H843   O872    0.989   .     S
H844   N861    1.046   .     S
H845   N861    1.045   .     S
H846   N862    1.046   .     S
H847   N862    1.046   .     S
H849   O944    0.991   .     S
H850   O865    0.989   .     S
H852   N857    1.044   .     S
H853   N857    1.046   .     S
H854   N858    1.046   .     S
O866   H611    0.988   1_565 S
O880   C887    1.386   .     S
O880   H928    0.991   .     S
C881   O954    1.294   .     A
C881   O943    1.294   .     A
C881   C894    1.461   .     S
C882   C907    1.413   .     A
C882   C884    1.409   .     A
C882   N942    1.434   .     S
C883   C908    1.411   .     A
C883   C902    1.424   .     A
C884   C903    1.425   .     A
C884   C403    1.522   1_556 S
C885   C887    1.447   .     S
C885   O956    1.284   .     A
C885   O958    1.295   .     A
C886   O957    1.286   .     A
C886   C888    1.449   .     S
C886   O959    1.294   .     A
C888   C727    1.355   1_655 S
C888   O784    1.388   1_655 S
C889   C900    1.403   .     A
C889   C891    1.408   .     A
C889   O945    1.385   .     S
C890   O946    1.385   .     S
C890   C901    1.416   .     A
C890   C893    1.399   .     A
C891   C894    1.415   .     A
C891   N937    1.436   .     S
C892   O953    1.294   .     A
C892   C895    1.462   .     S
C892   O955    1.295   .     A
C893   N938    1.436   .     S
C893   C895    1.408   .     A
C894   C896    1.418   .     A
C895   C897    1.416   .     A
C896   O947    1.383   .     S
C896   C898    1.394   .     A
C897   O948    1.383   .     S
C897   C899    1.394   .     A
C898   C900    1.406   .     A
C898   N939    1.435   .     S
C899   C901    1.410   .     A
C899   N940    1.436   .     S
C901   C660    1.467   1_565 S
C902   C904    1.407   .     A
C902   O949    1.380   .     S
C903   O950    1.380   .     S
C903   C905    1.411   .     A
C904   N935    1.362   .     A
C904   H911    1.077   .     S
C905   N936    1.366   .     A
C905   H922    1.080   .     S
C906   N935    1.374   .     A
C906   O951    1.379   .     S
C906   C908    1.431   .     A
C907   N936    1.378   .     A
C907   O952    1.372   .     S
C908   N941    1.436   .     S
Cu909  O943    1.952   .     S
Cu909  O956    1.970   .     S
Cu909  Cu910   2.685   .     S
Cu909  O959    1.972   .     S
Cu909  O955    1.956   .     S
Cu909  N936    2.017   .     S
Cu910  O954    1.956   .     S
Cu910  O957    1.970   .     S
Cu910  O953    1.952   .     S
Cu910  N935    2.017   .     S
Cu910  O958    1.972   .     S
H912   N938    1.046   .     S
H913   O947    0.989   .     S
H914   O948    0.989   .     S
H915   N939    1.045   .     S
H916   N939    1.045   .     S
H917   N940    1.045   .     S
H918   N940    1.045   .     S
H919   O949    0.990   .     S
H920   O950    0.989   .     S
H921   O951    0.987   .     S
H923   O952    0.989   .     S
H924   N941    1.046   .     S
H925   N941    1.045   .     S
H926   N942    1.046   .     S
H927   N942    1.046   .     S
H929   O784    0.991   1_655 S
H930   O945    0.989   .     S
H932   N937    1.044   .     S
H933   N937    1.046   .     S
H934   N938    1.046   .     S
O946   H691    0.988   1_565 S
O960   C727    1.386   1_655 S
O960   H768    0.991   1_655 S
