data_str_m2_o1_o17_pcu_sym.199
_audit_creation_date              2020-01-03
_audit_creation_method            'Materials Studio'
_symmetry_space_group_name_H-M    'P1'
_symmetry_Int_Tables_number       1
_symmetry_cell_setting            triclinic
loop_
_symmetry_equiv_pos_as_xyz
  x,y,z
_cell_length_a                    32.3264
_cell_length_b                    28.5191
_cell_length_c                    30.1485
_cell_angle_alpha                 89.2854
_cell_angle_beta                  90.4700
_cell_angle_gamma                 90.0383
loop_
_atom_site_label
_atom_site_type_symbol
_atom_site_fract_x
_atom_site_fract_y
_atom_site_fract_z
_atom_site_U_iso_or_equiv
_atom_site_adp_type
_atom_site_occupancy
C1     C     0.08744   0.16665   0.25004   0.00000  Uiso   1.00
C2     C     0.24588   0.16667   0.25018   0.00000  Uiso   1.00
C3     C     0.11730   0.09925   0.02610   0.00000  Uiso   1.00
C4     C     0.18797   0.24938   0.47480   0.00000  Uiso   1.00
C5     C     0.02119   0.14643   0.21456   0.00000  Uiso   1.00
C6     C     0.31204   0.18671   0.28595   0.00000  Uiso   1.00
C7     C     0.31140   0.14635   0.21461   0.00000  Uiso   1.00
C8     C     0.02188   0.18662   0.28595   0.00000  Uiso   1.00
C9     C     0.29045   0.16665   0.25023   0.00000  Uiso   1.00
C10    C     0.04282   0.16660   0.25017   0.00000  Uiso   1.00
C11    C     0.14146   0.02517   0.22170   0.00000  Uiso   1.00
C12    C     0.19189   0.30817   0.27827   0.00000  Uiso   1.00
C13    C     0.19194   0.02447   0.27822   0.00000  Uiso   1.00
C14    C     0.14148   0.30886   0.22168   0.00000  Uiso   1.00
C15    C     0.16756   0.16702   0.16435   0.00000  Uiso   1.00
C16    C     0.16565   0.16623   0.33589   0.00000  Uiso   1.00
C17    C     0.17467   0.20645   0.40663   0.00000  Uiso   1.00
C18    C     0.14413   0.13359   0.09415   0.00000  Uiso   1.00
C19    C     0.16236   0.16589   0.38460   0.00000  Uiso   1.00
C20    C     0.16633   0.16831   0.11596   0.00000  Uiso   1.00
C21    C     0.14597   0.12749   0.40902   0.00000  Uiso   1.00
C22    C     0.18518   0.20500   0.09199   0.00000  Uiso   1.00
C23    C     0.13855   0.13254   0.45490   0.00000  Uiso   1.00
C24    C     0.17727   0.20971   0.04598   0.00000  Uiso   1.00
C25    C     0.15625   0.17141   0.47711   0.00000  Uiso   1.00
C26    C     0.15756   0.17201   0.02374   0.00000  Uiso   1.00
C27    C     0.17348   0.20913   0.45274   0.00000  Uiso   1.00
C28    C     0.14012   0.13425   0.04808   0.00000  Uiso   1.00
C29    C     0.11459   0.09997   0.47966   0.00000  Uiso   1.00
C30    C     0.18814   0.25047   0.02133   0.00000  Uiso   1.00
Cu31   Cu    0.16667   0.21355   0.25000   0.00000  Uiso   1.00
Cu32   Cu    0.16667   0.11978   0.25000   0.00000  Uiso   1.00
H33    H     0.18710   0.23522   0.38727   0.00000  Uiso   1.00
H34    H     0.13036   0.10586   0.11379   0.00000  Uiso   1.00
H35    H     0.12129   0.04417   0.19904   0.00000  Uiso   1.00
H36    H     0.21206   0.28916   0.30094   0.00000  Uiso   1.00
H37    H     0.21216   0.04293   0.30082   0.00000  Uiso   1.00
H38    H     0.12133   0.29040   0.19901   0.00000  Uiso   1.00
N39    N     0.16667   0.28402   0.25000   0.00000  Uiso   1.00
N40    N     0.16667   0.04931   0.25000   0.00000  Uiso   1.00
O41    O     0.10655   0.20625   0.25000   0.00000  Uiso   1.00
O42    O     0.22679   0.12709   0.25001   0.00000  Uiso   1.00
O43    O     0.22679   0.20625   0.25001   0.00000  Uiso   1.00
O44    O     0.10655   0.12709   0.25000   0.00000  Uiso   1.00
O45    O     0.16666   0.20627   0.18513   0.00000  Uiso   1.00
O46    O     0.16668   0.12707   0.31487   0.00000  Uiso   1.00
O47    O     0.16668   0.20627   0.31487   0.00000  Uiso   1.00
O48    O     0.16666   0.12707   0.18513   0.00000  Uiso   1.00
Br49   Br    0.14342   0.06562   0.38303   0.00000  Uiso   1.00
Br50   Br    0.23059   0.23783   0.12040   0.00000  Uiso   1.00
Br51   Br    0.06986   0.06489   0.45270   0.00000  Uiso   1.00
Br52   Br    0.19372   0.31109   0.04904   0.00000  Uiso   1.00
Br53   Br    0.08878   0.05028   0.05888   0.00000  Uiso   1.00
Br54   Br    0.20775   0.30366   0.44200   0.00000  Uiso   1.00
Br55   Br    0.05046   0.12080   0.16486   0.00000  Uiso   1.00
Br56   Br    0.28256   0.21214   0.33573   0.00000  Uiso   1.00
Br57   Br    0.28112   0.12014   0.16519   0.00000  Uiso   1.00
Br58   Br    0.05222   0.21177   0.33581   0.00000  Uiso   1.00
C59    C     0.42077   0.16665   0.25004   0.00000  Uiso   1.00
C60    C     0.57921   0.16667   0.25018   0.00000  Uiso   1.00
C61    C     0.45064   0.09925   0.02610   0.00000  Uiso   1.00
C62    C     0.52130   0.24938   0.47480   0.00000  Uiso   1.00
C63    C     0.35453   0.14643   0.21456   0.00000  Uiso   1.00
C64    C     0.64537   0.18671   0.28595   0.00000  Uiso   1.00
C65    C     0.64473   0.14635   0.21461   0.00000  Uiso   1.00
C66    C     0.35521   0.18662   0.28595   0.00000  Uiso   1.00
C67    C     0.62379   0.16665   0.25023   0.00000  Uiso   1.00
C68    C     0.37616   0.16660   0.25017   0.00000  Uiso   1.00
C69    C     0.47480   0.02517   0.22170   0.00000  Uiso   1.00
C70    C     0.52522   0.30817   0.27827   0.00000  Uiso   1.00
C71    C     0.52527   0.02447   0.27822   0.00000  Uiso   1.00
C72    C     0.47481   0.30886   0.22168   0.00000  Uiso   1.00
C73    C     0.50089   0.16702   0.16435   0.00000  Uiso   1.00
C74    C     0.49898   0.16623   0.33589   0.00000  Uiso   1.00
C75    C     0.50801   0.20645   0.40663   0.00000  Uiso   1.00
C76    C     0.47747   0.13359   0.09415   0.00000  Uiso   1.00
C77    C     0.49569   0.16589   0.38460   0.00000  Uiso   1.00
C78    C     0.49966   0.16831   0.11596   0.00000  Uiso   1.00
C79    C     0.47930   0.12749   0.40902   0.00000  Uiso   1.00
C80    C     0.51852   0.20500   0.09199   0.00000  Uiso   1.00
C81    C     0.47188   0.13254   0.45490   0.00000  Uiso   1.00
C82    C     0.51061   0.20971   0.04598   0.00000  Uiso   1.00
C83    C     0.48958   0.17141   0.47711   0.00000  Uiso   1.00
C84    C     0.49090   0.17201   0.02374   0.00000  Uiso   1.00
C85    C     0.50682   0.20913   0.45274   0.00000  Uiso   1.00
C86    C     0.47345   0.13425   0.04808   0.00000  Uiso   1.00
C87    C     0.44793   0.09997   0.47966   0.00000  Uiso   1.00
C88    C     0.52147   0.25047   0.02133   0.00000  Uiso   1.00
Cu89   Cu    0.50000   0.21355   0.25000   0.00000  Uiso   1.00
Cu90   Cu    0.50000   0.11978   0.25000   0.00000  Uiso   1.00
H91    H     0.52043   0.23522   0.38727   0.00000  Uiso   1.00
H92    H     0.46369   0.10586   0.11379   0.00000  Uiso   1.00
H93    H     0.45462   0.04417   0.19904   0.00000  Uiso   1.00
H94    H     0.54539   0.28916   0.30094   0.00000  Uiso   1.00
H95    H     0.54550   0.04293   0.30082   0.00000  Uiso   1.00
H96    H     0.45466   0.29040   0.19901   0.00000  Uiso   1.00
N97    N     0.50000   0.28402   0.25000   0.00000  Uiso   1.00
N98    N     0.50000   0.04931   0.25000   0.00000  Uiso   1.00
O99    O     0.43988   0.20625   0.25000   0.00000  Uiso   1.00
O100   O     0.56012   0.12709   0.25001   0.00000  Uiso   1.00
O101   O     0.56012   0.20625   0.25001   0.00000  Uiso   1.00
O102   O     0.43988   0.12709   0.25000   0.00000  Uiso   1.00
O103   O     0.49999   0.20627   0.18513   0.00000  Uiso   1.00
O104   O     0.50001   0.12707   0.31487   0.00000  Uiso   1.00
O105   O     0.50001   0.20627   0.31487   0.00000  Uiso   1.00
O106   O     0.49999   0.12707   0.18513   0.00000  Uiso   1.00
Br107  Br    0.47675   0.06562   0.38303   0.00000  Uiso   1.00
Br108  Br    0.56393   0.23783   0.12040   0.00000  Uiso   1.00
Br109  Br    0.40319   0.06489   0.45270   0.00000  Uiso   1.00
Br110  Br    0.52705   0.31109   0.04904   0.00000  Uiso   1.00
Br111  Br    0.42211   0.05028   0.05888   0.00000  Uiso   1.00
Br112  Br    0.54109   0.30366   0.44200   0.00000  Uiso   1.00
Br113  Br    0.38379   0.12080   0.16486   0.00000  Uiso   1.00
Br114  Br    0.61589   0.21214   0.33573   0.00000  Uiso   1.00
Br115  Br    0.61445   0.12014   0.16519   0.00000  Uiso   1.00
Br116  Br    0.38555   0.21177   0.33581   0.00000  Uiso   1.00
C117   C     0.75410   0.16665   0.25004   0.00000  Uiso   1.00
C118   C     0.91254   0.16667   0.25018   0.00000  Uiso   1.00
C119   C     0.78397   0.09925   0.02610   0.00000  Uiso   1.00
C120   C     0.85463   0.24938   0.47480   0.00000  Uiso   1.00
C121   C     0.68786   0.14643   0.21456   0.00000  Uiso   1.00
C122   C     0.97870   0.18671   0.28595   0.00000  Uiso   1.00
C123   C     0.97806   0.14635   0.21461   0.00000  Uiso   1.00
C124   C     0.68854   0.18662   0.28595   0.00000  Uiso   1.00
C125   C     0.95712   0.16665   0.25023   0.00000  Uiso   1.00
C126   C     0.70949   0.16660   0.25017   0.00000  Uiso   1.00
C127   C     0.80813   0.02517   0.22170   0.00000  Uiso   1.00
C128   C     0.85856   0.30817   0.27827   0.00000  Uiso   1.00
C129   C     0.85860   0.02447   0.27822   0.00000  Uiso   1.00
C130   C     0.80815   0.30886   0.22168   0.00000  Uiso   1.00
C131   C     0.83423   0.16702   0.16435   0.00000  Uiso   1.00
C132   C     0.83232   0.16623   0.33589   0.00000  Uiso   1.00
C133   C     0.84134   0.20645   0.40663   0.00000  Uiso   1.00
C134   C     0.81080   0.13359   0.09415   0.00000  Uiso   1.00
C135   C     0.82903   0.16589   0.38460   0.00000  Uiso   1.00
C136   C     0.83300   0.16831   0.11596   0.00000  Uiso   1.00
C137   C     0.81263   0.12749   0.40902   0.00000  Uiso   1.00
C138   C     0.85185   0.20500   0.09199   0.00000  Uiso   1.00
C139   C     0.80522   0.13254   0.45490   0.00000  Uiso   1.00
C140   C     0.84394   0.20971   0.04598   0.00000  Uiso   1.00
C141   C     0.82291   0.17141   0.47711   0.00000  Uiso   1.00
C142   C     0.82423   0.17201   0.02374   0.00000  Uiso   1.00
C143   C     0.84015   0.20913   0.45274   0.00000  Uiso   1.00
C144   C     0.80679   0.13425   0.04808   0.00000  Uiso   1.00
C145   C     0.78126   0.09997   0.47966   0.00000  Uiso   1.00
C146   C     0.85480   0.25047   0.02133   0.00000  Uiso   1.00
Cu147  Cu    0.83333   0.21355   0.25000   0.00000  Uiso   1.00
Cu148  Cu    0.83333   0.11978   0.25000   0.00000  Uiso   1.00
H149   H     0.85377   0.23522   0.38727   0.00000  Uiso   1.00
H150   H     0.79702   0.10586   0.11379   0.00000  Uiso   1.00
H151   H     0.78796   0.04417   0.19904   0.00000  Uiso   1.00
H152   H     0.87873   0.28916   0.30094   0.00000  Uiso   1.00
H153   H     0.87883   0.04293   0.30082   0.00000  Uiso   1.00
H154   H     0.78799   0.29040   0.19901   0.00000  Uiso   1.00
N155   N     0.83333   0.28402   0.25000   0.00000  Uiso   1.00
N156   N     0.83333   0.04931   0.25000   0.00000  Uiso   1.00
O157   O     0.77321   0.20625   0.25000   0.00000  Uiso   1.00
O158   O     0.89345   0.12709   0.25001   0.00000  Uiso   1.00
O159   O     0.89345   0.20625   0.25001   0.00000  Uiso   1.00
O160   O     0.77321   0.12709   0.25000   0.00000  Uiso   1.00
O161   O     0.83332   0.20627   0.18513   0.00000  Uiso   1.00
O162   O     0.83334   0.12707   0.31487   0.00000  Uiso   1.00
O163   O     0.83334   0.20627   0.31487   0.00000  Uiso   1.00
O164   O     0.83332   0.12707   0.18513   0.00000  Uiso   1.00
Br165  Br    0.81008   0.06562   0.38303   0.00000  Uiso   1.00
Br166  Br    0.89726   0.23783   0.12040   0.00000  Uiso   1.00
Br167  Br    0.73652   0.06489   0.45270   0.00000  Uiso   1.00
Br168  Br    0.86038   0.31109   0.04904   0.00000  Uiso   1.00
Br169  Br    0.75544   0.05028   0.05888   0.00000  Uiso   1.00
Br170  Br    0.87442   0.30366   0.44200   0.00000  Uiso   1.00
Br171  Br    0.71713   0.12080   0.16486   0.00000  Uiso   1.00
Br172  Br    0.94923   0.21214   0.33573   0.00000  Uiso   1.00
Br173  Br    0.94779   0.12014   0.16519   0.00000  Uiso   1.00
Br174  Br    0.71889   0.21177   0.33581   0.00000  Uiso   1.00
C175   C     0.08744   0.49998   0.25004   0.00000  Uiso   1.00
C176   C     0.24588   0.50001   0.25018   0.00000  Uiso   1.00
C177   C     0.11730   0.43258   0.02610   0.00000  Uiso   1.00
C178   C     0.18797   0.58271   0.47480   0.00000  Uiso   1.00
C179   C     0.02119   0.47976   0.21456   0.00000  Uiso   1.00
C180   C     0.31204   0.52004   0.28595   0.00000  Uiso   1.00
C181   C     0.31140   0.47969   0.21461   0.00000  Uiso   1.00
C182   C     0.02188   0.51995   0.28595   0.00000  Uiso   1.00
C183   C     0.29045   0.49998   0.25023   0.00000  Uiso   1.00
C184   C     0.04282   0.49993   0.25017   0.00000  Uiso   1.00
C185   C     0.14146   0.35850   0.22170   0.00000  Uiso   1.00
C186   C     0.19189   0.64150   0.27827   0.00000  Uiso   1.00
C187   C     0.19194   0.35780   0.27822   0.00000  Uiso   1.00
C188   C     0.14148   0.64219   0.22168   0.00000  Uiso   1.00
C189   C     0.16756   0.50035   0.16435   0.00000  Uiso   1.00
C190   C     0.16565   0.49956   0.33589   0.00000  Uiso   1.00
C191   C     0.17467   0.53978   0.40663   0.00000  Uiso   1.00
C192   C     0.14413   0.46692   0.09415   0.00000  Uiso   1.00
C193   C     0.16236   0.49922   0.38460   0.00000  Uiso   1.00
C194   C     0.16633   0.50165   0.11596   0.00000  Uiso   1.00
C195   C     0.14597   0.46082   0.40902   0.00000  Uiso   1.00
C196   C     0.18518   0.53833   0.09199   0.00000  Uiso   1.00
C197   C     0.13855   0.46587   0.45490   0.00000  Uiso   1.00
C198   C     0.17727   0.54304   0.04598   0.00000  Uiso   1.00
C199   C     0.15625   0.50474   0.47711   0.00000  Uiso   1.00
C200   C     0.15756   0.50534   0.02374   0.00000  Uiso   1.00
C201   C     0.17348   0.54247   0.45274   0.00000  Uiso   1.00
C202   C     0.14012   0.46758   0.04808   0.00000  Uiso   1.00
C203   C     0.11459   0.43330   0.47966   0.00000  Uiso   1.00
C204   C     0.18814   0.58380   0.02133   0.00000  Uiso   1.00
Cu205  Cu    0.16667   0.54689   0.25000   0.00000  Uiso   1.00
Cu206  Cu    0.16667   0.45311   0.25000   0.00000  Uiso   1.00
H207   H     0.18710   0.56855   0.38727   0.00000  Uiso   1.00
H208   H     0.13036   0.43919   0.11379   0.00000  Uiso   1.00
H209   H     0.12129   0.37751   0.19904   0.00000  Uiso   1.00
H210   H     0.21206   0.62250   0.30094   0.00000  Uiso   1.00
H211   H     0.21216   0.37626   0.30082   0.00000  Uiso   1.00
H212   H     0.12133   0.62373   0.19901   0.00000  Uiso   1.00
N213   N     0.16667   0.61736   0.25000   0.00000  Uiso   1.00
N214   N     0.16667   0.38264   0.25000   0.00000  Uiso   1.00
O215   O     0.10655   0.53958   0.25000   0.00000  Uiso   1.00
O216   O     0.22679   0.46042   0.25001   0.00000  Uiso   1.00
O217   O     0.22679   0.53958   0.25001   0.00000  Uiso   1.00
O218   O     0.10655   0.46042   0.25000   0.00000  Uiso   1.00
O219   O     0.16666   0.53960   0.18513   0.00000  Uiso   1.00
O220   O     0.16668   0.46040   0.31487   0.00000  Uiso   1.00
O221   O     0.16668   0.53960   0.31487   0.00000  Uiso   1.00
O222   O     0.16666   0.46040   0.18513   0.00000  Uiso   1.00
Br223  Br    0.14342   0.39895   0.38303   0.00000  Uiso   1.00
Br224  Br    0.23059   0.57116   0.12040   0.00000  Uiso   1.00
Br225  Br    0.06986   0.39823   0.45270   0.00000  Uiso   1.00
Br226  Br    0.19372   0.64442   0.04904   0.00000  Uiso   1.00
Br227  Br    0.08878   0.38362   0.05888   0.00000  Uiso   1.00
Br228  Br    0.20775   0.63700   0.44200   0.00000  Uiso   1.00
Br229  Br    0.05046   0.45413   0.16486   0.00000  Uiso   1.00
Br230  Br    0.28256   0.54547   0.33573   0.00000  Uiso   1.00
Br231  Br    0.28112   0.45348   0.16519   0.00000  Uiso   1.00
Br232  Br    0.05222   0.54510   0.33581   0.00000  Uiso   1.00
C233   C     0.42077   0.49998   0.25004   0.00000  Uiso   1.00
C234   C     0.57921   0.50001   0.25018   0.00000  Uiso   1.00
C235   C     0.45064   0.43258   0.02610   0.00000  Uiso   1.00
C236   C     0.52130   0.58271   0.47480   0.00000  Uiso   1.00
C237   C     0.35453   0.47976   0.21456   0.00000  Uiso   1.00
C238   C     0.64537   0.52004   0.28595   0.00000  Uiso   1.00
C239   C     0.64473   0.47969   0.21461   0.00000  Uiso   1.00
C240   C     0.35521   0.51995   0.28595   0.00000  Uiso   1.00
C241   C     0.62379   0.49998   0.25023   0.00000  Uiso   1.00
C242   C     0.37616   0.49993   0.25017   0.00000  Uiso   1.00
C243   C     0.47480   0.35850   0.22170   0.00000  Uiso   1.00
C244   C     0.52522   0.64150   0.27827   0.00000  Uiso   1.00
C245   C     0.52527   0.35780   0.27822   0.00000  Uiso   1.00
C246   C     0.47481   0.64219   0.22168   0.00000  Uiso   1.00
C247   C     0.50089   0.50035   0.16435   0.00000  Uiso   1.00
C248   C     0.49898   0.49956   0.33589   0.00000  Uiso   1.00
C249   C     0.50801   0.53978   0.40663   0.00000  Uiso   1.00
C250   C     0.47747   0.46692   0.09415   0.00000  Uiso   1.00
C251   C     0.49569   0.49922   0.38460   0.00000  Uiso   1.00
C252   C     0.49966   0.50165   0.11596   0.00000  Uiso   1.00
C253   C     0.47930   0.46082   0.40902   0.00000  Uiso   1.00
C254   C     0.51852   0.53833   0.09199   0.00000  Uiso   1.00
C255   C     0.47188   0.46587   0.45490   0.00000  Uiso   1.00
C256   C     0.51061   0.54304   0.04598   0.00000  Uiso   1.00
C257   C     0.48958   0.50474   0.47711   0.00000  Uiso   1.00
C258   C     0.49090   0.50534   0.02374   0.00000  Uiso   1.00
C259   C     0.50682   0.54247   0.45274   0.00000  Uiso   1.00
C260   C     0.47345   0.46758   0.04808   0.00000  Uiso   1.00
C261   C     0.44793   0.43330   0.47966   0.00000  Uiso   1.00
C262   C     0.52147   0.58380   0.02133   0.00000  Uiso   1.00
Cu263  Cu    0.50000   0.54689   0.25000   0.00000  Uiso   1.00
Cu264  Cu    0.50000   0.45311   0.25000   0.00000  Uiso   1.00
H265   H     0.52043   0.56855   0.38727   0.00000  Uiso   1.00
H266   H     0.46369   0.43919   0.11379   0.00000  Uiso   1.00
H267   H     0.45462   0.37751   0.19904   0.00000  Uiso   1.00
H268   H     0.54539   0.62250   0.30094   0.00000  Uiso   1.00
H269   H     0.54550   0.37626   0.30082   0.00000  Uiso   1.00
H270   H     0.45466   0.62373   0.19901   0.00000  Uiso   1.00
N271   N     0.50000   0.61736   0.25000   0.00000  Uiso   1.00
N272   N     0.50000   0.38264   0.25000   0.00000  Uiso   1.00
O273   O     0.43988   0.53958   0.25000   0.00000  Uiso   1.00
O274   O     0.56012   0.46042   0.25001   0.00000  Uiso   1.00
O275   O     0.56012   0.53958   0.25001   0.00000  Uiso   1.00
O276   O     0.43988   0.46042   0.25000   0.00000  Uiso   1.00
O277   O     0.49999   0.53960   0.18513   0.00000  Uiso   1.00
O278   O     0.50001   0.46040   0.31487   0.00000  Uiso   1.00
O279   O     0.50001   0.53960   0.31487   0.00000  Uiso   1.00
O280   O     0.49999   0.46040   0.18513   0.00000  Uiso   1.00
Br281  Br    0.47675   0.39895   0.38303   0.00000  Uiso   1.00
Br282  Br    0.56393   0.57116   0.12040   0.00000  Uiso   1.00
Br283  Br    0.40319   0.39823   0.45270   0.00000  Uiso   1.00
Br284  Br    0.52705   0.64442   0.04904   0.00000  Uiso   1.00
Br285  Br    0.42211   0.38362   0.05888   0.00000  Uiso   1.00
Br286  Br    0.54109   0.63700   0.44200   0.00000  Uiso   1.00
Br287  Br    0.38379   0.45413   0.16486   0.00000  Uiso   1.00
Br288  Br    0.61589   0.54547   0.33573   0.00000  Uiso   1.00
Br289  Br    0.61445   0.45348   0.16519   0.00000  Uiso   1.00
Br290  Br    0.38555   0.54510   0.33581   0.00000  Uiso   1.00
C291   C     0.75410   0.49998   0.25004   0.00000  Uiso   1.00
C292   C     0.91254   0.50001   0.25018   0.00000  Uiso   1.00
C293   C     0.78397   0.43258   0.02610   0.00000  Uiso   1.00
C294   C     0.85463   0.58271   0.47480   0.00000  Uiso   1.00
C295   C     0.68786   0.47976   0.21456   0.00000  Uiso   1.00
C296   C     0.97870   0.52004   0.28595   0.00000  Uiso   1.00
C297   C     0.97806   0.47969   0.21461   0.00000  Uiso   1.00
C298   C     0.68854   0.51995   0.28595   0.00000  Uiso   1.00
C299   C     0.95712   0.49998   0.25023   0.00000  Uiso   1.00
C300   C     0.70949   0.49993   0.25017   0.00000  Uiso   1.00
C301   C     0.80813   0.35850   0.22170   0.00000  Uiso   1.00
C302   C     0.85856   0.64150   0.27827   0.00000  Uiso   1.00
C303   C     0.85860   0.35780   0.27822   0.00000  Uiso   1.00
C304   C     0.80815   0.64219   0.22168   0.00000  Uiso   1.00
C305   C     0.83423   0.50035   0.16435   0.00000  Uiso   1.00
C306   C     0.83232   0.49956   0.33589   0.00000  Uiso   1.00
C307   C     0.84134   0.53978   0.40663   0.00000  Uiso   1.00
C308   C     0.81080   0.46692   0.09415   0.00000  Uiso   1.00
C309   C     0.82903   0.49922   0.38460   0.00000  Uiso   1.00
C310   C     0.83300   0.50165   0.11596   0.00000  Uiso   1.00
C311   C     0.81263   0.46082   0.40902   0.00000  Uiso   1.00
C312   C     0.85185   0.53833   0.09199   0.00000  Uiso   1.00
C313   C     0.80522   0.46587   0.45490   0.00000  Uiso   1.00
C314   C     0.84394   0.54304   0.04598   0.00000  Uiso   1.00
C315   C     0.82291   0.50474   0.47711   0.00000  Uiso   1.00
C316   C     0.82423   0.50534   0.02374   0.00000  Uiso   1.00
C317   C     0.84015   0.54247   0.45274   0.00000  Uiso   1.00
C318   C     0.80679   0.46758   0.04808   0.00000  Uiso   1.00
C319   C     0.78126   0.43330   0.47966   0.00000  Uiso   1.00
C320   C     0.85480   0.58380   0.02133   0.00000  Uiso   1.00
Cu321  Cu    0.83333   0.54689   0.25000   0.00000  Uiso   1.00
Cu322  Cu    0.83333   0.45311   0.25000   0.00000  Uiso   1.00
H323   H     0.85377   0.56855   0.38727   0.00000  Uiso   1.00
H324   H     0.79702   0.43919   0.11379   0.00000  Uiso   1.00
H325   H     0.78796   0.37751   0.19904   0.00000  Uiso   1.00
H326   H     0.87873   0.62250   0.30094   0.00000  Uiso   1.00
H327   H     0.87883   0.37626   0.30082   0.00000  Uiso   1.00
H328   H     0.78799   0.62373   0.19901   0.00000  Uiso   1.00
N329   N     0.83333   0.61736   0.25000   0.00000  Uiso   1.00
N330   N     0.83333   0.38264   0.25000   0.00000  Uiso   1.00
O331   O     0.77321   0.53958   0.25000   0.00000  Uiso   1.00
O332   O     0.89345   0.46042   0.25001   0.00000  Uiso   1.00
O333   O     0.89345   0.53958   0.25001   0.00000  Uiso   1.00
O334   O     0.77321   0.46042   0.25000   0.00000  Uiso   1.00
O335   O     0.83332   0.53960   0.18513   0.00000  Uiso   1.00
O336   O     0.83334   0.46040   0.31487   0.00000  Uiso   1.00
O337   O     0.83334   0.53960   0.31487   0.00000  Uiso   1.00
O338   O     0.83332   0.46040   0.18513   0.00000  Uiso   1.00
Br339  Br    0.81008   0.39895   0.38303   0.00000  Uiso   1.00
Br340  Br    0.89726   0.57116   0.12040   0.00000  Uiso   1.00
Br341  Br    0.73652   0.39823   0.45270   0.00000  Uiso   1.00
Br342  Br    0.86038   0.64442   0.04904   0.00000  Uiso   1.00
Br343  Br    0.75544   0.38362   0.05888   0.00000  Uiso   1.00
Br344  Br    0.87442   0.63700   0.44200   0.00000  Uiso   1.00
Br345  Br    0.71713   0.45413   0.16486   0.00000  Uiso   1.00
Br346  Br    0.94923   0.54547   0.33573   0.00000  Uiso   1.00
Br347  Br    0.94779   0.45348   0.16519   0.00000  Uiso   1.00
Br348  Br    0.71889   0.54510   0.33581   0.00000  Uiso   1.00
C349   C     0.08744   0.83332   0.25004   0.00000  Uiso   1.00
C350   C     0.24588   0.83334   0.25018   0.00000  Uiso   1.00
C351   C     0.11730   0.76591   0.02610   0.00000  Uiso   1.00
C352   C     0.18797   0.91604   0.47480   0.00000  Uiso   1.00
C353   C     0.02119   0.81309   0.21456   0.00000  Uiso   1.00
C354   C     0.31204   0.85338   0.28595   0.00000  Uiso   1.00
C355   C     0.31140   0.81302   0.21461   0.00000  Uiso   1.00
C356   C     0.02188   0.85328   0.28595   0.00000  Uiso   1.00
C357   C     0.29045   0.83332   0.25023   0.00000  Uiso   1.00
C358   C     0.04282   0.83327   0.25017   0.00000  Uiso   1.00
C359   C     0.14146   0.69183   0.22170   0.00000  Uiso   1.00
C360   C     0.19189   0.97483   0.27827   0.00000  Uiso   1.00
C361   C     0.19194   0.69113   0.27822   0.00000  Uiso   1.00
C362   C     0.14148   0.97553   0.22168   0.00000  Uiso   1.00
C363   C     0.16756   0.83369   0.16435   0.00000  Uiso   1.00
C364   C     0.16565   0.83289   0.33589   0.00000  Uiso   1.00
C365   C     0.17467   0.87311   0.40663   0.00000  Uiso   1.00
C366   C     0.14413   0.80025   0.09415   0.00000  Uiso   1.00
C367   C     0.16236   0.83256   0.38460   0.00000  Uiso   1.00
C368   C     0.16633   0.83498   0.11596   0.00000  Uiso   1.00
C369   C     0.14597   0.79415   0.40902   0.00000  Uiso   1.00
C370   C     0.18518   0.87166   0.09199   0.00000  Uiso   1.00
C371   C     0.13855   0.79920   0.45490   0.00000  Uiso   1.00
C372   C     0.17727   0.87638   0.04598   0.00000  Uiso   1.00
C373   C     0.15625   0.83807   0.47711   0.00000  Uiso   1.00
C374   C     0.15756   0.83868   0.02374   0.00000  Uiso   1.00
C375   C     0.17348   0.87580   0.45274   0.00000  Uiso   1.00
C376   C     0.14012   0.80092   0.04808   0.00000  Uiso   1.00
C377   C     0.11459   0.76663   0.47966   0.00000  Uiso   1.00
C378   C     0.18814   0.91714   0.02133   0.00000  Uiso   1.00
Cu379  Cu    0.16667   0.88022   0.25000   0.00000  Uiso   1.00
Cu380  Cu    0.16667   0.78645   0.25000   0.00000  Uiso   1.00
H381   H     0.18710   0.90188   0.38727   0.00000  Uiso   1.00
H382   H     0.13036   0.77252   0.11379   0.00000  Uiso   1.00
H383   H     0.12129   0.71084   0.19904   0.00000  Uiso   1.00
H384   H     0.21206   0.95583   0.30094   0.00000  Uiso   1.00
H385   H     0.21216   0.70959   0.30082   0.00000  Uiso   1.00
H386   H     0.12133   0.95706   0.19901   0.00000  Uiso   1.00
N387   N     0.16667   0.95069   0.25000   0.00000  Uiso   1.00
N388   N     0.16667   0.71598   0.25000   0.00000  Uiso   1.00
O389   O     0.10655   0.87291   0.25000   0.00000  Uiso   1.00
O390   O     0.22679   0.79375   0.25001   0.00000  Uiso   1.00
O391   O     0.22679   0.87291   0.25001   0.00000  Uiso   1.00
O392   O     0.10655   0.79375   0.25000   0.00000  Uiso   1.00
O393   O     0.16666   0.87293   0.18513   0.00000  Uiso   1.00
O394   O     0.16668   0.79373   0.31487   0.00000  Uiso   1.00
O395   O     0.16668   0.87293   0.31487   0.00000  Uiso   1.00
O396   O     0.16666   0.79373   0.18513   0.00000  Uiso   1.00
Br397  Br    0.14342   0.73229   0.38303   0.00000  Uiso   1.00
Br398  Br    0.23059   0.90449   0.12040   0.00000  Uiso   1.00
Br399  Br    0.06986   0.73156   0.45270   0.00000  Uiso   1.00
Br400  Br    0.19372   0.97775   0.04904   0.00000  Uiso   1.00
Br401  Br    0.08878   0.71695   0.05888   0.00000  Uiso   1.00
Br402  Br    0.20775   0.97033   0.44200   0.00000  Uiso   1.00
Br403  Br    0.05046   0.78746   0.16486   0.00000  Uiso   1.00
Br404  Br    0.28256   0.87880   0.33573   0.00000  Uiso   1.00
Br405  Br    0.28112   0.78681   0.16519   0.00000  Uiso   1.00
Br406  Br    0.05222   0.87843   0.33581   0.00000  Uiso   1.00
C407   C     0.42077   0.83332   0.25004   0.00000  Uiso   1.00
C408   C     0.57921   0.83334   0.25018   0.00000  Uiso   1.00
C409   C     0.45064   0.76591   0.02610   0.00000  Uiso   1.00
C410   C     0.52130   0.91604   0.47480   0.00000  Uiso   1.00
C411   C     0.35453   0.81309   0.21456   0.00000  Uiso   1.00
C412   C     0.64537   0.85338   0.28595   0.00000  Uiso   1.00
C413   C     0.64473   0.81302   0.21461   0.00000  Uiso   1.00
C414   C     0.35521   0.85328   0.28595   0.00000  Uiso   1.00
C415   C     0.62379   0.83332   0.25023   0.00000  Uiso   1.00
C416   C     0.37616   0.83327   0.25017   0.00000  Uiso   1.00
C417   C     0.47480   0.69183   0.22170   0.00000  Uiso   1.00
C418   C     0.52522   0.97483   0.27827   0.00000  Uiso   1.00
C419   C     0.52527   0.69113   0.27822   0.00000  Uiso   1.00
C420   C     0.47481   0.97553   0.22168   0.00000  Uiso   1.00
C421   C     0.50089   0.83369   0.16435   0.00000  Uiso   1.00
C422   C     0.49898   0.83289   0.33589   0.00000  Uiso   1.00
C423   C     0.50801   0.87311   0.40663   0.00000  Uiso   1.00
C424   C     0.47747   0.80025   0.09415   0.00000  Uiso   1.00
C425   C     0.49569   0.83256   0.38460   0.00000  Uiso   1.00
C426   C     0.49966   0.83498   0.11596   0.00000  Uiso   1.00
C427   C     0.47930   0.79415   0.40902   0.00000  Uiso   1.00
C428   C     0.51852   0.87166   0.09199   0.00000  Uiso   1.00
C429   C     0.47188   0.79920   0.45490   0.00000  Uiso   1.00
C430   C     0.51061   0.87638   0.04598   0.00000  Uiso   1.00
C431   C     0.48958   0.83807   0.47711   0.00000  Uiso   1.00
C432   C     0.49090   0.83868   0.02374   0.00000  Uiso   1.00
C433   C     0.50682   0.87580   0.45274   0.00000  Uiso   1.00
C434   C     0.47345   0.80092   0.04808   0.00000  Uiso   1.00
C435   C     0.44793   0.76663   0.47966   0.00000  Uiso   1.00
C436   C     0.52147   0.91714   0.02133   0.00000  Uiso   1.00
Cu437  Cu    0.50000   0.88022   0.25000   0.00000  Uiso   1.00
Cu438  Cu    0.50000   0.78645   0.25000   0.00000  Uiso   1.00
H439   H     0.52043   0.90188   0.38727   0.00000  Uiso   1.00
H440   H     0.46369   0.77252   0.11379   0.00000  Uiso   1.00
H441   H     0.45462   0.71084   0.19904   0.00000  Uiso   1.00
H442   H     0.54539   0.95583   0.30094   0.00000  Uiso   1.00
H443   H     0.54550   0.70959   0.30082   0.00000  Uiso   1.00
H444   H     0.45466   0.95706   0.19901   0.00000  Uiso   1.00
N445   N     0.50000   0.95069   0.25000   0.00000  Uiso   1.00
N446   N     0.50000   0.71598   0.25000   0.00000  Uiso   1.00
O447   O     0.43988   0.87291   0.25000   0.00000  Uiso   1.00
O448   O     0.56012   0.79375   0.25001   0.00000  Uiso   1.00
O449   O     0.56012   0.87291   0.25001   0.00000  Uiso   1.00
O450   O     0.43988   0.79375   0.25000   0.00000  Uiso   1.00
O451   O     0.49999   0.87293   0.18513   0.00000  Uiso   1.00
O452   O     0.50001   0.79373   0.31487   0.00000  Uiso   1.00
O453   O     0.50001   0.87293   0.31487   0.00000  Uiso   1.00
O454   O     0.49999   0.79373   0.18513   0.00000  Uiso   1.00
Br455  Br    0.47675   0.73229   0.38303   0.00000  Uiso   1.00
Br456  Br    0.56393   0.90449   0.12040   0.00000  Uiso   1.00
Br457  Br    0.40319   0.73156   0.45270   0.00000  Uiso   1.00
Br458  Br    0.52705   0.97775   0.04904   0.00000  Uiso   1.00
Br459  Br    0.42211   0.71695   0.05888   0.00000  Uiso   1.00
Br460  Br    0.54109   0.97033   0.44200   0.00000  Uiso   1.00
Br461  Br    0.38379   0.78746   0.16486   0.00000  Uiso   1.00
Br462  Br    0.61589   0.87880   0.33573   0.00000  Uiso   1.00
Br463  Br    0.61445   0.78681   0.16519   0.00000  Uiso   1.00
Br464  Br    0.38555   0.87843   0.33581   0.00000  Uiso   1.00
C465   C     0.75410   0.83332   0.25004   0.00000  Uiso   1.00
C466   C     0.91254   0.83334   0.25018   0.00000  Uiso   1.00
C467   C     0.78397   0.76591   0.02610   0.00000  Uiso   1.00
C468   C     0.85463   0.91604   0.47480   0.00000  Uiso   1.00
C469   C     0.68786   0.81309   0.21456   0.00000  Uiso   1.00
C470   C     0.97870   0.85338   0.28595   0.00000  Uiso   1.00
C471   C     0.97806   0.81302   0.21461   0.00000  Uiso   1.00
C472   C     0.68854   0.85328   0.28595   0.00000  Uiso   1.00
C473   C     0.95712   0.83332   0.25023   0.00000  Uiso   1.00
C474   C     0.70949   0.83327   0.25017   0.00000  Uiso   1.00
C475   C     0.80813   0.69183   0.22170   0.00000  Uiso   1.00
C476   C     0.85856   0.97483   0.27827   0.00000  Uiso   1.00
C477   C     0.85860   0.69113   0.27822   0.00000  Uiso   1.00
C478   C     0.80815   0.97553   0.22168   0.00000  Uiso   1.00
C479   C     0.83423   0.83369   0.16435   0.00000  Uiso   1.00
C480   C     0.83232   0.83289   0.33589   0.00000  Uiso   1.00
C481   C     0.84134   0.87311   0.40663   0.00000  Uiso   1.00
C482   C     0.81080   0.80025   0.09415   0.00000  Uiso   1.00
C483   C     0.82903   0.83256   0.38460   0.00000  Uiso   1.00
C484   C     0.83300   0.83498   0.11596   0.00000  Uiso   1.00
C485   C     0.81263   0.79415   0.40902   0.00000  Uiso   1.00
C486   C     0.85185   0.87166   0.09199   0.00000  Uiso   1.00
C487   C     0.80522   0.79920   0.45490   0.00000  Uiso   1.00
C488   C     0.84394   0.87638   0.04598   0.00000  Uiso   1.00
C489   C     0.82291   0.83807   0.47711   0.00000  Uiso   1.00
C490   C     0.82423   0.83868   0.02374   0.00000  Uiso   1.00
C491   C     0.84015   0.87580   0.45274   0.00000  Uiso   1.00
C492   C     0.80679   0.80092   0.04808   0.00000  Uiso   1.00
C493   C     0.78126   0.76663   0.47966   0.00000  Uiso   1.00
C494   C     0.85480   0.91714   0.02133   0.00000  Uiso   1.00
Cu495  Cu    0.83333   0.88022   0.25000   0.00000  Uiso   1.00
Cu496  Cu    0.83333   0.78645   0.25000   0.00000  Uiso   1.00
H497   H     0.85377   0.90188   0.38727   0.00000  Uiso   1.00
H498   H     0.79702   0.77252   0.11379   0.00000  Uiso   1.00
H499   H     0.78796   0.71084   0.19904   0.00000  Uiso   1.00
H500   H     0.87873   0.95583   0.30094   0.00000  Uiso   1.00
H501   H     0.87883   0.70959   0.30082   0.00000  Uiso   1.00
H502   H     0.78799   0.95706   0.19901   0.00000  Uiso   1.00
N503   N     0.83333   0.95069   0.25000   0.00000  Uiso   1.00
N504   N     0.83333   0.71598   0.25000   0.00000  Uiso   1.00
O505   O     0.77321   0.87291   0.25000   0.00000  Uiso   1.00
O506   O     0.89345   0.79375   0.25001   0.00000  Uiso   1.00
O507   O     0.89345   0.87291   0.25001   0.00000  Uiso   1.00
O508   O     0.77321   0.79375   0.25000   0.00000  Uiso   1.00
O509   O     0.83332   0.87293   0.18513   0.00000  Uiso   1.00
O510   O     0.83334   0.79373   0.31487   0.00000  Uiso   1.00
O511   O     0.83334   0.87293   0.31487   0.00000  Uiso   1.00
O512   O     0.83332   0.79373   0.18513   0.00000  Uiso   1.00
Br513  Br    0.81008   0.73229   0.38303   0.00000  Uiso   1.00
Br514  Br    0.89726   0.90449   0.12040   0.00000  Uiso   1.00
Br515  Br    0.73652   0.73156   0.45270   0.00000  Uiso   1.00
Br516  Br    0.86038   0.97775   0.04904   0.00000  Uiso   1.00
Br517  Br    0.75544   0.71695   0.05888   0.00000  Uiso   1.00
Br518  Br    0.87442   0.97033   0.44200   0.00000  Uiso   1.00
Br519  Br    0.71713   0.78746   0.16486   0.00000  Uiso   1.00
Br520  Br    0.94923   0.87880   0.33573   0.00000  Uiso   1.00
Br521  Br    0.94779   0.78681   0.16519   0.00000  Uiso   1.00
Br522  Br    0.71889   0.87843   0.33581   0.00000  Uiso   1.00
C523   C     0.08744   0.16665   0.75004   0.00000  Uiso   1.00
C524   C     0.24588   0.16667   0.75018   0.00000  Uiso   1.00
C525   C     0.11730   0.09925   0.52610   0.00000  Uiso   1.00
C526   C     0.18797   0.24938   0.97480   0.00000  Uiso   1.00
C527   C     0.02119   0.14643   0.71456   0.00000  Uiso   1.00
C528   C     0.31204   0.18671   0.78595   0.00000  Uiso   1.00
C529   C     0.31140   0.14635   0.71461   0.00000  Uiso   1.00
C530   C     0.02188   0.18662   0.78595   0.00000  Uiso   1.00
C531   C     0.29045   0.16665   0.75023   0.00000  Uiso   1.00
C532   C     0.04282   0.16660   0.75017   0.00000  Uiso   1.00
C533   C     0.14146   0.02517   0.72170   0.00000  Uiso   1.00
C534   C     0.19189   0.30817   0.77827   0.00000  Uiso   1.00
C535   C     0.19194   0.02447   0.77822   0.00000  Uiso   1.00
C536   C     0.14148   0.30886   0.72168   0.00000  Uiso   1.00
C537   C     0.16756   0.16702   0.66435   0.00000  Uiso   1.00
C538   C     0.16565   0.16623   0.83589   0.00000  Uiso   1.00
C539   C     0.17467   0.20645   0.90663   0.00000  Uiso   1.00
C540   C     0.14413   0.13359   0.59415   0.00000  Uiso   1.00
C541   C     0.16236   0.16589   0.88460   0.00000  Uiso   1.00
C542   C     0.16633   0.16831   0.61596   0.00000  Uiso   1.00
C543   C     0.14597   0.12749   0.90902   0.00000  Uiso   1.00
C544   C     0.18518   0.20500   0.59199   0.00000  Uiso   1.00
C545   C     0.13855   0.13254   0.95490   0.00000  Uiso   1.00
C546   C     0.17727   0.20971   0.54598   0.00000  Uiso   1.00
C547   C     0.15625   0.17141   0.97711   0.00000  Uiso   1.00
C548   C     0.15756   0.17201   0.52374   0.00000  Uiso   1.00
C549   C     0.17348   0.20913   0.95274   0.00000  Uiso   1.00
C550   C     0.14012   0.13425   0.54808   0.00000  Uiso   1.00
C551   C     0.11459   0.09997   0.97966   0.00000  Uiso   1.00
C552   C     0.18814   0.25047   0.52133   0.00000  Uiso   1.00
Cu553  Cu    0.16667   0.21355   0.75000   0.00000  Uiso   1.00
Cu554  Cu    0.16667   0.11978   0.75000   0.00000  Uiso   1.00
H555   H     0.18710   0.23522   0.88727   0.00000  Uiso   1.00
H556   H     0.13036   0.10586   0.61379   0.00000  Uiso   1.00
H557   H     0.12129   0.04417   0.69904   0.00000  Uiso   1.00
H558   H     0.21206   0.28916   0.80094   0.00000  Uiso   1.00
H559   H     0.21216   0.04293   0.80082   0.00000  Uiso   1.00
H560   H     0.12133   0.29040   0.69901   0.00000  Uiso   1.00
N561   N     0.16667   0.28402   0.75000   0.00000  Uiso   1.00
N562   N     0.16667   0.04931   0.75000   0.00000  Uiso   1.00
O563   O     0.10655   0.20625   0.75000   0.00000  Uiso   1.00
O564   O     0.22679   0.12709   0.75001   0.00000  Uiso   1.00
O565   O     0.22679   0.20625   0.75001   0.00000  Uiso   1.00
O566   O     0.10655   0.12709   0.75000   0.00000  Uiso   1.00
O567   O     0.16666   0.20627   0.68513   0.00000  Uiso   1.00
O568   O     0.16668   0.12707   0.81487   0.00000  Uiso   1.00
O569   O     0.16668   0.20627   0.81487   0.00000  Uiso   1.00
O570   O     0.16666   0.12707   0.68513   0.00000  Uiso   1.00
Br571  Br    0.14342   0.06562   0.88303   0.00000  Uiso   1.00
Br572  Br    0.23059   0.23783   0.62040   0.00000  Uiso   1.00
Br573  Br    0.06986   0.06489   0.95270   0.00000  Uiso   1.00
Br574  Br    0.19372   0.31109   0.54904   0.00000  Uiso   1.00
Br575  Br    0.08878   0.05028   0.55888   0.00000  Uiso   1.00
Br576  Br    0.20775   0.30366   0.94200   0.00000  Uiso   1.00
Br577  Br    0.05046   0.12080   0.66486   0.00000  Uiso   1.00
Br578  Br    0.28256   0.21214   0.83573   0.00000  Uiso   1.00
Br579  Br    0.28112   0.12014   0.66519   0.00000  Uiso   1.00
Br580  Br    0.05222   0.21177   0.83581   0.00000  Uiso   1.00
C581   C     0.42077   0.16665   0.75004   0.00000  Uiso   1.00
C582   C     0.57921   0.16667   0.75018   0.00000  Uiso   1.00
C583   C     0.45064   0.09925   0.52610   0.00000  Uiso   1.00
C584   C     0.52130   0.24938   0.97480   0.00000  Uiso   1.00
C585   C     0.35453   0.14643   0.71456   0.00000  Uiso   1.00
C586   C     0.64537   0.18671   0.78595   0.00000  Uiso   1.00
C587   C     0.64473   0.14635   0.71461   0.00000  Uiso   1.00
C588   C     0.35521   0.18662   0.78595   0.00000  Uiso   1.00
C589   C     0.62379   0.16665   0.75023   0.00000  Uiso   1.00
C590   C     0.37616   0.16660   0.75017   0.00000  Uiso   1.00
C591   C     0.47480   0.02517   0.72170   0.00000  Uiso   1.00
C592   C     0.52522   0.30817   0.77827   0.00000  Uiso   1.00
C593   C     0.52527   0.02447   0.77822   0.00000  Uiso   1.00
C594   C     0.47481   0.30886   0.72168   0.00000  Uiso   1.00
C595   C     0.50089   0.16702   0.66435   0.00000  Uiso   1.00
C596   C     0.49898   0.16623   0.83589   0.00000  Uiso   1.00
C597   C     0.50801   0.20645   0.90663   0.00000  Uiso   1.00
C598   C     0.47747   0.13359   0.59415   0.00000  Uiso   1.00
C599   C     0.49569   0.16589   0.88460   0.00000  Uiso   1.00
C600   C     0.49966   0.16831   0.61596   0.00000  Uiso   1.00
C601   C     0.47930   0.12749   0.90902   0.00000  Uiso   1.00
C602   C     0.51852   0.20500   0.59199   0.00000  Uiso   1.00
C603   C     0.47188   0.13254   0.95490   0.00000  Uiso   1.00
C604   C     0.51061   0.20971   0.54598   0.00000  Uiso   1.00
C605   C     0.48958   0.17141   0.97711   0.00000  Uiso   1.00
C606   C     0.49090   0.17201   0.52374   0.00000  Uiso   1.00
C607   C     0.50682   0.20913   0.95274   0.00000  Uiso   1.00
C608   C     0.47345   0.13425   0.54808   0.00000  Uiso   1.00
C609   C     0.44793   0.09997   0.97966   0.00000  Uiso   1.00
C610   C     0.52147   0.25047   0.52133   0.00000  Uiso   1.00
Cu611  Cu    0.50000   0.21355   0.75000   0.00000  Uiso   1.00
Cu612  Cu    0.50000   0.11978   0.75000   0.00000  Uiso   1.00
H613   H     0.52043   0.23522   0.88727   0.00000  Uiso   1.00
H614   H     0.46369   0.10586   0.61379   0.00000  Uiso   1.00
H615   H     0.45462   0.04417   0.69904   0.00000  Uiso   1.00
H616   H     0.54539   0.28916   0.80094   0.00000  Uiso   1.00
H617   H     0.54550   0.04293   0.80082   0.00000  Uiso   1.00
H618   H     0.45466   0.29040   0.69901   0.00000  Uiso   1.00
N619   N     0.50000   0.28402   0.75000   0.00000  Uiso   1.00
N620   N     0.50000   0.04931   0.75000   0.00000  Uiso   1.00
O621   O     0.43988   0.20625   0.75000   0.00000  Uiso   1.00
O622   O     0.56012   0.12709   0.75001   0.00000  Uiso   1.00
O623   O     0.56012   0.20625   0.75001   0.00000  Uiso   1.00
O624   O     0.43988   0.12709   0.75000   0.00000  Uiso   1.00
O625   O     0.49999   0.20627   0.68513   0.00000  Uiso   1.00
O626   O     0.50001   0.12707   0.81487   0.00000  Uiso   1.00
O627   O     0.50001   0.20627   0.81487   0.00000  Uiso   1.00
O628   O     0.49999   0.12707   0.68513   0.00000  Uiso   1.00
Br629  Br    0.47675   0.06562   0.88303   0.00000  Uiso   1.00
Br630  Br    0.56393   0.23783   0.62040   0.00000  Uiso   1.00
Br631  Br    0.40319   0.06489   0.95270   0.00000  Uiso   1.00
Br632  Br    0.52705   0.31109   0.54904   0.00000  Uiso   1.00
Br633  Br    0.42211   0.05028   0.55888   0.00000  Uiso   1.00
Br634  Br    0.54109   0.30366   0.94200   0.00000  Uiso   1.00
Br635  Br    0.38379   0.12080   0.66486   0.00000  Uiso   1.00
Br636  Br    0.61589   0.21214   0.83573   0.00000  Uiso   1.00
Br637  Br    0.61445   0.12014   0.66519   0.00000  Uiso   1.00
Br638  Br    0.38555   0.21177   0.83581   0.00000  Uiso   1.00
C639   C     0.75410   0.16665   0.75004   0.00000  Uiso   1.00
C640   C     0.91254   0.16667   0.75018   0.00000  Uiso   1.00
C641   C     0.78397   0.09925   0.52610   0.00000  Uiso   1.00
C642   C     0.85463   0.24938   0.97480   0.00000  Uiso   1.00
C643   C     0.68786   0.14643   0.71456   0.00000  Uiso   1.00
C644   C     0.97870   0.18671   0.78595   0.00000  Uiso   1.00
C645   C     0.97806   0.14635   0.71461   0.00000  Uiso   1.00
C646   C     0.68854   0.18662   0.78595   0.00000  Uiso   1.00
C647   C     0.95712   0.16665   0.75023   0.00000  Uiso   1.00
C648   C     0.70949   0.16660   0.75017   0.00000  Uiso   1.00
C649   C     0.80813   0.02517   0.72170   0.00000  Uiso   1.00
C650   C     0.85856   0.30817   0.77827   0.00000  Uiso   1.00
C651   C     0.85860   0.02447   0.77822   0.00000  Uiso   1.00
C652   C     0.80815   0.30886   0.72168   0.00000  Uiso   1.00
C653   C     0.83423   0.16702   0.66435   0.00000  Uiso   1.00
C654   C     0.83232   0.16623   0.83589   0.00000  Uiso   1.00
C655   C     0.84134   0.20645   0.90663   0.00000  Uiso   1.00
C656   C     0.81080   0.13359   0.59415   0.00000  Uiso   1.00
C657   C     0.82903   0.16589   0.88460   0.00000  Uiso   1.00
C658   C     0.83300   0.16831   0.61596   0.00000  Uiso   1.00
C659   C     0.81263   0.12749   0.90902   0.00000  Uiso   1.00
C660   C     0.85185   0.20500   0.59199   0.00000  Uiso   1.00
C661   C     0.80522   0.13254   0.95490   0.00000  Uiso   1.00
C662   C     0.84394   0.20971   0.54598   0.00000  Uiso   1.00
C663   C     0.82291   0.17141   0.97711   0.00000  Uiso   1.00
C664   C     0.82423   0.17201   0.52374   0.00000  Uiso   1.00
C665   C     0.84015   0.20913   0.95274   0.00000  Uiso   1.00
C666   C     0.80679   0.13425   0.54808   0.00000  Uiso   1.00
C667   C     0.78126   0.09997   0.97966   0.00000  Uiso   1.00
C668   C     0.85480   0.25047   0.52133   0.00000  Uiso   1.00
Cu669  Cu    0.83333   0.21355   0.75000   0.00000  Uiso   1.00
Cu670  Cu    0.83333   0.11978   0.75000   0.00000  Uiso   1.00
H671   H     0.85377   0.23522   0.88727   0.00000  Uiso   1.00
H672   H     0.79702   0.10586   0.61379   0.00000  Uiso   1.00
H673   H     0.78796   0.04417   0.69904   0.00000  Uiso   1.00
H674   H     0.87873   0.28916   0.80094   0.00000  Uiso   1.00
H675   H     0.87883   0.04293   0.80082   0.00000  Uiso   1.00
H676   H     0.78799   0.29040   0.69901   0.00000  Uiso   1.00
N677   N     0.83333   0.28402   0.75000   0.00000  Uiso   1.00
N678   N     0.83333   0.04931   0.75000   0.00000  Uiso   1.00
O679   O     0.77321   0.20625   0.75000   0.00000  Uiso   1.00
O680   O     0.89345   0.12709   0.75001   0.00000  Uiso   1.00
O681   O     0.89345   0.20625   0.75001   0.00000  Uiso   1.00
O682   O     0.77321   0.12709   0.75000   0.00000  Uiso   1.00
O683   O     0.83332   0.20627   0.68513   0.00000  Uiso   1.00
O684   O     0.83334   0.12707   0.81487   0.00000  Uiso   1.00
O685   O     0.83334   0.20627   0.81487   0.00000  Uiso   1.00
O686   O     0.83332   0.12707   0.68513   0.00000  Uiso   1.00
Br687  Br    0.81008   0.06562   0.88303   0.00000  Uiso   1.00
Br688  Br    0.89726   0.23783   0.62040   0.00000  Uiso   1.00
Br689  Br    0.73652   0.06489   0.95270   0.00000  Uiso   1.00
Br690  Br    0.86038   0.31109   0.54904   0.00000  Uiso   1.00
Br691  Br    0.75544   0.05028   0.55888   0.00000  Uiso   1.00
Br692  Br    0.87442   0.30366   0.94200   0.00000  Uiso   1.00
Br693  Br    0.71713   0.12080   0.66486   0.00000  Uiso   1.00
Br694  Br    0.94923   0.21214   0.83573   0.00000  Uiso   1.00
Br695  Br    0.94779   0.12014   0.66519   0.00000  Uiso   1.00
Br696  Br    0.71889   0.21177   0.83581   0.00000  Uiso   1.00
C697   C     0.08744   0.49998   0.75004   0.00000  Uiso   1.00
C698   C     0.24588   0.50001   0.75018   0.00000  Uiso   1.00
C699   C     0.11730   0.43258   0.52610   0.00000  Uiso   1.00
C700   C     0.18797   0.58271   0.97480   0.00000  Uiso   1.00
C701   C     0.02119   0.47976   0.71456   0.00000  Uiso   1.00
C702   C     0.31204   0.52004   0.78595   0.00000  Uiso   1.00
C703   C     0.31140   0.47969   0.71461   0.00000  Uiso   1.00
C704   C     0.02188   0.51995   0.78595   0.00000  Uiso   1.00
C705   C     0.29045   0.49998   0.75023   0.00000  Uiso   1.00
C706   C     0.04282   0.49993   0.75017   0.00000  Uiso   1.00
C707   C     0.14146   0.35850   0.72170   0.00000  Uiso   1.00
C708   C     0.19189   0.64150   0.77827   0.00000  Uiso   1.00
C709   C     0.19194   0.35780   0.77822   0.00000  Uiso   1.00
C710   C     0.14148   0.64219   0.72168   0.00000  Uiso   1.00
C711   C     0.16756   0.50035   0.66435   0.00000  Uiso   1.00
C712   C     0.16565   0.49956   0.83589   0.00000  Uiso   1.00
C713   C     0.17467   0.53978   0.90663   0.00000  Uiso   1.00
C714   C     0.14413   0.46692   0.59415   0.00000  Uiso   1.00
C715   C     0.16236   0.49922   0.88460   0.00000  Uiso   1.00
C716   C     0.16633   0.50165   0.61596   0.00000  Uiso   1.00
C717   C     0.14597   0.46082   0.90902   0.00000  Uiso   1.00
C718   C     0.18518   0.53833   0.59199   0.00000  Uiso   1.00
C719   C     0.13855   0.46587   0.95490   0.00000  Uiso   1.00
C720   C     0.17727   0.54304   0.54598   0.00000  Uiso   1.00
C721   C     0.15625   0.50474   0.97711   0.00000  Uiso   1.00
C722   C     0.15756   0.50534   0.52374   0.00000  Uiso   1.00
C723   C     0.17348   0.54247   0.95274   0.00000  Uiso   1.00
C724   C     0.14012   0.46758   0.54808   0.00000  Uiso   1.00
C725   C     0.11459   0.43330   0.97966   0.00000  Uiso   1.00
C726   C     0.18814   0.58380   0.52133   0.00000  Uiso   1.00
Cu727  Cu    0.16667   0.54689   0.75000   0.00000  Uiso   1.00
Cu728  Cu    0.16667   0.45311   0.75000   0.00000  Uiso   1.00
H729   H     0.18710   0.56855   0.88727   0.00000  Uiso   1.00
H730   H     0.13036   0.43919   0.61379   0.00000  Uiso   1.00
H731   H     0.12129   0.37751   0.69904   0.00000  Uiso   1.00
H732   H     0.21206   0.62250   0.80094   0.00000  Uiso   1.00
H733   H     0.21216   0.37626   0.80082   0.00000  Uiso   1.00
H734   H     0.12133   0.62373   0.69901   0.00000  Uiso   1.00
N735   N     0.16667   0.61736   0.75000   0.00000  Uiso   1.00
N736   N     0.16667   0.38264   0.75000   0.00000  Uiso   1.00
O737   O     0.10655   0.53958   0.75000   0.00000  Uiso   1.00
O738   O     0.22679   0.46042   0.75001   0.00000  Uiso   1.00
O739   O     0.22679   0.53958   0.75001   0.00000  Uiso   1.00
O740   O     0.10655   0.46042   0.75000   0.00000  Uiso   1.00
O741   O     0.16666   0.53960   0.68513   0.00000  Uiso   1.00
O742   O     0.16668   0.46040   0.81487   0.00000  Uiso   1.00
O743   O     0.16668   0.53960   0.81487   0.00000  Uiso   1.00
O744   O     0.16666   0.46040   0.68513   0.00000  Uiso   1.00
Br745  Br    0.14342   0.39895   0.88303   0.00000  Uiso   1.00
Br746  Br    0.23059   0.57116   0.62040   0.00000  Uiso   1.00
Br747  Br    0.06986   0.39823   0.95270   0.00000  Uiso   1.00
Br748  Br    0.19372   0.64442   0.54904   0.00000  Uiso   1.00
Br749  Br    0.08878   0.38362   0.55888   0.00000  Uiso   1.00
Br750  Br    0.20775   0.63700   0.94200   0.00000  Uiso   1.00
Br751  Br    0.05046   0.45413   0.66486   0.00000  Uiso   1.00
Br752  Br    0.28256   0.54547   0.83573   0.00000  Uiso   1.00
Br753  Br    0.28112   0.45348   0.66519   0.00000  Uiso   1.00
Br754  Br    0.05222   0.54510   0.83581   0.00000  Uiso   1.00
C755   C     0.42077   0.49998   0.75004   0.00000  Uiso   1.00
C756   C     0.57921   0.50001   0.75018   0.00000  Uiso   1.00
C757   C     0.45064   0.43258   0.52610   0.00000  Uiso   1.00
C758   C     0.52130   0.58271   0.97480   0.00000  Uiso   1.00
C759   C     0.35453   0.47976   0.71456   0.00000  Uiso   1.00
C760   C     0.64537   0.52004   0.78595   0.00000  Uiso   1.00
C761   C     0.64473   0.47969   0.71461   0.00000  Uiso   1.00
C762   C     0.35521   0.51995   0.78595   0.00000  Uiso   1.00
C763   C     0.62379   0.49998   0.75023   0.00000  Uiso   1.00
C764   C     0.37616   0.49993   0.75017   0.00000  Uiso   1.00
C765   C     0.47480   0.35850   0.72170   0.00000  Uiso   1.00
C766   C     0.52522   0.64150   0.77827   0.00000  Uiso   1.00
C767   C     0.52527   0.35780   0.77822   0.00000  Uiso   1.00
C768   C     0.47481   0.64219   0.72168   0.00000  Uiso   1.00
C769   C     0.50089   0.50035   0.66435   0.00000  Uiso   1.00
C770   C     0.49898   0.49956   0.83589   0.00000  Uiso   1.00
C771   C     0.50801   0.53978   0.90663   0.00000  Uiso   1.00
C772   C     0.47747   0.46692   0.59415   0.00000  Uiso   1.00
C773   C     0.49569   0.49922   0.88460   0.00000  Uiso   1.00
C774   C     0.49966   0.50165   0.61596   0.00000  Uiso   1.00
C775   C     0.47930   0.46082   0.90902   0.00000  Uiso   1.00
C776   C     0.51852   0.53833   0.59199   0.00000  Uiso   1.00
C777   C     0.47188   0.46587   0.95490   0.00000  Uiso   1.00
C778   C     0.51061   0.54304   0.54598   0.00000  Uiso   1.00
C779   C     0.48958   0.50474   0.97711   0.00000  Uiso   1.00
C780   C     0.49090   0.50534   0.52374   0.00000  Uiso   1.00
C781   C     0.50682   0.54247   0.95274   0.00000  Uiso   1.00
C782   C     0.47345   0.46758   0.54808   0.00000  Uiso   1.00
C783   C     0.44793   0.43330   0.97966   0.00000  Uiso   1.00
C784   C     0.52147   0.58380   0.52133   0.00000  Uiso   1.00
Cu785  Cu    0.50000   0.54689   0.75000   0.00000  Uiso   1.00
Cu786  Cu    0.50000   0.45311   0.75000   0.00000  Uiso   1.00
H787   H     0.52043   0.56855   0.88727   0.00000  Uiso   1.00
H788   H     0.46369   0.43919   0.61379   0.00000  Uiso   1.00
H789   H     0.45462   0.37751   0.69904   0.00000  Uiso   1.00
H790   H     0.54539   0.62250   0.80094   0.00000  Uiso   1.00
H791   H     0.54550   0.37626   0.80082   0.00000  Uiso   1.00
H792   H     0.45466   0.62373   0.69901   0.00000  Uiso   1.00
N793   N     0.50000   0.61736   0.75000   0.00000  Uiso   1.00
N794   N     0.50000   0.38264   0.75000   0.00000  Uiso   1.00
O795   O     0.43988   0.53958   0.75000   0.00000  Uiso   1.00
O796   O     0.56012   0.46042   0.75001   0.00000  Uiso   1.00
O797   O     0.56012   0.53958   0.75001   0.00000  Uiso   1.00
O798   O     0.43988   0.46042   0.75000   0.00000  Uiso   1.00
O799   O     0.49999   0.53960   0.68513   0.00000  Uiso   1.00
O800   O     0.50001   0.46040   0.81487   0.00000  Uiso   1.00
O801   O     0.50001   0.53960   0.81487   0.00000  Uiso   1.00
O802   O     0.49999   0.46040   0.68513   0.00000  Uiso   1.00
Br803  Br    0.47675   0.39895   0.88303   0.00000  Uiso   1.00
Br804  Br    0.56393   0.57116   0.62040   0.00000  Uiso   1.00
Br805  Br    0.40319   0.39823   0.95270   0.00000  Uiso   1.00
Br806  Br    0.52705   0.64442   0.54904   0.00000  Uiso   1.00
Br807  Br    0.42211   0.38362   0.55888   0.00000  Uiso   1.00
Br808  Br    0.54109   0.63700   0.94200   0.00000  Uiso   1.00
Br809  Br    0.38379   0.45413   0.66486   0.00000  Uiso   1.00
Br810  Br    0.61589   0.54547   0.83573   0.00000  Uiso   1.00
Br811  Br    0.61445   0.45348   0.66519   0.00000  Uiso   1.00
Br812  Br    0.38555   0.54510   0.83581   0.00000  Uiso   1.00
C813   C     0.75410   0.49998   0.75004   0.00000  Uiso   1.00
C814   C     0.91254   0.50001   0.75018   0.00000  Uiso   1.00
C815   C     0.78397   0.43258   0.52610   0.00000  Uiso   1.00
C816   C     0.85463   0.58271   0.97480   0.00000  Uiso   1.00
C817   C     0.68786   0.47976   0.71456   0.00000  Uiso   1.00
C818   C     0.97870   0.52004   0.78595   0.00000  Uiso   1.00
C819   C     0.97806   0.47969   0.71461   0.00000  Uiso   1.00
C820   C     0.68854   0.51995   0.78595   0.00000  Uiso   1.00
C821   C     0.95712   0.49998   0.75023   0.00000  Uiso   1.00
C822   C     0.70949   0.49993   0.75017   0.00000  Uiso   1.00
C823   C     0.80813   0.35850   0.72170   0.00000  Uiso   1.00
C824   C     0.85856   0.64150   0.77827   0.00000  Uiso   1.00
C825   C     0.85860   0.35780   0.77822   0.00000  Uiso   1.00
C826   C     0.80815   0.64219   0.72168   0.00000  Uiso   1.00
C827   C     0.83423   0.50035   0.66435   0.00000  Uiso   1.00
C828   C     0.83232   0.49956   0.83589   0.00000  Uiso   1.00
C829   C     0.84134   0.53978   0.90663   0.00000  Uiso   1.00
C830   C     0.81080   0.46692   0.59415   0.00000  Uiso   1.00
C831   C     0.82903   0.49922   0.88460   0.00000  Uiso   1.00
C832   C     0.83300   0.50165   0.61596   0.00000  Uiso   1.00
C833   C     0.81263   0.46082   0.90902   0.00000  Uiso   1.00
C834   C     0.85185   0.53833   0.59199   0.00000  Uiso   1.00
C835   C     0.80522   0.46587   0.95490   0.00000  Uiso   1.00
C836   C     0.84394   0.54304   0.54598   0.00000  Uiso   1.00
C837   C     0.82291   0.50474   0.97711   0.00000  Uiso   1.00
C838   C     0.82423   0.50534   0.52374   0.00000  Uiso   1.00
C839   C     0.84015   0.54247   0.95274   0.00000  Uiso   1.00
C840   C     0.80679   0.46758   0.54808   0.00000  Uiso   1.00
C841   C     0.78126   0.43330   0.97966   0.00000  Uiso   1.00
C842   C     0.85480   0.58380   0.52133   0.00000  Uiso   1.00
Cu843  Cu    0.83333   0.54689   0.75000   0.00000  Uiso   1.00
Cu844  Cu    0.83333   0.45311   0.75000   0.00000  Uiso   1.00
H845   H     0.85377   0.56855   0.88727   0.00000  Uiso   1.00
H846   H     0.79702   0.43919   0.61379   0.00000  Uiso   1.00
H847   H     0.78796   0.37751   0.69904   0.00000  Uiso   1.00
H848   H     0.87873   0.62250   0.80094   0.00000  Uiso   1.00
H849   H     0.87883   0.37626   0.80082   0.00000  Uiso   1.00
H850   H     0.78799   0.62373   0.69901   0.00000  Uiso   1.00
N851   N     0.83333   0.61736   0.75000   0.00000  Uiso   1.00
N852   N     0.83333   0.38264   0.75000   0.00000  Uiso   1.00
O853   O     0.77321   0.53958   0.75000   0.00000  Uiso   1.00
O854   O     0.89345   0.46042   0.75001   0.00000  Uiso   1.00
O855   O     0.89345   0.53958   0.75001   0.00000  Uiso   1.00
O856   O     0.77321   0.46042   0.75000   0.00000  Uiso   1.00
O857   O     0.83332   0.53960   0.68513   0.00000  Uiso   1.00
O858   O     0.83334   0.46040   0.81487   0.00000  Uiso   1.00
O859   O     0.83334   0.53960   0.81487   0.00000  Uiso   1.00
O860   O     0.83332   0.46040   0.68513   0.00000  Uiso   1.00
Br861  Br    0.81008   0.39895   0.88303   0.00000  Uiso   1.00
Br862  Br    0.89726   0.57116   0.62040   0.00000  Uiso   1.00
Br863  Br    0.73652   0.39823   0.95270   0.00000  Uiso   1.00
Br864  Br    0.86038   0.64442   0.54904   0.00000  Uiso   1.00
Br865  Br    0.75544   0.38362   0.55888   0.00000  Uiso   1.00
Br866  Br    0.87442   0.63700   0.94200   0.00000  Uiso   1.00
Br867  Br    0.71713   0.45413   0.66486   0.00000  Uiso   1.00
Br868  Br    0.94923   0.54547   0.83573   0.00000  Uiso   1.00
Br869  Br    0.94779   0.45348   0.66519   0.00000  Uiso   1.00
Br870  Br    0.71889   0.54510   0.83581   0.00000  Uiso   1.00
C871   C     0.08744   0.83332   0.75004   0.00000  Uiso   1.00
C872   C     0.24588   0.83334   0.75018   0.00000  Uiso   1.00
C873   C     0.11730   0.76591   0.52610   0.00000  Uiso   1.00
C874   C     0.18797   0.91604   0.97480   0.00000  Uiso   1.00
C875   C     0.02119   0.81309   0.71456   0.00000  Uiso   1.00
C876   C     0.31204   0.85338   0.78595   0.00000  Uiso   1.00
C877   C     0.31140   0.81302   0.71461   0.00000  Uiso   1.00
C878   C     0.02188   0.85328   0.78595   0.00000  Uiso   1.00
C879   C     0.29045   0.83332   0.75023   0.00000  Uiso   1.00
C880   C     0.04282   0.83327   0.75017   0.00000  Uiso   1.00
C881   C     0.14146   0.69183   0.72170   0.00000  Uiso   1.00
C882   C     0.19189   0.97483   0.77827   0.00000  Uiso   1.00
C883   C     0.19194   0.69113   0.77822   0.00000  Uiso   1.00
C884   C     0.14148   0.97553   0.72168   0.00000  Uiso   1.00
C885   C     0.16756   0.83369   0.66435   0.00000  Uiso   1.00
C886   C     0.16565   0.83289   0.83589   0.00000  Uiso   1.00
C887   C     0.17467   0.87311   0.90663   0.00000  Uiso   1.00
C888   C     0.14413   0.80025   0.59415   0.00000  Uiso   1.00
C889   C     0.16236   0.83256   0.88460   0.00000  Uiso   1.00
C890   C     0.16633   0.83498   0.61596   0.00000  Uiso   1.00
C891   C     0.14597   0.79415   0.90902   0.00000  Uiso   1.00
C892   C     0.18518   0.87166   0.59199   0.00000  Uiso   1.00
C893   C     0.13855   0.79920   0.95490   0.00000  Uiso   1.00
C894   C     0.17727   0.87638   0.54598   0.00000  Uiso   1.00
C895   C     0.15625   0.83807   0.97711   0.00000  Uiso   1.00
C896   C     0.15756   0.83868   0.52374   0.00000  Uiso   1.00
C897   C     0.17348   0.87580   0.95274   0.00000  Uiso   1.00
C898   C     0.14012   0.80092   0.54808   0.00000  Uiso   1.00
C899   C     0.11459   0.76663   0.97966   0.00000  Uiso   1.00
C900   C     0.18814   0.91714   0.52133   0.00000  Uiso   1.00
Cu901  Cu    0.16667   0.88022   0.75000   0.00000  Uiso   1.00
Cu902  Cu    0.16667   0.78645   0.75000   0.00000  Uiso   1.00
H903   H     0.18710   0.90188   0.88727   0.00000  Uiso   1.00
H904   H     0.13036   0.77252   0.61379   0.00000  Uiso   1.00
H905   H     0.12129   0.71084   0.69904   0.00000  Uiso   1.00
H906   H     0.21206   0.95583   0.80094   0.00000  Uiso   1.00
H907   H     0.21216   0.70959   0.80082   0.00000  Uiso   1.00
H908   H     0.12133   0.95706   0.69901   0.00000  Uiso   1.00
N909   N     0.16667   0.95069   0.75000   0.00000  Uiso   1.00
N910   N     0.16667   0.71598   0.75000   0.00000  Uiso   1.00
O911   O     0.10655   0.87291   0.75000   0.00000  Uiso   1.00
O912   O     0.22679   0.79375   0.75001   0.00000  Uiso   1.00
O913   O     0.22679   0.87291   0.75001   0.00000  Uiso   1.00
O914   O     0.10655   0.79375   0.75000   0.00000  Uiso   1.00
O915   O     0.16666   0.87293   0.68513   0.00000  Uiso   1.00
O916   O     0.16668   0.79373   0.81487   0.00000  Uiso   1.00
O917   O     0.16668   0.87293   0.81487   0.00000  Uiso   1.00
O918   O     0.16666   0.79373   0.68513   0.00000  Uiso   1.00
Br919  Br    0.14342   0.73229   0.88303   0.00000  Uiso   1.00
Br920  Br    0.23059   0.90449   0.62040   0.00000  Uiso   1.00
Br921  Br    0.06986   0.73156   0.95270   0.00000  Uiso   1.00
Br922  Br    0.19372   0.97775   0.54904   0.00000  Uiso   1.00
Br923  Br    0.08878   0.71695   0.55888   0.00000  Uiso   1.00
Br924  Br    0.20775   0.97033   0.94200   0.00000  Uiso   1.00
Br925  Br    0.05046   0.78746   0.66486   0.00000  Uiso   1.00
Br926  Br    0.28256   0.87880   0.83573   0.00000  Uiso   1.00
Br927  Br    0.28112   0.78681   0.66519   0.00000  Uiso   1.00
Br928  Br    0.05222   0.87843   0.83581   0.00000  Uiso   1.00
C929   C     0.42077   0.83332   0.75004   0.00000  Uiso   1.00
C930   C     0.57921   0.83334   0.75018   0.00000  Uiso   1.00
C931   C     0.45064   0.76591   0.52610   0.00000  Uiso   1.00
C932   C     0.52130   0.91604   0.97480   0.00000  Uiso   1.00
C933   C     0.35453   0.81309   0.71456   0.00000  Uiso   1.00
C934   C     0.64537   0.85338   0.78595   0.00000  Uiso   1.00
C935   C     0.64473   0.81302   0.71461   0.00000  Uiso   1.00
C936   C     0.35521   0.85328   0.78595   0.00000  Uiso   1.00
C937   C     0.62379   0.83332   0.75023   0.00000  Uiso   1.00
C938   C     0.37616   0.83327   0.75017   0.00000  Uiso   1.00
C939   C     0.47480   0.69183   0.72170   0.00000  Uiso   1.00
C940   C     0.52522   0.97483   0.77827   0.00000  Uiso   1.00
C941   C     0.52527   0.69113   0.77822   0.00000  Uiso   1.00
C942   C     0.47481   0.97553   0.72168   0.00000  Uiso   1.00
C943   C     0.50089   0.83369   0.66435   0.00000  Uiso   1.00
C944   C     0.49898   0.83289   0.83589   0.00000  Uiso   1.00
C945   C     0.50801   0.87311   0.90663   0.00000  Uiso   1.00
C946   C     0.47747   0.80025   0.59415   0.00000  Uiso   1.00
C947   C     0.49569   0.83256   0.88460   0.00000  Uiso   1.00
C948   C     0.49966   0.83498   0.61596   0.00000  Uiso   1.00
C949   C     0.47930   0.79415   0.90902   0.00000  Uiso   1.00
C950   C     0.51852   0.87166   0.59199   0.00000  Uiso   1.00
C951   C     0.47188   0.79920   0.95490   0.00000  Uiso   1.00
C952   C     0.51061   0.87638   0.54598   0.00000  Uiso   1.00
C953   C     0.48958   0.83807   0.97711   0.00000  Uiso   1.00
C954   C     0.49090   0.83868   0.52374   0.00000  Uiso   1.00
C955   C     0.50682   0.87580   0.95274   0.00000  Uiso   1.00
C956   C     0.47345   0.80092   0.54808   0.00000  Uiso   1.00
C957   C     0.44793   0.76663   0.97966   0.00000  Uiso   1.00
C958   C     0.52147   0.91714   0.52133   0.00000  Uiso   1.00
Cu959  Cu    0.50000   0.88022   0.75000   0.00000  Uiso   1.00
Cu960  Cu    0.50000   0.78645   0.75000   0.00000  Uiso   1.00
H961   H     0.52043   0.90188   0.88727   0.00000  Uiso   1.00
H962   H     0.46369   0.77252   0.61379   0.00000  Uiso   1.00
H963   H     0.45462   0.71084   0.69904   0.00000  Uiso   1.00
H964   H     0.54539   0.95583   0.80094   0.00000  Uiso   1.00
H965   H     0.54550   0.70959   0.80082   0.00000  Uiso   1.00
H966   H     0.45466   0.95706   0.69901   0.00000  Uiso   1.00
N967   N     0.50000   0.95069   0.75000   0.00000  Uiso   1.00
N968   N     0.50000   0.71598   0.75000   0.00000  Uiso   1.00
O969   O     0.43988   0.87291   0.75000   0.00000  Uiso   1.00
O970   O     0.56012   0.79375   0.75001   0.00000  Uiso   1.00
O971   O     0.56012   0.87291   0.75001   0.00000  Uiso   1.00
O972   O     0.43988   0.79375   0.75000   0.00000  Uiso   1.00
O973   O     0.49999   0.87293   0.68513   0.00000  Uiso   1.00
O974   O     0.50001   0.79373   0.81487   0.00000  Uiso   1.00
O975   O     0.50001   0.87293   0.81487   0.00000  Uiso   1.00
O976   O     0.49999   0.79373   0.68513   0.00000  Uiso   1.00
Br977  Br    0.47675   0.73229   0.88303   0.00000  Uiso   1.00
Br978  Br    0.56393   0.90449   0.62040   0.00000  Uiso   1.00
Br979  Br    0.40319   0.73156   0.95270   0.00000  Uiso   1.00
Br980  Br    0.52705   0.97775   0.54904   0.00000  Uiso   1.00
Br981  Br    0.42211   0.71695   0.55888   0.00000  Uiso   1.00
Br982  Br    0.54109   0.97033   0.94200   0.00000  Uiso   1.00
Br983  Br    0.38379   0.78746   0.66486   0.00000  Uiso   1.00
Br984  Br    0.61589   0.87880   0.83573   0.00000  Uiso   1.00
Br985  Br    0.61445   0.78681   0.66519   0.00000  Uiso   1.00
Br986  Br    0.38555   0.87843   0.83581   0.00000  Uiso   1.00
C987   C     0.75410   0.83332   0.75004   0.00000  Uiso   1.00
C988   C     0.91254   0.83334   0.75018   0.00000  Uiso   1.00
C989   C     0.78397   0.76591   0.52610   0.00000  Uiso   1.00
C990   C     0.85463   0.91604   0.97480   0.00000  Uiso   1.00
C991   C     0.68786   0.81309   0.71456   0.00000  Uiso   1.00
C992   C     0.97870   0.85338   0.78595   0.00000  Uiso   1.00
C993   C     0.97806   0.81302   0.71461   0.00000  Uiso   1.00
C994   C     0.68854   0.85328   0.78595   0.00000  Uiso   1.00
C995   C     0.95712   0.83332   0.75023   0.00000  Uiso   1.00
C996   C     0.70949   0.83327   0.75017   0.00000  Uiso   1.00
C997   C     0.80813   0.69183   0.72170   0.00000  Uiso   1.00
C998   C     0.85856   0.97483   0.77827   0.00000  Uiso   1.00
C999   C     0.85860   0.69113   0.77822   0.00000  Uiso   1.00
C1000  C     0.80815   0.97553   0.72168   0.00000  Uiso   1.00
C1001  C     0.83423   0.83369   0.66435   0.00000  Uiso   1.00
C1002  C     0.83232   0.83289   0.83589   0.00000  Uiso   1.00
C1003  C     0.84134   0.87311   0.90663   0.00000  Uiso   1.00
C1004  C     0.81080   0.80025   0.59415   0.00000  Uiso   1.00
C1005  C     0.82903   0.83256   0.88460   0.00000  Uiso   1.00
C1006  C     0.83300   0.83498   0.61596   0.00000  Uiso   1.00
C1007  C     0.81263   0.79415   0.90902   0.00000  Uiso   1.00
C1008  C     0.85185   0.87166   0.59199   0.00000  Uiso   1.00
C1009  C     0.80522   0.79920   0.95490   0.00000  Uiso   1.00
C1010  C     0.84394   0.87638   0.54598   0.00000  Uiso   1.00
C1011  C     0.82291   0.83807   0.97711   0.00000  Uiso   1.00
C1012  C     0.82423   0.83868   0.52374   0.00000  Uiso   1.00
C1013  C     0.84015   0.87580   0.95274   0.00000  Uiso   1.00
C1014  C     0.80679   0.80092   0.54808   0.00000  Uiso   1.00
C1015  C     0.78126   0.76663   0.97966   0.00000  Uiso   1.00
C1016  C     0.85480   0.91714   0.52133   0.00000  Uiso   1.00
Cu1017 Cu    0.83333   0.88022   0.75000   0.00000  Uiso   1.00
Cu1018 Cu    0.83333   0.78645   0.75000   0.00000  Uiso   1.00
H1019  H     0.85377   0.90188   0.88727   0.00000  Uiso   1.00
H1020  H     0.79702   0.77252   0.61379   0.00000  Uiso   1.00
H1021  H     0.78796   0.71084   0.69904   0.00000  Uiso   1.00
H1022  H     0.87873   0.95583   0.80094   0.00000  Uiso   1.00
H1023  H     0.87883   0.70959   0.80082   0.00000  Uiso   1.00
H1024  H     0.78799   0.95706   0.69901   0.00000  Uiso   1.00
N1025  N     0.83333   0.95069   0.75000   0.00000  Uiso   1.00
N1026  N     0.83333   0.71598   0.75000   0.00000  Uiso   1.00
O1027  O     0.77321   0.87291   0.75000   0.00000  Uiso   1.00
O1028  O     0.89345   0.79375   0.75001   0.00000  Uiso   1.00
O1029  O     0.89345   0.87291   0.75001   0.00000  Uiso   1.00
O1030  O     0.77321   0.79375   0.75000   0.00000  Uiso   1.00
O1031  O     0.83332   0.87293   0.68513   0.00000  Uiso   1.00
O1032  O     0.83334   0.79373   0.81487   0.00000  Uiso   1.00
O1033  O     0.83334   0.87293   0.81487   0.00000  Uiso   1.00
O1034  O     0.83332   0.79373   0.68513   0.00000  Uiso   1.00
Br1035 Br    0.81008   0.73229   0.88303   0.00000  Uiso   1.00
Br1036 Br    0.89726   0.90449   0.62040   0.00000  Uiso   1.00
Br1037 Br    0.73652   0.73156   0.95270   0.00000  Uiso   1.00
Br1038 Br    0.86038   0.97775   0.54904   0.00000  Uiso   1.00
Br1039 Br    0.75544   0.71695   0.55888   0.00000  Uiso   1.00
Br1040 Br    0.87442   0.97033   0.94200   0.00000  Uiso   1.00
Br1041 Br    0.71713   0.78746   0.66486   0.00000  Uiso   1.00
Br1042 Br    0.94923   0.87880   0.83573   0.00000  Uiso   1.00
Br1043 Br    0.94779   0.78681   0.66519   0.00000  Uiso   1.00
Br1044 Br    0.71889   0.87843   0.83581   0.00000  Uiso   1.00
loop_
_geom_bond_atom_site_label_1
_geom_bond_atom_site_label_2
_geom_bond_distance
_geom_bond_site_symmetry_2
_ccdc_geom_bond_type
C1     O44     1.287   .     A
C1     O41     1.287   .     A
C1     C10     1.442   .     S
C2     O43     1.287   .     A
C2     O42     1.286   .     A
C2     C9      1.441   .     S
C3     Br53    1.938   .     S
C3     C28     1.410   .     A
C3     C551    1.402   1_554 S
C4     Br54    1.938   .     S
C4     C27     1.411   .     A
C4     C552    1.404   .     S
C5     C10     1.405   .     A
C5     Br55    1.930   .     S
C5     C123    1.394   1_455 S
C6     Br56    1.933   .     S
C6     C9      1.406   .     A
C6     C66     1.396   .     S
C7     Br57    1.934   .     S
C7     C9      1.405   .     A
C7     C63     1.394   .     S
C8     C10     1.406   .     A
C8     Br58    1.933   .     S
C8     C122    1.396   1_455 S
C11    N40     1.367   .     A
C11    H35     1.082   .     S
C11    C362    1.416   1_545 S
C12    N39     1.367   .     A
C12    H36     1.082   .     S
C12    C187    1.416   .     S
C13    N40     1.367   .     A
C13    H37     1.082   .     S
C13    C360    1.416   1_545 S
C14    H38     1.082   .     S
C14    N39     1.367   .     A
C14    C185    1.416   .     S
C15    C20     1.459   .     S
C15    O48     1.294   .     A
C15    O45     1.290   .     A
C16    C19     1.473   .     S
C16    O47     1.300   .     A
C16    O46     1.291   .     A
C17    H33     1.080   .     S
C17    C27     1.394   .     A
C17    C19     1.397   .     A
C18    H34     1.080   .     S
C18    C20     1.391   .     A
C18    C28     1.394   .     A
C19    C21     1.417   .     A
C20    C22     1.406   .     A
C21    Br49    1.941   .     S
C21    C23     1.415   .     A
C22    Br50    1.940   .     S
C22    C24     1.413   .     A
C23    C29     1.418   .     A
C23    C25     1.420   .     A
C24    C30     1.417   .     A
C24    C26     1.422   .     A
C25    C27     1.412   .     A
C25    C548    1.406   .     S
C26    C28     1.415   .     A
C26    C547    1.406   1_554 S
C29    Br51    1.937   .     S
C29    C525    1.402   .     S
C30    Br52    1.937   .     S
C30    C526    1.404   1_554 S
Cu31   O43     1.955   .     S
Cu31   Cu32    2.674   .     S
Cu31   O47     1.964   .     S
Cu31   O45     1.969   .     S
Cu31   O41     1.954   .     S
Cu31   N39     2.010   .     S
Cu32   O48     1.964   .     S
Cu32   O44     1.955   .     S
Cu32   O46     1.969   .     S
Cu32   N40     2.010   .     S
Cu32   O42     1.954   .     S
C59    O102    1.287   .     A
C59    O99     1.287   .     A
C59    C68     1.442   .     S
C60    O101    1.287   .     A
C60    O100    1.286   .     A
C60    C67     1.441   .     S
C61    Br111   1.938   .     S
C61    C86     1.410   .     A
C61    C609    1.402   1_554 S
C62    Br112   1.938   .     S
C62    C85     1.411   .     A
C62    C610    1.404   .     S
C63    C68     1.405   .     A
C63    Br113   1.930   .     S
C64    Br114   1.933   .     S
C64    C67     1.406   .     A
C64    C124    1.396   .     S
C65    Br115   1.934   .     S
C65    C67     1.405   .     A
C65    C121    1.394   .     S
C66    C68     1.406   .     A
C66    Br116   1.933   .     S
C69    N98     1.367   .     A
C69    H93     1.082   .     S
C69    C420    1.416   1_545 S
C70    N97     1.367   .     A
C70    H94     1.082   .     S
C70    C245    1.416   .     S
C71    N98     1.367   .     A
C71    H95     1.082   .     S
C71    C418    1.416   1_545 S
C72    H96     1.082   .     S
C72    N97     1.367   .     A
C72    C243    1.416   .     S
C73    C78     1.459   .     S
C73    O106    1.294   .     A
C73    O103    1.290   .     A
C74    C77     1.473   .     S
C74    O105    1.300   .     A
C74    O104    1.291   .     A
C75    H91     1.080   .     S
C75    C85     1.394   .     A
C75    C77     1.397   .     A
C76    H92     1.080   .     S
C76    C78     1.391   .     A
C76    C86     1.394   .     A
C77    C79     1.417   .     A
C78    C80     1.406   .     A
C79    Br107   1.941   .     S
C79    C81     1.415   .     A
C80    Br108   1.940   .     S
C80    C82     1.413   .     A
C81    C87     1.418   .     A
C81    C83     1.420   .     A
C82    C88     1.417   .     A
C82    C84     1.422   .     A
C83    C85     1.412   .     A
C83    C606    1.406   .     S
C84    C86     1.415   .     A
C84    C605    1.406   1_554 S
C87    Br109   1.937   .     S
C87    C583    1.402   .     S
C88    Br110   1.937   .     S
C88    C584    1.404   1_554 S
Cu89   O101    1.955   .     S
Cu89   Cu90    2.674   .     S
Cu89   O105    1.964   .     S
Cu89   O103    1.969   .     S
Cu89   O99     1.954   .     S
Cu89   N97     2.010   .     S
Cu90   O106    1.964   .     S
Cu90   O102    1.955   .     S
Cu90   O104    1.969   .     S
Cu90   N98     2.010   .     S
Cu90   O100    1.954   .     S
C117   O160    1.287   .     A
C117   O157    1.287   .     A
C117   C126    1.442   .     S
C118   O159    1.287   .     A
C118   O158    1.286   .     A
C118   C125    1.441   .     S
C119   Br169   1.938   .     S
C119   C144    1.410   .     A
C119   C667    1.402   1_554 S
C120   Br170   1.938   .     S
C120   C143    1.411   .     A
C120   C668    1.404   .     S
C121   C126    1.405   .     A
C121   Br171   1.930   .     S
C122   Br172   1.933   .     S
C122   C125    1.406   .     A
C122   C8      1.396   1_655 S
C123   Br173   1.934   .     S
C123   C125    1.405   .     A
C123   C5      1.394   1_655 S
C124   C126    1.406   .     A
C124   Br174   1.933   .     S
C127   N156    1.367   .     A
C127   H151    1.082   .     S
C127   C478    1.416   1_545 S
C128   N155    1.367   .     A
C128   H152    1.082   .     S
C128   C303    1.416   .     S
C129   N156    1.367   .     A
C129   H153    1.082   .     S
C129   C476    1.416   1_545 S
C130   H154    1.082   .     S
C130   N155    1.367   .     A
C130   C301    1.416   .     S
C131   C136    1.459   .     S
C131   O164    1.294   .     A
C131   O161    1.290   .     A
C132   C135    1.473   .     S
C132   O163    1.300   .     A
C132   O162    1.291   .     A
C133   H149    1.080   .     S
C133   C143    1.394   .     A
C133   C135    1.397   .     A
C134   H150    1.080   .     S
C134   C136    1.391   .     A
C134   C144    1.394   .     A
C135   C137    1.417   .     A
C136   C138    1.406   .     A
C137   Br165   1.941   .     S
C137   C139    1.415   .     A
C138   Br166   1.940   .     S
C138   C140    1.413   .     A
C139   C145    1.418   .     A
C139   C141    1.420   .     A
C140   C146    1.417   .     A
C140   C142    1.422   .     A
C141   C143    1.412   .     A
C141   C664    1.406   .     S
C142   C144    1.415   .     A
C142   C663    1.406   1_554 S
C145   Br167   1.937   .     S
C145   C641    1.402   .     S
C146   Br168   1.937   .     S
C146   C642    1.404   1_554 S
Cu147  O159    1.955   .     S
Cu147  Cu148   2.674   .     S
Cu147  O163    1.964   .     S
Cu147  O161    1.969   .     S
Cu147  O157    1.954   .     S
Cu147  N155    2.010   .     S
Cu148  O164    1.964   .     S
Cu148  O160    1.955   .     S
Cu148  O162    1.969   .     S
Cu148  N156    2.010   .     S
Cu148  O158    1.954   .     S
C175   O218    1.287   .     A
C175   O215    1.287   .     A
C175   C184    1.442   .     S
C176   O217    1.287   .     A
C176   O216    1.286   .     A
C176   C183    1.441   .     S
C177   Br227   1.938   .     S
C177   C202    1.410   .     A
C177   C725    1.402   1_554 S
C178   Br228   1.938   .     S
C178   C201    1.411   .     A
C178   C726    1.404   .     S
C179   C184    1.405   .     A
C179   Br229   1.930   .     S
C179   C297    1.394   1_455 S
C180   Br230   1.933   .     S
C180   C183    1.406   .     A
C180   C240    1.396   .     S
C181   Br231   1.934   .     S
C181   C183    1.405   .     A
C181   C237    1.394   .     S
C182   C184    1.406   .     A
C182   Br232   1.933   .     S
C182   C296    1.396   1_455 S
C185   N214    1.367   .     A
C185   H209    1.082   .     S
C186   N213    1.367   .     A
C186   H210    1.082   .     S
C186   C361    1.416   .     S
C187   N214    1.367   .     A
C187   H211    1.082   .     S
C188   H212    1.082   .     S
C188   N213    1.367   .     A
C188   C359    1.416   .     S
C189   C194    1.459   .     S
C189   O222    1.294   .     A
C189   O219    1.290   .     A
C190   C193    1.473   .     S
C190   O221    1.300   .     A
C190   O220    1.291   .     A
C191   H207    1.080   .     S
C191   C201    1.394   .     A
C191   C193    1.397   .     A
C192   H208    1.080   .     S
C192   C194    1.391   .     A
C192   C202    1.394   .     A
C193   C195    1.417   .     A
C194   C196    1.406   .     A
C195   Br223   1.941   .     S
C195   C197    1.415   .     A
C196   Br224   1.940   .     S
C196   C198    1.413   .     A
C197   C203    1.418   .     A
C197   C199    1.420   .     A
C198   C204    1.417   .     A
C198   C200    1.422   .     A
C199   C201    1.412   .     A
C199   C722    1.406   .     S
C200   C202    1.415   .     A
C200   C721    1.406   1_554 S
C203   Br225   1.937   .     S
C203   C699    1.402   .     S
C204   Br226   1.937   .     S
C204   C700    1.404   1_554 S
Cu205  O217    1.955   .     S
Cu205  Cu206   2.674   .     S
Cu205  O221    1.964   .     S
Cu205  O219    1.969   .     S
Cu205  O215    1.954   .     S
Cu205  N213    2.010   .     S
Cu206  O222    1.964   .     S
Cu206  O218    1.955   .     S
Cu206  O220    1.969   .     S
Cu206  N214    2.010   .     S
Cu206  O216    1.954   .     S
C233   O276    1.287   .     A
C233   O273    1.287   .     A
C233   C242    1.442   .     S
C234   O275    1.287   .     A
C234   O274    1.286   .     A
C234   C241    1.441   .     S
C235   Br285   1.938   .     S
C235   C260    1.410   .     A
C235   C783    1.402   1_554 S
C236   Br286   1.938   .     S
C236   C259    1.411   .     A
C236   C784    1.404   .     S
C237   C242    1.405   .     A
C237   Br287   1.930   .     S
C238   Br288   1.933   .     S
C238   C241    1.406   .     A
C238   C298    1.396   .     S
C239   Br289   1.934   .     S
C239   C241    1.405   .     A
C239   C295    1.394   .     S
C240   C242    1.406   .     A
C240   Br290   1.933   .     S
C243   N272    1.367   .     A
C243   H267    1.082   .     S
C244   N271    1.367   .     A
C244   H268    1.082   .     S
C244   C419    1.416   .     S
C245   N272    1.367   .     A
C245   H269    1.082   .     S
C246   H270    1.082   .     S
C246   N271    1.367   .     A
C246   C417    1.416   .     S
C247   C252    1.459   .     S
C247   O280    1.294   .     A
C247   O277    1.290   .     A
C248   C251    1.473   .     S
C248   O279    1.300   .     A
C248   O278    1.291   .     A
C249   H265    1.080   .     S
C249   C259    1.394   .     A
C249   C251    1.397   .     A
C250   H266    1.080   .     S
C250   C252    1.391   .     A
C250   C260    1.394   .     A
C251   C253    1.417   .     A
C252   C254    1.406   .     A
C253   Br281   1.941   .     S
C253   C255    1.415   .     A
C254   Br282   1.940   .     S
C254   C256    1.413   .     A
C255   C261    1.418   .     A
C255   C257    1.420   .     A
C256   C262    1.417   .     A
C256   C258    1.422   .     A
C257   C259    1.412   .     A
C257   C780    1.406   .     S
C258   C260    1.415   .     A
C258   C779    1.406   1_554 S
C261   Br283   1.937   .     S
C261   C757    1.402   .     S
C262   Br284   1.937   .     S
C262   C758    1.404   1_554 S
Cu263  O275    1.955   .     S
Cu263  Cu264   2.674   .     S
Cu263  O279    1.964   .     S
Cu263  O277    1.969   .     S
Cu263  O273    1.954   .     S
Cu263  N271    2.010   .     S
Cu264  O280    1.964   .     S
Cu264  O276    1.955   .     S
Cu264  O278    1.969   .     S
Cu264  N272    2.010   .     S
Cu264  O274    1.954   .     S
C291   O334    1.287   .     A
C291   O331    1.287   .     A
C291   C300    1.442   .     S
C292   O333    1.287   .     A
C292   O332    1.286   .     A
C292   C299    1.441   .     S
C293   Br343   1.938   .     S
C293   C318    1.410   .     A
C293   C841    1.402   1_554 S
C294   Br344   1.938   .     S
C294   C317    1.411   .     A
C294   C842    1.404   .     S
C295   C300    1.405   .     A
C295   Br345   1.930   .     S
C296   Br346   1.933   .     S
C296   C299    1.406   .     A
C296   C182    1.396   1_655 S
C297   Br347   1.934   .     S
C297   C299    1.405   .     A
C297   C179    1.394   1_655 S
C298   C300    1.406   .     A
C298   Br348   1.933   .     S
C301   N330    1.367   .     A
C301   H325    1.082   .     S
C302   N329    1.367   .     A
C302   H326    1.082   .     S
C302   C477    1.416   .     S
C303   N330    1.367   .     A
C303   H327    1.082   .     S
C304   H328    1.082   .     S
C304   N329    1.367   .     A
C304   C475    1.416   .     S
C305   C310    1.459   .     S
C305   O338    1.294   .     A
C305   O335    1.290   .     A
C306   C309    1.473   .     S
C306   O337    1.300   .     A
C306   O336    1.291   .     A
C307   H323    1.080   .     S
C307   C317    1.394   .     A
C307   C309    1.397   .     A
C308   H324    1.080   .     S
C308   C310    1.391   .     A
C308   C318    1.394   .     A
C309   C311    1.417   .     A
C310   C312    1.406   .     A
C311   Br339   1.941   .     S
C311   C313    1.415   .     A
C312   Br340   1.940   .     S
C312   C314    1.413   .     A
C313   C319    1.418   .     A
C313   C315    1.420   .     A
C314   C320    1.417   .     A
C314   C316    1.422   .     A
C315   C317    1.412   .     A
C315   C838    1.406   .     S
C316   C318    1.415   .     A
C316   C837    1.406   1_554 S
C319   Br341   1.937   .     S
C319   C815    1.402   .     S
C320   Br342   1.937   .     S
C320   C816    1.404   1_554 S
Cu321  O333    1.955   .     S
Cu321  Cu322   2.674   .     S
Cu321  O337    1.964   .     S
Cu321  O335    1.969   .     S
Cu321  O331    1.954   .     S
Cu321  N329    2.010   .     S
Cu322  O338    1.964   .     S
Cu322  O334    1.955   .     S
Cu322  O336    1.969   .     S
Cu322  N330    2.010   .     S
Cu322  O332    1.954   .     S
C349   O392    1.287   .     A
C349   O389    1.287   .     A
C349   C358    1.442   .     S
C350   O391    1.287   .     A
C350   O390    1.286   .     A
C350   C357    1.441   .     S
C351   Br401   1.938   .     S
C351   C376    1.410   .     A
C351   C899    1.402   1_554 S
C352   Br402   1.938   .     S
C352   C375    1.411   .     A
C352   C900    1.404   .     S
C353   C358    1.405   .     A
C353   Br403   1.930   .     S
C353   C471    1.394   1_455 S
C354   Br404   1.933   .     S
C354   C357    1.406   .     A
C354   C414    1.396   .     S
C355   Br405   1.934   .     S
C355   C357    1.405   .     A
C355   C411    1.394   .     S
C356   C358    1.406   .     A
C356   Br406   1.933   .     S
C356   C470    1.396   1_455 S
C359   N388    1.367   .     A
C359   H383    1.082   .     S
C360   N387    1.367   .     A
C360   H384    1.082   .     S
C360   C13     1.416   1_565 S
C361   N388    1.367   .     A
C361   H385    1.082   .     S
C362   H386    1.082   .     S
C362   N387    1.367   .     A
C362   C11     1.416   1_565 S
C363   C368    1.459   .     S
C363   O396    1.294   .     A
C363   O393    1.290   .     A
C364   C367    1.473   .     S
C364   O395    1.300   .     A
C364   O394    1.291   .     A
C365   H381    1.080   .     S
C365   C375    1.394   .     A
C365   C367    1.397   .     A
C366   H382    1.080   .     S
C366   C368    1.391   .     A
C366   C376    1.394   .     A
C367   C369    1.417   .     A
C368   C370    1.406   .     A
C369   Br397   1.941   .     S
C369   C371    1.415   .     A
C370   Br398   1.940   .     S
C370   C372    1.413   .     A
C371   C377    1.418   .     A
C371   C373    1.420   .     A
C372   C378    1.417   .     A
C372   C374    1.422   .     A
C373   C375    1.412   .     A
C373   C896    1.406   .     S
C374   C376    1.415   .     A
C374   C895    1.406   1_554 S
C377   Br399   1.937   .     S
C377   C873    1.402   .     S
C378   Br400   1.937   .     S
C378   C874    1.404   1_554 S
Cu379  O391    1.955   .     S
Cu379  Cu380   2.674   .     S
Cu379  O395    1.964   .     S
Cu379  O393    1.969   .     S
Cu379  O389    1.954   .     S
Cu379  N387    2.010   .     S
Cu380  O396    1.964   .     S
Cu380  O392    1.955   .     S
Cu380  O394    1.969   .     S
Cu380  N388    2.010   .     S
Cu380  O390    1.954   .     S
C407   O450    1.287   .     A
C407   O447    1.287   .     A
C407   C416    1.442   .     S
C408   O449    1.287   .     A
C408   O448    1.286   .     A
C408   C415    1.441   .     S
C409   Br459   1.938   .     S
C409   C434    1.410   .     A
C409   C957    1.402   1_554 S
C410   Br460   1.938   .     S
C410   C433    1.411   .     A
C410   C958    1.404   .     S
C411   C416    1.405   .     A
C411   Br461   1.930   .     S
C412   Br462   1.933   .     S
C412   C415    1.406   .     A
C412   C472    1.396   .     S
C413   Br463   1.934   .     S
C413   C415    1.405   .     A
C413   C469    1.394   .     S
C414   C416    1.406   .     A
C414   Br464   1.933   .     S
C417   N446    1.367   .     A
C417   H441    1.082   .     S
C418   N445    1.367   .     A
C418   H442    1.082   .     S
C418   C71     1.416   1_565 S
C419   N446    1.367   .     A
C419   H443    1.082   .     S
C420   H444    1.082   .     S
C420   N445    1.367   .     A
C420   C69     1.416   1_565 S
C421   C426    1.459   .     S
C421   O454    1.294   .     A
C421   O451    1.290   .     A
C422   C425    1.473   .     S
C422   O453    1.300   .     A
C422   O452    1.291   .     A
C423   H439    1.080   .     S
C423   C433    1.394   .     A
C423   C425    1.397   .     A
C424   H440    1.080   .     S
C424   C426    1.391   .     A
C424   C434    1.394   .     A
C425   C427    1.417   .     A
C426   C428    1.406   .     A
C427   Br455   1.941   .     S
C427   C429    1.415   .     A
C428   Br456   1.940   .     S
C428   C430    1.413   .     A
C429   C435    1.418   .     A
C429   C431    1.420   .     A
C430   C436    1.417   .     A
C430   C432    1.422   .     A
C431   C433    1.412   .     A
C431   C954    1.406   .     S
C432   C434    1.415   .     A
C432   C953    1.406   1_554 S
C435   Br457   1.937   .     S
C435   C931    1.402   .     S
C436   Br458   1.937   .     S
C436   C932    1.404   1_554 S
Cu437  O449    1.955   .     S
Cu437  Cu438   2.674   .     S
Cu437  O453    1.964   .     S
Cu437  O451    1.969   .     S
Cu437  O447    1.954   .     S
Cu437  N445    2.010   .     S
Cu438  O454    1.964   .     S
Cu438  O450    1.955   .     S
Cu438  O452    1.969   .     S
Cu438  N446    2.010   .     S
Cu438  O448    1.954   .     S
C465   O508    1.287   .     A
C465   O505    1.287   .     A
C465   C474    1.442   .     S
C466   O507    1.287   .     A
C466   O506    1.286   .     A
C466   C473    1.441   .     S
C467   Br517   1.938   .     S
C467   C492    1.410   .     A
C467   C1015   1.402   1_554 S
C468   Br518   1.938   .     S
C468   C491    1.411   .     A
C468   C1016   1.404   .     S
C469   C474    1.405   .     A
C469   Br519   1.930   .     S
C470   Br520   1.933   .     S
C470   C473    1.406   .     A
C470   C356    1.396   1_655 S
C471   Br521   1.934   .     S
C471   C473    1.405   .     A
C471   C353    1.394   1_655 S
C472   C474    1.406   .     A
C472   Br522   1.933   .     S
C475   N504    1.367   .     A
C475   H499    1.082   .     S
C476   N503    1.367   .     A
C476   H500    1.082   .     S
C476   C129    1.416   1_565 S
C477   N504    1.367   .     A
C477   H501    1.082   .     S
C478   H502    1.082   .     S
C478   N503    1.367   .     A
C478   C127    1.416   1_565 S
C479   C484    1.459   .     S
C479   O512    1.294   .     A
C479   O509    1.290   .     A
C480   C483    1.473   .     S
C480   O511    1.300   .     A
C480   O510    1.291   .     A
C481   H497    1.080   .     S
C481   C491    1.394   .     A
C481   C483    1.397   .     A
C482   H498    1.080   .     S
C482   C484    1.391   .     A
C482   C492    1.394   .     A
C483   C485    1.417   .     A
C484   C486    1.406   .     A
C485   Br513   1.941   .     S
C485   C487    1.415   .     A
C486   Br514   1.940   .     S
C486   C488    1.413   .     A
C487   C493    1.418   .     A
C487   C489    1.420   .     A
C488   C494    1.417   .     A
C488   C490    1.422   .     A
C489   C491    1.412   .     A
C489   C1012   1.406   .     S
C490   C492    1.415   .     A
C490   C1011   1.406   1_554 S
C493   Br515   1.937   .     S
C493   C989    1.402   .     S
C494   Br516   1.937   .     S
C494   C990    1.404   1_554 S
Cu495  O507    1.955   .     S
Cu495  Cu496   2.674   .     S
Cu495  O511    1.964   .     S
Cu495  O509    1.969   .     S
Cu495  O505    1.954   .     S
Cu495  N503    2.010   .     S
Cu496  O512    1.964   .     S
Cu496  O508    1.955   .     S
Cu496  O510    1.969   .     S
Cu496  N504    2.010   .     S
Cu496  O506    1.954   .     S
C523   O566    1.287   .     A
C523   O563    1.287   .     A
C523   C532    1.442   .     S
C524   O565    1.287   .     A
C524   O564    1.286   .     A
C524   C531    1.441   .     S
C525   Br575   1.938   .     S
C525   C550    1.410   .     A
C526   Br576   1.938   .     S
C526   C549    1.411   .     A
C526   C30     1.404   1_556 S
C527   C532    1.405   .     A
C527   Br577   1.930   .     S
C527   C645    1.394   1_455 S
C528   Br578   1.933   .     S
C528   C531    1.406   .     A
C528   C588    1.396   .     S
C529   Br579   1.934   .     S
C529   C531    1.405   .     A
C529   C585    1.394   .     S
C530   C532    1.406   .     A
C530   Br580   1.933   .     S
C530   C644    1.396   1_455 S
C533   N562    1.367   .     A
C533   H557    1.082   .     S
C533   C884    1.416   1_545 S
C534   N561    1.367   .     A
C534   H558    1.082   .     S
C534   C709    1.416   .     S
C535   N562    1.367   .     A
C535   H559    1.082   .     S
C535   C882    1.416   1_545 S
C536   H560    1.082   .     S
C536   N561    1.367   .     A
C536   C707    1.416   .     S
C537   C542    1.459   .     S
C537   O570    1.294   .     A
C537   O567    1.290   .     A
C538   C541    1.473   .     S
C538   O569    1.300   .     A
C538   O568    1.291   .     A
C539   H555    1.080   .     S
C539   C549    1.394   .     A
C539   C541    1.397   .     A
C540   H556    1.080   .     S
C540   C542    1.391   .     A
C540   C550    1.394   .     A
C541   C543    1.417   .     A
C542   C544    1.406   .     A
C543   Br571   1.941   .     S
C543   C545    1.415   .     A
C544   Br572   1.940   .     S
C544   C546    1.413   .     A
C545   C551    1.418   .     A
C545   C547    1.420   .     A
C546   C552    1.417   .     A
C546   C548    1.422   .     A
C547   C549    1.412   .     A
C547   C26     1.406   1_556 S
C548   C550    1.415   .     A
C551   Br573   1.937   .     S
C551   C3      1.402   1_556 S
C552   Br574   1.937   .     S
Cu553  O565    1.955   .     S
Cu553  Cu554   2.674   .     S
Cu553  O569    1.964   .     S
Cu553  O567    1.969   .     S
Cu553  O563    1.954   .     S
Cu553  N561    2.010   .     S
Cu554  O570    1.964   .     S
Cu554  O566    1.955   .     S
Cu554  O568    1.969   .     S
Cu554  N562    2.010   .     S
Cu554  O564    1.954   .     S
C581   O624    1.287   .     A
C581   O621    1.287   .     A
C581   C590    1.442   .     S
C582   O623    1.287   .     A
C582   O622    1.286   .     A
C582   C589    1.441   .     S
C583   Br633   1.938   .     S
C583   C608    1.410   .     A
C584   Br634   1.938   .     S
C584   C607    1.411   .     A
C584   C88     1.404   1_556 S
C585   C590    1.405   .     A
C585   Br635   1.930   .     S
C586   Br636   1.933   .     S
C586   C589    1.406   .     A
C586   C646    1.396   .     S
C587   Br637   1.934   .     S
C587   C589    1.405   .     A
C587   C643    1.394   .     S
C588   C590    1.406   .     A
C588   Br638   1.933   .     S
C591   N620    1.367   .     A
C591   H615    1.082   .     S
C591   C942    1.416   1_545 S
C592   N619    1.367   .     A
C592   H616    1.082   .     S
C592   C767    1.416   .     S
C593   N620    1.367   .     A
C593   H617    1.082   .     S
C593   C940    1.416   1_545 S
C594   H618    1.082   .     S
C594   N619    1.367   .     A
C594   C765    1.416   .     S
C595   C600    1.459   .     S
C595   O628    1.294   .     A
C595   O625    1.290   .     A
C596   C599    1.473   .     S
C596   O627    1.300   .     A
C596   O626    1.291   .     A
C597   H613    1.080   .     S
C597   C607    1.394   .     A
C597   C599    1.397   .     A
C598   H614    1.080   .     S
C598   C600    1.391   .     A
C598   C608    1.394   .     A
C599   C601    1.417   .     A
C600   C602    1.406   .     A
C601   Br629   1.941   .     S
C601   C603    1.415   .     A
C602   Br630   1.940   .     S
C602   C604    1.413   .     A
C603   C609    1.418   .     A
C603   C605    1.420   .     A
C604   C610    1.417   .     A
C604   C606    1.422   .     A
C605   C607    1.412   .     A
C605   C84     1.406   1_556 S
C606   C608    1.415   .     A
C609   Br631   1.937   .     S
C609   C61     1.402   1_556 S
C610   Br632   1.937   .     S
Cu611  O623    1.955   .     S
Cu611  Cu612   2.674   .     S
Cu611  O627    1.964   .     S
Cu611  O625    1.969   .     S
Cu611  O621    1.954   .     S
Cu611  N619    2.010   .     S
Cu612  O628    1.964   .     S
Cu612  O624    1.955   .     S
Cu612  O626    1.969   .     S
Cu612  N620    2.010   .     S
Cu612  O622    1.954   .     S
C639   O682    1.287   .     A
C639   O679    1.287   .     A
C639   C648    1.442   .     S
C640   O681    1.287   .     A
C640   O680    1.286   .     A
C640   C647    1.441   .     S
C641   Br691   1.938   .     S
C641   C666    1.410   .     A
C642   Br692   1.938   .     S
C642   C665    1.411   .     A
C642   C146    1.404   1_556 S
C643   C648    1.405   .     A
C643   Br693   1.930   .     S
C644   Br694   1.933   .     S
C644   C647    1.406   .     A
C644   C530    1.396   1_655 S
C645   Br695   1.934   .     S
C645   C647    1.405   .     A
C645   C527    1.394   1_655 S
C646   C648    1.406   .     A
C646   Br696   1.933   .     S
C649   N678    1.367   .     A
C649   H673    1.082   .     S
C649   C1000   1.416   1_545 S
C650   N677    1.367   .     A
C650   H674    1.082   .     S
C650   C825    1.416   .     S
C651   N678    1.367   .     A
C651   H675    1.082   .     S
C651   C998    1.416   1_545 S
C652   H676    1.082   .     S
C652   N677    1.367   .     A
C652   C823    1.416   .     S
C653   C658    1.459   .     S
C653   O686    1.294   .     A
C653   O683    1.290   .     A
C654   C657    1.473   .     S
C654   O685    1.300   .     A
C654   O684    1.291   .     A
C655   H671    1.080   .     S
C655   C665    1.394   .     A
C655   C657    1.397   .     A
C656   H672    1.080   .     S
C656   C658    1.391   .     A
C656   C666    1.394   .     A
C657   C659    1.417   .     A
C658   C660    1.406   .     A
C659   Br687   1.941   .     S
C659   C661    1.415   .     A
C660   Br688   1.940   .     S
C660   C662    1.413   .     A
C661   C667    1.418   .     A
C661   C663    1.420   .     A
C662   C668    1.417   .     A
C662   C664    1.422   .     A
C663   C665    1.412   .     A
C663   C142    1.406   1_556 S
C664   C666    1.415   .     A
C667   Br689   1.937   .     S
C667   C119    1.402   1_556 S
C668   Br690   1.937   .     S
Cu669  O681    1.955   .     S
Cu669  Cu670   2.674   .     S
Cu669  O685    1.964   .     S
Cu669  O683    1.969   .     S
Cu669  O679    1.954   .     S
Cu669  N677    2.010   .     S
Cu670  O686    1.964   .     S
Cu670  O682    1.955   .     S
Cu670  O684    1.969   .     S
Cu670  N678    2.010   .     S
Cu670  O680    1.954   .     S
C697   O740    1.287   .     A
C697   O737    1.287   .     A
C697   C706    1.442   .     S
C698   O739    1.287   .     A
C698   O738    1.286   .     A
C698   C705    1.441   .     S
C699   Br749   1.938   .     S
C699   C724    1.410   .     A
C700   Br750   1.938   .     S
C700   C723    1.411   .     A
C700   C204    1.404   1_556 S
C701   C706    1.405   .     A
C701   Br751   1.930   .     S
C701   C819    1.394   1_455 S
C702   Br752   1.933   .     S
C702   C705    1.406   .     A
C702   C762    1.396   .     S
C703   Br753   1.934   .     S
C703   C705    1.405   .     A
C703   C759    1.394   .     S
C704   C706    1.406   .     A
C704   Br754   1.933   .     S
C704   C818    1.396   1_455 S
C707   N736    1.367   .     A
C707   H731    1.082   .     S
C708   N735    1.367   .     A
C708   H732    1.082   .     S
C708   C883    1.416   .     S
C709   N736    1.367   .     A
C709   H733    1.082   .     S
C710   H734    1.082   .     S
C710   N735    1.367   .     A
C710   C881    1.416   .     S
C711   C716    1.459   .     S
C711   O744    1.294   .     A
C711   O741    1.290   .     A
C712   C715    1.473   .     S
C712   O743    1.300   .     A
C712   O742    1.291   .     A
C713   H729    1.080   .     S
C713   C723    1.394   .     A
C713   C715    1.397   .     A
C714   H730    1.080   .     S
C714   C716    1.391   .     A
C714   C724    1.394   .     A
C715   C717    1.417   .     A
C716   C718    1.406   .     A
C717   Br745   1.941   .     S
C717   C719    1.415   .     A
C718   Br746   1.940   .     S
C718   C720    1.413   .     A
C719   C725    1.418   .     A
C719   C721    1.420   .     A
C720   C726    1.417   .     A
C720   C722    1.422   .     A
C721   C723    1.412   .     A
C721   C200    1.406   1_556 S
C722   C724    1.415   .     A
C725   Br747   1.937   .     S
C725   C177    1.402   1_556 S
C726   Br748   1.937   .     S
Cu727  O739    1.955   .     S
Cu727  Cu728   2.674   .     S
Cu727  O743    1.964   .     S
Cu727  O741    1.969   .     S
Cu727  O737    1.954   .     S
Cu727  N735    2.010   .     S
Cu728  O744    1.964   .     S
Cu728  O740    1.955   .     S
Cu728  O742    1.969   .     S
Cu728  N736    2.010   .     S
Cu728  O738    1.954   .     S
C755   O798    1.287   .     A
C755   O795    1.287   .     A
C755   C764    1.442   .     S
C756   O797    1.287   .     A
C756   O796    1.286   .     A
C756   C763    1.441   .     S
C757   Br807   1.938   .     S
C757   C782    1.410   .     A
C758   Br808   1.938   .     S
C758   C781    1.411   .     A
C758   C262    1.404   1_556 S
C759   C764    1.405   .     A
C759   Br809   1.930   .     S
C760   Br810   1.933   .     S
C760   C763    1.406   .     A
C760   C820    1.396   .     S
C761   Br811   1.934   .     S
C761   C763    1.405   .     A
C761   C817    1.394   .     S
C762   C764    1.406   .     A
C762   Br812   1.933   .     S
C765   N794    1.367   .     A
C765   H789    1.082   .     S
C766   N793    1.367   .     A
C766   H790    1.082   .     S
C766   C941    1.416   .     S
C767   N794    1.367   .     A
C767   H791    1.082   .     S
C768   H792    1.082   .     S
C768   N793    1.367   .     A
C768   C939    1.416   .     S
C769   C774    1.459   .     S
C769   O802    1.294   .     A
C769   O799    1.290   .     A
C770   C773    1.473   .     S
C770   O801    1.300   .     A
C770   O800    1.291   .     A
C771   H787    1.080   .     S
C771   C781    1.394   .     A
C771   C773    1.397   .     A
C772   H788    1.080   .     S
C772   C774    1.391   .     A
C772   C782    1.394   .     A
C773   C775    1.417   .     A
C774   C776    1.406   .     A
C775   Br803   1.941   .     S
C775   C777    1.415   .     A
C776   Br804   1.940   .     S
C776   C778    1.413   .     A
C777   C783    1.418   .     A
C777   C779    1.420   .     A
C778   C784    1.417   .     A
C778   C780    1.422   .     A
C779   C781    1.412   .     A
C779   C258    1.406   1_556 S
C780   C782    1.415   .     A
C783   Br805   1.937   .     S
C783   C235    1.402   1_556 S
C784   Br806   1.937   .     S
Cu785  O797    1.955   .     S
Cu785  Cu786   2.674   .     S
Cu785  O801    1.964   .     S
Cu785  O799    1.969   .     S
Cu785  O795    1.954   .     S
Cu785  N793    2.010   .     S
Cu786  O802    1.964   .     S
Cu786  O798    1.955   .     S
Cu786  O800    1.969   .     S
Cu786  N794    2.010   .     S
Cu786  O796    1.954   .     S
C813   O856    1.287   .     A
C813   O853    1.287   .     A
C813   C822    1.442   .     S
C814   O855    1.287   .     A
C814   O854    1.286   .     A
C814   C821    1.441   .     S
C815   Br865   1.938   .     S
C815   C840    1.410   .     A
C816   Br866   1.938   .     S
C816   C839    1.411   .     A
C816   C320    1.404   1_556 S
C817   C822    1.405   .     A
C817   Br867   1.930   .     S
C818   Br868   1.933   .     S
C818   C821    1.406   .     A
C818   C704    1.396   1_655 S
C819   Br869   1.934   .     S
C819   C821    1.405   .     A
C819   C701    1.394   1_655 S
C820   C822    1.406   .     A
C820   Br870   1.933   .     S
C823   N852    1.367   .     A
C823   H847    1.082   .     S
C824   N851    1.367   .     A
C824   H848    1.082   .     S
C824   C999    1.416   .     S
C825   N852    1.367   .     A
C825   H849    1.082   .     S
C826   H850    1.082   .     S
C826   N851    1.367   .     A
C826   C997    1.416   .     S
C827   C832    1.459   .     S
C827   O860    1.294   .     A
C827   O857    1.290   .     A
C828   C831    1.473   .     S
C828   O859    1.300   .     A
C828   O858    1.291   .     A
C829   H845    1.080   .     S
C829   C839    1.394   .     A
C829   C831    1.397   .     A
C830   H846    1.080   .     S
C830   C832    1.391   .     A
C830   C840    1.394   .     A
C831   C833    1.417   .     A
C832   C834    1.406   .     A
C833   Br861   1.941   .     S
C833   C835    1.415   .     A
C834   Br862   1.940   .     S
C834   C836    1.413   .     A
C835   C841    1.418   .     A
C835   C837    1.420   .     A
C836   C842    1.417   .     A
C836   C838    1.422   .     A
C837   C839    1.412   .     A
C837   C316    1.406   1_556 S
C838   C840    1.415   .     A
C841   Br863   1.937   .     S
C841   C293    1.402   1_556 S
C842   Br864   1.937   .     S
Cu843  O855    1.955   .     S
Cu843  Cu844   2.674   .     S
Cu843  O859    1.964   .     S
Cu843  O857    1.969   .     S
Cu843  O853    1.954   .     S
Cu843  N851    2.010   .     S
Cu844  O860    1.964   .     S
Cu844  O856    1.955   .     S
Cu844  O858    1.969   .     S
Cu844  N852    2.010   .     S
Cu844  O854    1.954   .     S
C871   O914    1.287   .     A
C871   O911    1.287   .     A
C871   C880    1.442   .     S
C872   O913    1.287   .     A
C872   O912    1.286   .     A
C872   C879    1.441   .     S
C873   Br923   1.938   .     S
C873   C898    1.410   .     A
C874   Br924   1.938   .     S
C874   C897    1.411   .     A
C874   C378    1.404   1_556 S
C875   C880    1.405   .     A
C875   Br925   1.930   .     S
C875   C993    1.394   1_455 S
C876   Br926   1.933   .     S
C876   C879    1.406   .     A
C876   C936    1.396   .     S
C877   Br927   1.934   .     S
C877   C879    1.405   .     A
C877   C933    1.394   .     S
C878   C880    1.406   .     A
C878   Br928   1.933   .     S
C878   C992    1.396   1_455 S
C881   N910    1.367   .     A
C881   H905    1.082   .     S
C882   N909    1.367   .     A
C882   H906    1.082   .     S
C882   C535    1.416   1_565 S
C883   N910    1.367   .     A
C883   H907    1.082   .     S
C884   H908    1.082   .     S
C884   N909    1.367   .     A
C884   C533    1.416   1_565 S
C885   C890    1.459   .     S
C885   O918    1.294   .     A
C885   O915    1.290   .     A
C886   C889    1.473   .     S
C886   O917    1.300   .     A
C886   O916    1.291   .     A
C887   H903    1.080   .     S
C887   C897    1.394   .     A
C887   C889    1.397   .     A
C888   H904    1.080   .     S
C888   C890    1.391   .     A
C888   C898    1.394   .     A
C889   C891    1.417   .     A
C890   C892    1.406   .     A
C891   Br919   1.941   .     S
C891   C893    1.415   .     A
C892   Br920   1.940   .     S
C892   C894    1.413   .     A
C893   C899    1.418   .     A
C893   C895    1.420   .     A
C894   C900    1.417   .     A
C894   C896    1.422   .     A
C895   C897    1.412   .     A
C895   C374    1.406   1_556 S
C896   C898    1.415   .     A
C899   Br921   1.937   .     S
C899   C351    1.402   1_556 S
C900   Br922   1.937   .     S
Cu901  O913    1.955   .     S
Cu901  Cu902   2.674   .     S
Cu901  O917    1.964   .     S
Cu901  O915    1.969   .     S
Cu901  O911    1.954   .     S
Cu901  N909    2.010   .     S
Cu902  O918    1.964   .     S
Cu902  O914    1.955   .     S
Cu902  O916    1.969   .     S
Cu902  N910    2.010   .     S
Cu902  O912    1.954   .     S
C929   O972    1.287   .     A
C929   O969    1.287   .     A
C929   C938    1.442   .     S
C930   O971    1.287   .     A
C930   O970    1.286   .     A
C930   C937    1.441   .     S
C931   Br981   1.938   .     S
C931   C956    1.410   .     A
C932   Br982   1.938   .     S
C932   C955    1.411   .     A
C932   C436    1.404   1_556 S
C933   C938    1.405   .     A
C933   Br983   1.930   .     S
C934   Br984   1.933   .     S
C934   C937    1.406   .     A
C934   C994    1.396   .     S
C935   Br985   1.934   .     S
C935   C937    1.405   .     A
C935   C991    1.394   .     S
C936   C938    1.406   .     A
C936   Br986   1.933   .     S
C939   N968    1.367   .     A
C939   H963    1.082   .     S
C940   N967    1.367   .     A
C940   H964    1.082   .     S
C940   C593    1.416   1_565 S
C941   N968    1.367   .     A
C941   H965    1.082   .     S
C942   H966    1.082   .     S
C942   N967    1.367   .     A
C942   C591    1.416   1_565 S
C943   C948    1.459   .     S
C943   O976    1.294   .     A
C943   O973    1.290   .     A
C944   C947    1.473   .     S
C944   O975    1.300   .     A
C944   O974    1.291   .     A
C945   H961    1.080   .     S
C945   C955    1.394   .     A
C945   C947    1.397   .     A
C946   H962    1.080   .     S
C946   C948    1.391   .     A
C946   C956    1.394   .     A
C947   C949    1.417   .     A
C948   C950    1.406   .     A
C949   Br977   1.941   .     S
C949   C951    1.415   .     A
C950   Br978   1.940   .     S
C950   C952    1.413   .     A
C951   C957    1.418   .     A
C951   C953    1.420   .     A
C952   C958    1.417   .     A
C952   C954    1.422   .     A
C953   C955    1.412   .     A
C953   C432    1.406   1_556 S
C954   C956    1.415   .     A
C957   Br979   1.937   .     S
C957   C409    1.402   1_556 S
C958   Br980   1.937   .     S
Cu959  O971    1.955   .     S
Cu959  Cu960   2.674   .     S
Cu959  O975    1.964   .     S
Cu959  O973    1.969   .     S
Cu959  O969    1.954   .     S
Cu959  N967    2.010   .     S
Cu960  O976    1.964   .     S
Cu960  O972    1.955   .     S
Cu960  O974    1.969   .     S
Cu960  N968    2.010   .     S
Cu960  O970    1.954   .     S
C987   O1030   1.287   .     A
C987   O1027   1.287   .     A
C987   C996    1.442   .     S
C988   O1029   1.287   .     A
C988   O1028   1.286   .     A
C988   C995    1.441   .     S
C989   Br1039  1.938   .     S
C989   C1014   1.410   .     A
C990   Br1040  1.938   .     S
C990   C1013   1.411   .     A
C990   C494    1.404   1_556 S
C991   C996    1.405   .     A
C991   Br1041  1.930   .     S
C992   Br1042  1.933   .     S
C992   C995    1.406   .     A
C992   C878    1.396   1_655 S
C993   Br1043  1.934   .     S
C993   C995    1.405   .     A
C993   C875    1.394   1_655 S
C994   C996    1.406   .     A
C994   Br1044  1.933   .     S
C997   N1026   1.367   .     A
C997   H1021   1.082   .     S
C998   N1025   1.367   .     A
C998   H1022   1.082   .     S
C998   C651    1.416   1_565 S
C999   N1026   1.367   .     A
C999   H1023   1.082   .     S
C1000  H1024   1.082   .     S
C1000  N1025   1.367   .     A
C1000  C649    1.416   1_565 S
C1001  C1006   1.459   .     S
C1001  O1034   1.294   .     A
C1001  O1031   1.290   .     A
C1002  C1005   1.473   .     S
C1002  O1033   1.300   .     A
C1002  O1032   1.291   .     A
C1003  H1019   1.080   .     S
C1003  C1013   1.394   .     A
C1003  C1005   1.397   .     A
C1004  H1020   1.080   .     S
C1004  C1006   1.391   .     A
C1004  C1014   1.394   .     A
C1005  C1007   1.417   .     A
C1006  C1008   1.406   .     A
C1007  Br1035  1.941   .     S
C1007  C1009   1.415   .     A
C1008  Br1036  1.940   .     S
C1008  C1010   1.413   .     A
C1009  C1015   1.418   .     A
C1009  C1011   1.420   .     A
C1010  C1016   1.417   .     A
C1010  C1012   1.422   .     A
C1011  C1013   1.412   .     A
C1011  C490    1.406   1_556 S
C1012  C1014   1.415   .     A
C1015  Br1037  1.937   .     S
C1015  C467    1.402   1_556 S
C1016  Br1038  1.937   .     S
Cu1017 O1029   1.955   .     S
Cu1017 Cu1018  2.674   .     S
Cu1017 O1033   1.964   .     S
Cu1017 O1031   1.969   .     S
Cu1017 O1027   1.954   .     S
Cu1017 N1025   2.010   .     S
Cu1018 O1034   1.964   .     S
Cu1018 O1030   1.955   .     S
Cu1018 O1032   1.969   .     S
Cu1018 N1026   2.010   .     S
Cu1018 O1028   1.954   .     S
