data_str_m2_o1_o16_pcu_sym.126
_audit_creation_date              2020-01-03
_audit_creation_method            'Materials Studio'
_symmetry_space_group_name_H-M    'P1'
_symmetry_Int_Tables_number       1
_symmetry_cell_setting            triclinic
loop_
_symmetry_equiv_pos_as_xyz
  x,y,z
_cell_length_a                    28.7851
_cell_length_b                    32.3259
_cell_length_c                    26.8151
_cell_angle_alpha                 91.7006
_cell_angle_beta                  72.0222
_cell_angle_gamma                 89.8647
loop_
_atom_site_label
_atom_site_type_symbol
_atom_site_fract_x
_atom_site_fract_y
_atom_site_fract_z
_atom_site_U_iso_or_equiv
_atom_site_adp_type
_atom_site_occupancy
C1     C     0.16664   0.24582   0.25004   0.00000  Uiso   1.00
C2     C     0.14332   0.15852   0.49065   0.00000  Uiso   1.00
C3     C     0.15587   0.15000   0.43586   0.00000  Uiso   1.00
C4     C     0.17996   0.15390   0.01572   0.00000  Uiso   1.00
C5     C     0.22420   0.13253   0.48868   0.00000  Uiso   1.00
C6     C     0.23251   0.11825   0.43698   0.00000  Uiso   1.00
C7     C     0.19908   0.12715   0.41089   0.00000  Uiso   1.00
C8     C     0.17506   0.17113   0.06601   0.00000  Uiso   1.00
C9     C     0.25068   0.13837   0.06596   0.00000  Uiso   1.00
C10    C     0.12380   0.16307   0.40814   0.00000  Uiso   1.00
C11    C     0.20218   0.31126   0.21045   0.00000  Uiso   1.00
C12    C     0.14027   0.16504   0.35021   0.00000  Uiso   1.00
C13    C     0.20219   0.02100   0.21192   0.00000  Uiso   1.00
C14    C     0.16652   0.04310   0.25056   0.00000  Uiso   1.00
C15    C     0.13077   0.02304   0.28940   0.00000  Uiso   1.00
C16    C     0.13100   0.31316   0.29059   0.00000  Uiso   1.00
C17    C     0.16658   0.29065   0.25033   0.00000  Uiso   1.00
C18    C     0.29893   0.19222   0.28360   0.00000  Uiso   1.00
C19    C     0.01512   0.19269   0.28296   0.00000  Uiso   1.00
C20    C     0.03441   0.13992   0.21745   0.00000  Uiso   1.00
C21    C     0.31879   0.14141   0.21519   0.00000  Uiso   1.00
C22    C     0.16666   0.08758   0.25009   0.00000  Uiso   1.00
C23    C     0.19298   0.16630   0.14985   0.00000  Uiso   1.00
C24    C     0.25946   0.12554   0.01389   0.00000  Uiso   1.00
C25    C     0.20792   0.16029   0.09264   0.00000  Uiso   1.00
C26    C     0.07629   0.17683   0.43673   0.00000  Uiso   1.00
C27    C     0.06121   0.17784   0.49118   0.00000  Uiso   1.00
C28    C     0.09395   0.16884   0.01824   0.00000  Uiso   1.00
Cu29   Cu    0.11978   0.16666   0.25000   0.00000  Uiso   1.00
Cu30   Cu    0.21355   0.16667   0.25000   0.00000  Uiso   1.00
H31    H     0.27674   0.13024   0.08558   0.00000  Uiso   1.00
H32    H     0.22894   0.03759   0.18185   0.00000  Uiso   1.00
H33    H     0.29316   0.10897   0.49400   0.00000  Uiso   1.00
H34    H     0.02371   0.18598   0.01274   0.00000  Uiso   1.00
H35    H     0.20673   0.11411   0.37160   0.00000  Uiso   1.00
N36    N     0.04931   0.16666   0.24999   0.00000  Uiso   1.00
N37    N     0.28402   0.16669   0.24999   0.00000  Uiso   1.00
O38    O     0.12708   0.22678   0.25001   0.00000  Uiso   1.00
O39    O     0.20627   0.22679   0.25001   0.00000  Uiso   1.00
O40    O     0.10775   0.16665   0.32549   0.00000  Uiso   1.00
O41    O     0.18694   0.16666   0.32549   0.00000  Uiso   1.00
O42    O     0.12706   0.10654   0.25000   0.00000  Uiso   1.00
O43    O     0.20625   0.10655   0.24999   0.00000  Uiso   1.00
O44    O     0.14640   0.16667   0.17451   0.00000  Uiso   1.00
O45    O     0.22559   0.16668   0.17451   0.00000  Uiso   1.00
F46    F     0.09751   0.04594   0.32735   0.00000  Uiso   1.00
C47    C     0.09584   0.29188   0.33502   0.00000  Uiso   1.00
H48    H     0.10212   0.26001   0.34296   0.00000  Uiso   1.00
O49    O     0.05942   0.30965   0.36358   0.00000  Uiso   1.00
F50    F     0.26621   0.21811   0.31751   0.00000  Uiso   1.00
F51    F     0.02843   0.21901   0.31622   0.00000  Uiso   1.00
C52    C     0.06807   0.10706   0.18727   0.00000  Uiso   1.00
H53    H     0.09843   0.11417   0.15329   0.00000  Uiso   1.00
O54    O     0.06028   0.07096   0.19899   0.00000  Uiso   1.00
C55    C     0.30691   0.11672   0.17302   0.00000  Uiso   1.00
H56    H     0.27134   0.10468   0.17759   0.00000  Uiso   1.00
O57    O     0.00444   0.10972   0.13068   0.00000  Uiso   1.00
F58    F     0.27365   0.09633   0.41103   0.00000  Uiso   1.00
F59    F     0.14132   0.20123   0.08800   0.00000  Uiso   1.00
F60    F     0.04383   0.18881   0.41232   0.00000  Uiso   1.00
F61    F     0.07527   0.16575   0.07097   0.00000  Uiso   1.00
C62    C     0.23824   0.28853   0.16596   0.00000  Uiso   1.00
H63    H     0.23494   0.25560   0.15928   0.00000  Uiso   1.00
O64    O     0.27211   0.30653   0.13562   0.00000  Uiso   1.00
C65    C     0.49998   0.24582   0.25004   0.00000  Uiso   1.00
C66    C     0.47665   0.15852   0.49065   0.00000  Uiso   1.00
C67    C     0.48920   0.15000   0.43586   0.00000  Uiso   1.00
C68    C     0.51329   0.15390   0.01572   0.00000  Uiso   1.00
C69    C     0.55754   0.13253   0.48868   0.00000  Uiso   1.00
C70    C     0.56585   0.11825   0.43698   0.00000  Uiso   1.00
C71    C     0.53242   0.12715   0.41089   0.00000  Uiso   1.00
C72    C     0.50840   0.17113   0.06601   0.00000  Uiso   1.00
C73    C     0.58402   0.13837   0.06596   0.00000  Uiso   1.00
C74    C     0.45714   0.16307   0.40814   0.00000  Uiso   1.00
C75    C     0.53552   0.31126   0.21045   0.00000  Uiso   1.00
C76    C     0.47360   0.16504   0.35021   0.00000  Uiso   1.00
C77    C     0.53552   0.02100   0.21192   0.00000  Uiso   1.00
C78    C     0.49985   0.04310   0.25056   0.00000  Uiso   1.00
C79    C     0.46410   0.02304   0.28940   0.00000  Uiso   1.00
C80    C     0.46433   0.31316   0.29059   0.00000  Uiso   1.00
C81    C     0.49991   0.29065   0.25033   0.00000  Uiso   1.00
C82    C     0.63226   0.19222   0.28360   0.00000  Uiso   1.00
C83    C     0.34846   0.19269   0.28296   0.00000  Uiso   1.00
C84    C     0.36775   0.13992   0.21745   0.00000  Uiso   1.00
C85    C     0.65212   0.14141   0.21519   0.00000  Uiso   1.00
C86    C     0.49999   0.08758   0.25009   0.00000  Uiso   1.00
C87    C     0.52632   0.16630   0.14985   0.00000  Uiso   1.00
C88    C     0.59279   0.12554   0.01389   0.00000  Uiso   1.00
C89    C     0.54125   0.16029   0.09264   0.00000  Uiso   1.00
C90    C     0.40962   0.17683   0.43673   0.00000  Uiso   1.00
C91    C     0.39455   0.17784   0.49118   0.00000  Uiso   1.00
C92    C     0.42729   0.16884   0.01824   0.00000  Uiso   1.00
Cu93   Cu    0.45311   0.16666   0.25000   0.00000  Uiso   1.00
Cu94   Cu    0.54689   0.16667   0.25000   0.00000  Uiso   1.00
H95    H     0.61008   0.13024   0.08558   0.00000  Uiso   1.00
H96    H     0.56227   0.03759   0.18185   0.00000  Uiso   1.00
H97    H     0.62650   0.10897   0.49400   0.00000  Uiso   1.00
H98    H     0.35704   0.18598   0.01274   0.00000  Uiso   1.00
H99    H     0.54006   0.11411   0.37160   0.00000  Uiso   1.00
N100   N     0.38265   0.16666   0.24999   0.00000  Uiso   1.00
N101   N     0.61735   0.16669   0.24999   0.00000  Uiso   1.00
O102   O     0.46042   0.22678   0.25001   0.00000  Uiso   1.00
O103   O     0.53961   0.22679   0.25001   0.00000  Uiso   1.00
O104   O     0.44108   0.16665   0.32549   0.00000  Uiso   1.00
O105   O     0.52027   0.16666   0.32549   0.00000  Uiso   1.00
O106   O     0.46039   0.10654   0.25000   0.00000  Uiso   1.00
O107   O     0.53958   0.10655   0.24999   0.00000  Uiso   1.00
O108   O     0.47973   0.16667   0.17451   0.00000  Uiso   1.00
O109   O     0.55892   0.16668   0.17451   0.00000  Uiso   1.00
F110   F     0.43085   0.04594   0.32735   0.00000  Uiso   1.00
C111   C     0.42918   0.29188   0.33502   0.00000  Uiso   1.00
H112   H     0.43545   0.26001   0.34296   0.00000  Uiso   1.00
O113   O     0.39276   0.30965   0.36358   0.00000  Uiso   1.00
F114   F     0.59954   0.21811   0.31751   0.00000  Uiso   1.00
F115   F     0.36176   0.21901   0.31622   0.00000  Uiso   1.00
C116   C     0.40140   0.10706   0.18727   0.00000  Uiso   1.00
H117   H     0.43176   0.11417   0.15329   0.00000  Uiso   1.00
O118   O     0.39362   0.07096   0.19899   0.00000  Uiso   1.00
C119   C     0.64024   0.11672   0.17302   0.00000  Uiso   1.00
H120   H     0.60468   0.10468   0.17759   0.00000  Uiso   1.00
O121   O     0.33778   0.10972   0.13068   0.00000  Uiso   1.00
F122   F     0.60698   0.09633   0.41103   0.00000  Uiso   1.00
F123   F     0.47465   0.20123   0.08800   0.00000  Uiso   1.00
F124   F     0.37716   0.18881   0.41232   0.00000  Uiso   1.00
F125   F     0.40860   0.16575   0.07097   0.00000  Uiso   1.00
C126   C     0.57158   0.28853   0.16596   0.00000  Uiso   1.00
H127   H     0.56827   0.25560   0.15928   0.00000  Uiso   1.00
O128   O     0.60545   0.30653   0.13562   0.00000  Uiso   1.00
C129   C     0.83331   0.24582   0.25004   0.00000  Uiso   1.00
C130   C     0.80999   0.15852   0.49065   0.00000  Uiso   1.00
C131   C     0.82254   0.15000   0.43586   0.00000  Uiso   1.00
C132   C     0.84662   0.15390   0.01572   0.00000  Uiso   1.00
C133   C     0.89087   0.13253   0.48868   0.00000  Uiso   1.00
C134   C     0.89918   0.11825   0.43698   0.00000  Uiso   1.00
C135   C     0.86575   0.12715   0.41089   0.00000  Uiso   1.00
C136   C     0.84173   0.17113   0.06601   0.00000  Uiso   1.00
C137   C     0.91735   0.13837   0.06596   0.00000  Uiso   1.00
C138   C     0.79047   0.16307   0.40814   0.00000  Uiso   1.00
C139   C     0.86885   0.31126   0.21045   0.00000  Uiso   1.00
C140   C     0.80693   0.16504   0.35021   0.00000  Uiso   1.00
C141   C     0.86886   0.02100   0.21192   0.00000  Uiso   1.00
C142   C     0.83318   0.04310   0.25056   0.00000  Uiso   1.00
C143   C     0.79743   0.02304   0.28940   0.00000  Uiso   1.00
C144   C     0.79766   0.31316   0.29059   0.00000  Uiso   1.00
C145   C     0.83325   0.29065   0.25033   0.00000  Uiso   1.00
C146   C     0.96560   0.19222   0.28360   0.00000  Uiso   1.00
C147   C     0.68179   0.19269   0.28296   0.00000  Uiso   1.00
C148   C     0.70108   0.13992   0.21745   0.00000  Uiso   1.00
C149   C     0.98545   0.14141   0.21519   0.00000  Uiso   1.00
C150   C     0.83332   0.08758   0.25009   0.00000  Uiso   1.00
C151   C     0.85965   0.16630   0.14985   0.00000  Uiso   1.00
C152   C     0.92612   0.12554   0.01389   0.00000  Uiso   1.00
C153   C     0.87458   0.16029   0.09264   0.00000  Uiso   1.00
C154   C     0.74295   0.17683   0.43673   0.00000  Uiso   1.00
C155   C     0.72788   0.17784   0.49118   0.00000  Uiso   1.00
C156   C     0.76062   0.16884   0.01824   0.00000  Uiso   1.00
Cu157  Cu    0.78645   0.16666   0.25000   0.00000  Uiso   1.00
Cu158  Cu    0.88022   0.16667   0.25000   0.00000  Uiso   1.00
H159   H     0.94341   0.13024   0.08558   0.00000  Uiso   1.00
H160   H     0.89560   0.03759   0.18185   0.00000  Uiso   1.00
H161   H     0.95983   0.10897   0.49400   0.00000  Uiso   1.00
H162   H     0.69038   0.18598   0.01274   0.00000  Uiso   1.00
H163   H     0.87340   0.11411   0.37160   0.00000  Uiso   1.00
N164   N     0.71598   0.16666   0.24999   0.00000  Uiso   1.00
N165   N     0.95069   0.16669   0.24999   0.00000  Uiso   1.00
O166   O     0.79375   0.22678   0.25001   0.00000  Uiso   1.00
O167   O     0.87294   0.22679   0.25001   0.00000  Uiso   1.00
O168   O     0.77441   0.16665   0.32549   0.00000  Uiso   1.00
O169   O     0.85360   0.16666   0.32549   0.00000  Uiso   1.00
O170   O     0.79373   0.10654   0.25000   0.00000  Uiso   1.00
O171   O     0.87292   0.10655   0.24999   0.00000  Uiso   1.00
O172   O     0.81306   0.16667   0.17451   0.00000  Uiso   1.00
O173   O     0.89225   0.16668   0.17451   0.00000  Uiso   1.00
F174   F     0.76418   0.04594   0.32735   0.00000  Uiso   1.00
C175   C     0.76251   0.29188   0.33502   0.00000  Uiso   1.00
H176   H     0.76879   0.26001   0.34296   0.00000  Uiso   1.00
O177   O     0.72609   0.30965   0.36358   0.00000  Uiso   1.00
F178   F     0.93287   0.21811   0.31751   0.00000  Uiso   1.00
F179   F     0.69510   0.21901   0.31622   0.00000  Uiso   1.00
C180   C     0.73474   0.10706   0.18727   0.00000  Uiso   1.00
H181   H     0.76509   0.11417   0.15329   0.00000  Uiso   1.00
O182   O     0.72695   0.07096   0.19899   0.00000  Uiso   1.00
C183   C     0.97357   0.11672   0.17302   0.00000  Uiso   1.00
H184   H     0.93801   0.10468   0.17759   0.00000  Uiso   1.00
O185   O     0.67111   0.10972   0.13068   0.00000  Uiso   1.00
F186   F     0.94031   0.09633   0.41103   0.00000  Uiso   1.00
F187   F     0.80799   0.20123   0.08800   0.00000  Uiso   1.00
F188   F     0.71049   0.18881   0.41232   0.00000  Uiso   1.00
F189   F     0.74193   0.16575   0.07097   0.00000  Uiso   1.00
C190   C     0.90491   0.28853   0.16596   0.00000  Uiso   1.00
H191   H     0.90160   0.25560   0.15928   0.00000  Uiso   1.00
O192   O     0.93878   0.30653   0.13562   0.00000  Uiso   1.00
C193   C     0.16664   0.57915   0.25004   0.00000  Uiso   1.00
C194   C     0.14332   0.49186   0.49065   0.00000  Uiso   1.00
C195   C     0.15587   0.48333   0.43586   0.00000  Uiso   1.00
C196   C     0.17996   0.48723   0.01572   0.00000  Uiso   1.00
C197   C     0.22420   0.46586   0.48868   0.00000  Uiso   1.00
C198   C     0.23251   0.45158   0.43698   0.00000  Uiso   1.00
C199   C     0.19908   0.46048   0.41089   0.00000  Uiso   1.00
C200   C     0.17506   0.50446   0.06601   0.00000  Uiso   1.00
C201   C     0.25068   0.47170   0.06596   0.00000  Uiso   1.00
C202   C     0.12380   0.49640   0.40814   0.00000  Uiso   1.00
C203   C     0.20218   0.64459   0.21045   0.00000  Uiso   1.00
C204   C     0.14027   0.49838   0.35021   0.00000  Uiso   1.00
C205   C     0.20219   0.35433   0.21192   0.00000  Uiso   1.00
C206   C     0.16652   0.37643   0.25056   0.00000  Uiso   1.00
C207   C     0.13077   0.35637   0.28940   0.00000  Uiso   1.00
C208   C     0.13100   0.64649   0.29059   0.00000  Uiso   1.00
C209   C     0.16658   0.62398   0.25033   0.00000  Uiso   1.00
C210   C     0.29893   0.52555   0.28360   0.00000  Uiso   1.00
C211   C     0.01512   0.52602   0.28296   0.00000  Uiso   1.00
C212   C     0.03441   0.47325   0.21745   0.00000  Uiso   1.00
C213   C     0.31879   0.47475   0.21519   0.00000  Uiso   1.00
C214   C     0.16666   0.42091   0.25009   0.00000  Uiso   1.00
C215   C     0.19298   0.49964   0.14985   0.00000  Uiso   1.00
C216   C     0.25946   0.45887   0.01389   0.00000  Uiso   1.00
C217   C     0.20792   0.49362   0.09264   0.00000  Uiso   1.00
C218   C     0.07629   0.51016   0.43673   0.00000  Uiso   1.00
C219   C     0.06121   0.51117   0.49118   0.00000  Uiso   1.00
C220   C     0.09395   0.50217   0.01824   0.00000  Uiso   1.00
Cu221  Cu    0.11978   0.49999   0.25000   0.00000  Uiso   1.00
Cu222  Cu    0.21355   0.50001   0.25000   0.00000  Uiso   1.00
H223   H     0.27674   0.46357   0.08558   0.00000  Uiso   1.00
H224   H     0.22894   0.37093   0.18185   0.00000  Uiso   1.00
H225   H     0.29316   0.44230   0.49400   0.00000  Uiso   1.00
H226   H     0.02371   0.51932   0.01274   0.00000  Uiso   1.00
H227   H     0.20673   0.44745   0.37160   0.00000  Uiso   1.00
N228   N     0.04931   0.49999   0.24999   0.00000  Uiso   1.00
N229   N     0.28402   0.50002   0.24999   0.00000  Uiso   1.00
O230   O     0.12708   0.56011   0.25001   0.00000  Uiso   1.00
O231   O     0.20627   0.56012   0.25001   0.00000  Uiso   1.00
O232   O     0.10775   0.49998   0.32549   0.00000  Uiso   1.00
O233   O     0.18694   0.49999   0.32549   0.00000  Uiso   1.00
O234   O     0.12706   0.43988   0.25000   0.00000  Uiso   1.00
O235   O     0.20625   0.43989   0.24999   0.00000  Uiso   1.00
O236   O     0.14640   0.50001   0.17451   0.00000  Uiso   1.00
O237   O     0.22559   0.50002   0.17451   0.00000  Uiso   1.00
F238   F     0.09751   0.37927   0.32735   0.00000  Uiso   1.00
C239   C     0.09584   0.62522   0.33502   0.00000  Uiso   1.00
H240   H     0.10212   0.59334   0.34296   0.00000  Uiso   1.00
O241   O     0.05942   0.64299   0.36358   0.00000  Uiso   1.00
F242   F     0.26621   0.55144   0.31751   0.00000  Uiso   1.00
F243   F     0.02843   0.55234   0.31622   0.00000  Uiso   1.00
C244   C     0.06807   0.44040   0.18727   0.00000  Uiso   1.00
H245   H     0.09843   0.44751   0.15329   0.00000  Uiso   1.00
O246   O     0.06028   0.40429   0.19899   0.00000  Uiso   1.00
C247   C     0.30691   0.45005   0.17302   0.00000  Uiso   1.00
H248   H     0.27134   0.43802   0.17759   0.00000  Uiso   1.00
O249   O     0.00444   0.44305   0.13068   0.00000  Uiso   1.00
F250   F     0.27365   0.42967   0.41103   0.00000  Uiso   1.00
F251   F     0.14132   0.53457   0.08800   0.00000  Uiso   1.00
F252   F     0.04383   0.52215   0.41232   0.00000  Uiso   1.00
F253   F     0.07527   0.49908   0.07097   0.00000  Uiso   1.00
C254   C     0.23824   0.62186   0.16596   0.00000  Uiso   1.00
H255   H     0.23494   0.58893   0.15928   0.00000  Uiso   1.00
O256   O     0.27211   0.63986   0.13562   0.00000  Uiso   1.00
C257   C     0.49998   0.57915   0.25004   0.00000  Uiso   1.00
C258   C     0.47665   0.49186   0.49065   0.00000  Uiso   1.00
C259   C     0.48920   0.48333   0.43586   0.00000  Uiso   1.00
C260   C     0.51329   0.48723   0.01572   0.00000  Uiso   1.00
C261   C     0.55754   0.46586   0.48868   0.00000  Uiso   1.00
C262   C     0.56585   0.45158   0.43698   0.00000  Uiso   1.00
C263   C     0.53242   0.46048   0.41089   0.00000  Uiso   1.00
C264   C     0.50840   0.50446   0.06601   0.00000  Uiso   1.00
C265   C     0.58402   0.47170   0.06596   0.00000  Uiso   1.00
C266   C     0.45714   0.49640   0.40814   0.00000  Uiso   1.00
C267   C     0.53552   0.64459   0.21045   0.00000  Uiso   1.00
C268   C     0.47360   0.49838   0.35021   0.00000  Uiso   1.00
C269   C     0.53552   0.35433   0.21192   0.00000  Uiso   1.00
C270   C     0.49985   0.37643   0.25056   0.00000  Uiso   1.00
C271   C     0.46410   0.35637   0.28940   0.00000  Uiso   1.00
C272   C     0.46433   0.64649   0.29059   0.00000  Uiso   1.00
C273   C     0.49991   0.62398   0.25033   0.00000  Uiso   1.00
C274   C     0.63226   0.52555   0.28360   0.00000  Uiso   1.00
C275   C     0.34846   0.52602   0.28296   0.00000  Uiso   1.00
C276   C     0.36775   0.47325   0.21745   0.00000  Uiso   1.00
C277   C     0.65212   0.47475   0.21519   0.00000  Uiso   1.00
C278   C     0.49999   0.42091   0.25009   0.00000  Uiso   1.00
C279   C     0.52632   0.49964   0.14985   0.00000  Uiso   1.00
C280   C     0.59279   0.45887   0.01389   0.00000  Uiso   1.00
C281   C     0.54125   0.49362   0.09264   0.00000  Uiso   1.00
C282   C     0.40962   0.51016   0.43673   0.00000  Uiso   1.00
C283   C     0.39455   0.51117   0.49118   0.00000  Uiso   1.00
C284   C     0.42729   0.50217   0.01824   0.00000  Uiso   1.00
Cu285  Cu    0.45311   0.49999   0.25000   0.00000  Uiso   1.00
Cu286  Cu    0.54689   0.50001   0.25000   0.00000  Uiso   1.00
H287   H     0.61008   0.46357   0.08558   0.00000  Uiso   1.00
H288   H     0.56227   0.37093   0.18185   0.00000  Uiso   1.00
H289   H     0.62650   0.44230   0.49400   0.00000  Uiso   1.00
H290   H     0.35704   0.51932   0.01274   0.00000  Uiso   1.00
H291   H     0.54006   0.44745   0.37160   0.00000  Uiso   1.00
N292   N     0.38265   0.49999   0.24999   0.00000  Uiso   1.00
N293   N     0.61735   0.50002   0.24999   0.00000  Uiso   1.00
O294   O     0.46042   0.56011   0.25001   0.00000  Uiso   1.00
O295   O     0.53961   0.56012   0.25001   0.00000  Uiso   1.00
O296   O     0.44108   0.49998   0.32549   0.00000  Uiso   1.00
O297   O     0.52027   0.49999   0.32549   0.00000  Uiso   1.00
O298   O     0.46039   0.43988   0.25000   0.00000  Uiso   1.00
O299   O     0.53958   0.43989   0.24999   0.00000  Uiso   1.00
O300   O     0.47973   0.50001   0.17451   0.00000  Uiso   1.00
O301   O     0.55892   0.50002   0.17451   0.00000  Uiso   1.00
F302   F     0.43085   0.37927   0.32735   0.00000  Uiso   1.00
C303   C     0.42918   0.62522   0.33502   0.00000  Uiso   1.00
H304   H     0.43545   0.59334   0.34296   0.00000  Uiso   1.00
O305   O     0.39276   0.64299   0.36358   0.00000  Uiso   1.00
F306   F     0.59954   0.55144   0.31751   0.00000  Uiso   1.00
F307   F     0.36176   0.55234   0.31622   0.00000  Uiso   1.00
C308   C     0.40140   0.44040   0.18727   0.00000  Uiso   1.00
H309   H     0.43176   0.44751   0.15329   0.00000  Uiso   1.00
O310   O     0.39362   0.40429   0.19899   0.00000  Uiso   1.00
C311   C     0.64024   0.45005   0.17302   0.00000  Uiso   1.00
H312   H     0.60468   0.43802   0.17759   0.00000  Uiso   1.00
O313   O     0.33778   0.44305   0.13068   0.00000  Uiso   1.00
F314   F     0.60698   0.42967   0.41103   0.00000  Uiso   1.00
F315   F     0.47465   0.53457   0.08800   0.00000  Uiso   1.00
F316   F     0.37716   0.52215   0.41232   0.00000  Uiso   1.00
F317   F     0.40860   0.49908   0.07097   0.00000  Uiso   1.00
C318   C     0.57158   0.62186   0.16596   0.00000  Uiso   1.00
H319   H     0.56827   0.58893   0.15928   0.00000  Uiso   1.00
O320   O     0.60545   0.63986   0.13562   0.00000  Uiso   1.00
C321   C     0.83331   0.57915   0.25004   0.00000  Uiso   1.00
C322   C     0.80999   0.49186   0.49065   0.00000  Uiso   1.00
C323   C     0.82254   0.48333   0.43586   0.00000  Uiso   1.00
C324   C     0.84662   0.48723   0.01572   0.00000  Uiso   1.00
C325   C     0.89087   0.46586   0.48868   0.00000  Uiso   1.00
C326   C     0.89918   0.45158   0.43698   0.00000  Uiso   1.00
C327   C     0.86575   0.46048   0.41089   0.00000  Uiso   1.00
C328   C     0.84173   0.50446   0.06601   0.00000  Uiso   1.00
C329   C     0.91735   0.47170   0.06596   0.00000  Uiso   1.00
C330   C     0.79047   0.49640   0.40814   0.00000  Uiso   1.00
C331   C     0.86885   0.64459   0.21045   0.00000  Uiso   1.00
C332   C     0.80693   0.49838   0.35021   0.00000  Uiso   1.00
C333   C     0.86886   0.35433   0.21192   0.00000  Uiso   1.00
C334   C     0.83318   0.37643   0.25056   0.00000  Uiso   1.00
C335   C     0.79743   0.35637   0.28940   0.00000  Uiso   1.00
C336   C     0.79766   0.64649   0.29059   0.00000  Uiso   1.00
C337   C     0.83325   0.62398   0.25033   0.00000  Uiso   1.00
C338   C     0.96560   0.52555   0.28360   0.00000  Uiso   1.00
C339   C     0.68179   0.52602   0.28296   0.00000  Uiso   1.00
C340   C     0.70108   0.47325   0.21745   0.00000  Uiso   1.00
C341   C     0.98545   0.47475   0.21519   0.00000  Uiso   1.00
C342   C     0.83332   0.42091   0.25009   0.00000  Uiso   1.00
C343   C     0.85965   0.49964   0.14985   0.00000  Uiso   1.00
C344   C     0.92612   0.45887   0.01389   0.00000  Uiso   1.00
C345   C     0.87458   0.49362   0.09264   0.00000  Uiso   1.00
C346   C     0.74295   0.51016   0.43673   0.00000  Uiso   1.00
C347   C     0.72788   0.51117   0.49118   0.00000  Uiso   1.00
C348   C     0.76062   0.50217   0.01824   0.00000  Uiso   1.00
Cu349  Cu    0.78645   0.49999   0.25000   0.00000  Uiso   1.00
Cu350  Cu    0.88022   0.50001   0.25000   0.00000  Uiso   1.00
H351   H     0.94341   0.46357   0.08558   0.00000  Uiso   1.00
H352   H     0.89560   0.37093   0.18185   0.00000  Uiso   1.00
H353   H     0.95983   0.44230   0.49400   0.00000  Uiso   1.00
H354   H     0.69038   0.51932   0.01274   0.00000  Uiso   1.00
H355   H     0.87340   0.44745   0.37160   0.00000  Uiso   1.00
N356   N     0.71598   0.49999   0.24999   0.00000  Uiso   1.00
N357   N     0.95069   0.50002   0.24999   0.00000  Uiso   1.00
O358   O     0.79375   0.56011   0.25001   0.00000  Uiso   1.00
O359   O     0.87294   0.56012   0.25001   0.00000  Uiso   1.00
O360   O     0.77441   0.49998   0.32549   0.00000  Uiso   1.00
O361   O     0.85360   0.49999   0.32549   0.00000  Uiso   1.00
O362   O     0.79373   0.43988   0.25000   0.00000  Uiso   1.00
O363   O     0.87292   0.43989   0.24999   0.00000  Uiso   1.00
O364   O     0.81306   0.50001   0.17451   0.00000  Uiso   1.00
O365   O     0.89225   0.50002   0.17451   0.00000  Uiso   1.00
F366   F     0.76418   0.37927   0.32735   0.00000  Uiso   1.00
C367   C     0.76251   0.62522   0.33502   0.00000  Uiso   1.00
H368   H     0.76879   0.59334   0.34296   0.00000  Uiso   1.00
O369   O     0.72609   0.64299   0.36358   0.00000  Uiso   1.00
F370   F     0.93287   0.55144   0.31751   0.00000  Uiso   1.00
F371   F     0.69510   0.55234   0.31622   0.00000  Uiso   1.00
C372   C     0.73474   0.44040   0.18727   0.00000  Uiso   1.00
H373   H     0.76509   0.44751   0.15329   0.00000  Uiso   1.00
O374   O     0.72695   0.40429   0.19899   0.00000  Uiso   1.00
C375   C     0.97357   0.45005   0.17302   0.00000  Uiso   1.00
H376   H     0.93801   0.43802   0.17759   0.00000  Uiso   1.00
O377   O     0.67111   0.44305   0.13068   0.00000  Uiso   1.00
F378   F     0.94031   0.42967   0.41103   0.00000  Uiso   1.00
F379   F     0.80799   0.53457   0.08800   0.00000  Uiso   1.00
F380   F     0.71049   0.52215   0.41232   0.00000  Uiso   1.00
F381   F     0.74193   0.49908   0.07097   0.00000  Uiso   1.00
C382   C     0.90491   0.62186   0.16596   0.00000  Uiso   1.00
H383   H     0.90160   0.58893   0.15928   0.00000  Uiso   1.00
O384   O     0.93878   0.63986   0.13562   0.00000  Uiso   1.00
C385   C     0.16664   0.91248   0.25004   0.00000  Uiso   1.00
C386   C     0.14332   0.82519   0.49065   0.00000  Uiso   1.00
C387   C     0.15587   0.81667   0.43586   0.00000  Uiso   1.00
C388   C     0.17996   0.82056   0.01572   0.00000  Uiso   1.00
C389   C     0.22420   0.79919   0.48868   0.00000  Uiso   1.00
C390   C     0.23251   0.78492   0.43698   0.00000  Uiso   1.00
C391   C     0.19908   0.79381   0.41089   0.00000  Uiso   1.00
C392   C     0.17506   0.83780   0.06601   0.00000  Uiso   1.00
C393   C     0.25068   0.80504   0.06596   0.00000  Uiso   1.00
C394   C     0.12380   0.82973   0.40814   0.00000  Uiso   1.00
C395   C     0.20218   0.97793   0.21045   0.00000  Uiso   1.00
C396   C     0.14027   0.83171   0.35021   0.00000  Uiso   1.00
C397   C     0.20219   0.68767   0.21192   0.00000  Uiso   1.00
C398   C     0.16652   0.70977   0.25056   0.00000  Uiso   1.00
C399   C     0.13077   0.68970   0.28940   0.00000  Uiso   1.00
C400   C     0.13100   0.97982   0.29059   0.00000  Uiso   1.00
C401   C     0.16658   0.95731   0.25033   0.00000  Uiso   1.00
C402   C     0.29893   0.85889   0.28360   0.00000  Uiso   1.00
C403   C     0.01512   0.85936   0.28296   0.00000  Uiso   1.00
C404   C     0.03441   0.80659   0.21745   0.00000  Uiso   1.00
C405   C     0.31879   0.80808   0.21519   0.00000  Uiso   1.00
C406   C     0.16666   0.75424   0.25009   0.00000  Uiso   1.00
C407   C     0.19298   0.83297   0.14985   0.00000  Uiso   1.00
C408   C     0.25946   0.79221   0.01389   0.00000  Uiso   1.00
C409   C     0.20792   0.82696   0.09264   0.00000  Uiso   1.00
C410   C     0.07629   0.84349   0.43673   0.00000  Uiso   1.00
C411   C     0.06121   0.84451   0.49118   0.00000  Uiso   1.00
C412   C     0.09395   0.83551   0.01824   0.00000  Uiso   1.00
Cu413  Cu    0.11978   0.83333   0.25000   0.00000  Uiso   1.00
Cu414  Cu    0.21355   0.83334   0.25000   0.00000  Uiso   1.00
H415   H     0.27674   0.79691   0.08558   0.00000  Uiso   1.00
H416   H     0.22894   0.70426   0.18185   0.00000  Uiso   1.00
H417   H     0.29316   0.77564   0.49400   0.00000  Uiso   1.00
H418   H     0.02371   0.85265   0.01274   0.00000  Uiso   1.00
H419   H     0.20673   0.78078   0.37160   0.00000  Uiso   1.00
N420   N     0.04931   0.83332   0.24999   0.00000  Uiso   1.00
N421   N     0.28402   0.83335   0.24999   0.00000  Uiso   1.00
O422   O     0.12708   0.89345   0.25001   0.00000  Uiso   1.00
O423   O     0.20627   0.89346   0.25001   0.00000  Uiso   1.00
O424   O     0.10775   0.83332   0.32549   0.00000  Uiso   1.00
O425   O     0.18694   0.83333   0.32549   0.00000  Uiso   1.00
O426   O     0.12706   0.77321   0.25000   0.00000  Uiso   1.00
O427   O     0.20625   0.77322   0.24999   0.00000  Uiso   1.00
O428   O     0.14640   0.83334   0.17451   0.00000  Uiso   1.00
O429   O     0.22559   0.83335   0.17451   0.00000  Uiso   1.00
F430   F     0.09751   0.71260   0.32735   0.00000  Uiso   1.00
C431   C     0.09584   0.95855   0.33502   0.00000  Uiso   1.00
H432   H     0.10212   0.92667   0.34296   0.00000  Uiso   1.00
O433   O     0.05942   0.97632   0.36358   0.00000  Uiso   1.00
F434   F     0.26621   0.88477   0.31751   0.00000  Uiso   1.00
F435   F     0.02843   0.88567   0.31622   0.00000  Uiso   1.00
C436   C     0.06807   0.77373   0.18727   0.00000  Uiso   1.00
H437   H     0.09843   0.78084   0.15329   0.00000  Uiso   1.00
O438   O     0.06028   0.73763   0.19899   0.00000  Uiso   1.00
C439   C     0.30691   0.78338   0.17302   0.00000  Uiso   1.00
H440   H     0.27134   0.77135   0.17759   0.00000  Uiso   1.00
O441   O     0.00444   0.77638   0.13068   0.00000  Uiso   1.00
F442   F     0.27365   0.76300   0.41103   0.00000  Uiso   1.00
F443   F     0.14132   0.86790   0.08800   0.00000  Uiso   1.00
F444   F     0.04383   0.85548   0.41232   0.00000  Uiso   1.00
F445   F     0.07527   0.83242   0.07097   0.00000  Uiso   1.00
C446   C     0.23824   0.95519   0.16596   0.00000  Uiso   1.00
H447   H     0.23494   0.92226   0.15928   0.00000  Uiso   1.00
O448   O     0.27211   0.97319   0.13562   0.00000  Uiso   1.00
C449   C     0.49998   0.91248   0.25004   0.00000  Uiso   1.00
C450   C     0.47665   0.82519   0.49065   0.00000  Uiso   1.00
C451   C     0.48920   0.81667   0.43586   0.00000  Uiso   1.00
C452   C     0.51329   0.82056   0.01572   0.00000  Uiso   1.00
C453   C     0.55754   0.79919   0.48868   0.00000  Uiso   1.00
C454   C     0.56585   0.78492   0.43698   0.00000  Uiso   1.00
C455   C     0.53242   0.79381   0.41089   0.00000  Uiso   1.00
C456   C     0.50840   0.83780   0.06601   0.00000  Uiso   1.00
C457   C     0.58402   0.80504   0.06596   0.00000  Uiso   1.00
C458   C     0.45714   0.82973   0.40814   0.00000  Uiso   1.00
C459   C     0.53552   0.97793   0.21045   0.00000  Uiso   1.00
C460   C     0.47360   0.83171   0.35021   0.00000  Uiso   1.00
C461   C     0.53552   0.68767   0.21192   0.00000  Uiso   1.00
C462   C     0.49985   0.70977   0.25056   0.00000  Uiso   1.00
C463   C     0.46410   0.68970   0.28940   0.00000  Uiso   1.00
C464   C     0.46433   0.97982   0.29059   0.00000  Uiso   1.00
C465   C     0.49991   0.95731   0.25033   0.00000  Uiso   1.00
C466   C     0.63226   0.85889   0.28360   0.00000  Uiso   1.00
C467   C     0.34846   0.85936   0.28296   0.00000  Uiso   1.00
C468   C     0.36775   0.80659   0.21745   0.00000  Uiso   1.00
C469   C     0.65212   0.80808   0.21519   0.00000  Uiso   1.00
C470   C     0.49999   0.75424   0.25009   0.00000  Uiso   1.00
C471   C     0.52632   0.83297   0.14985   0.00000  Uiso   1.00
C472   C     0.59279   0.79221   0.01389   0.00000  Uiso   1.00
C473   C     0.54125   0.82696   0.09264   0.00000  Uiso   1.00
C474   C     0.40962   0.84349   0.43673   0.00000  Uiso   1.00
C475   C     0.39455   0.84451   0.49118   0.00000  Uiso   1.00
C476   C     0.42729   0.83551   0.01824   0.00000  Uiso   1.00
Cu477  Cu    0.45311   0.83333   0.25000   0.00000  Uiso   1.00
Cu478  Cu    0.54689   0.83334   0.25000   0.00000  Uiso   1.00
H479   H     0.61008   0.79691   0.08558   0.00000  Uiso   1.00
H480   H     0.56227   0.70426   0.18185   0.00000  Uiso   1.00
H481   H     0.62650   0.77564   0.49400   0.00000  Uiso   1.00
H482   H     0.35704   0.85265   0.01274   0.00000  Uiso   1.00
H483   H     0.54006   0.78078   0.37160   0.00000  Uiso   1.00
N484   N     0.38265   0.83332   0.24999   0.00000  Uiso   1.00
N485   N     0.61735   0.83335   0.24999   0.00000  Uiso   1.00
O486   O     0.46042   0.89345   0.25001   0.00000  Uiso   1.00
O487   O     0.53961   0.89346   0.25001   0.00000  Uiso   1.00
O488   O     0.44108   0.83332   0.32549   0.00000  Uiso   1.00
O489   O     0.52027   0.83333   0.32549   0.00000  Uiso   1.00
O490   O     0.46039   0.77321   0.25000   0.00000  Uiso   1.00
O491   O     0.53958   0.77322   0.24999   0.00000  Uiso   1.00
O492   O     0.47973   0.83334   0.17451   0.00000  Uiso   1.00
O493   O     0.55892   0.83335   0.17451   0.00000  Uiso   1.00
F494   F     0.43085   0.71260   0.32735   0.00000  Uiso   1.00
C495   C     0.42918   0.95855   0.33502   0.00000  Uiso   1.00
H496   H     0.43545   0.92667   0.34296   0.00000  Uiso   1.00
O497   O     0.39276   0.97632   0.36358   0.00000  Uiso   1.00
F498   F     0.59954   0.88477   0.31751   0.00000  Uiso   1.00
F499   F     0.36176   0.88567   0.31622   0.00000  Uiso   1.00
C500   C     0.40140   0.77373   0.18727   0.00000  Uiso   1.00
H501   H     0.43176   0.78084   0.15329   0.00000  Uiso   1.00
O502   O     0.39362   0.73763   0.19899   0.00000  Uiso   1.00
C503   C     0.64024   0.78338   0.17302   0.00000  Uiso   1.00
H504   H     0.60468   0.77135   0.17759   0.00000  Uiso   1.00
O505   O     0.33778   0.77638   0.13068   0.00000  Uiso   1.00
F506   F     0.60698   0.76300   0.41103   0.00000  Uiso   1.00
F507   F     0.47465   0.86790   0.08800   0.00000  Uiso   1.00
F508   F     0.37716   0.85548   0.41232   0.00000  Uiso   1.00
F509   F     0.40860   0.83242   0.07097   0.00000  Uiso   1.00
C510   C     0.57158   0.95519   0.16596   0.00000  Uiso   1.00
H511   H     0.56827   0.92226   0.15928   0.00000  Uiso   1.00
O512   O     0.60545   0.97319   0.13562   0.00000  Uiso   1.00
C513   C     0.83331   0.91248   0.25004   0.00000  Uiso   1.00
C514   C     0.80999   0.82519   0.49065   0.00000  Uiso   1.00
C515   C     0.82254   0.81667   0.43586   0.00000  Uiso   1.00
C516   C     0.84662   0.82056   0.01572   0.00000  Uiso   1.00
C517   C     0.89087   0.79919   0.48868   0.00000  Uiso   1.00
C518   C     0.89918   0.78492   0.43698   0.00000  Uiso   1.00
C519   C     0.86575   0.79381   0.41089   0.00000  Uiso   1.00
C520   C     0.84173   0.83780   0.06601   0.00000  Uiso   1.00
C521   C     0.91735   0.80504   0.06596   0.00000  Uiso   1.00
C522   C     0.79047   0.82973   0.40814   0.00000  Uiso   1.00
C523   C     0.86885   0.97793   0.21045   0.00000  Uiso   1.00
C524   C     0.80693   0.83171   0.35021   0.00000  Uiso   1.00
C525   C     0.86886   0.68767   0.21192   0.00000  Uiso   1.00
C526   C     0.83318   0.70977   0.25056   0.00000  Uiso   1.00
C527   C     0.79743   0.68970   0.28940   0.00000  Uiso   1.00
C528   C     0.79766   0.97982   0.29059   0.00000  Uiso   1.00
C529   C     0.83325   0.95731   0.25033   0.00000  Uiso   1.00
C530   C     0.96560   0.85889   0.28360   0.00000  Uiso   1.00
C531   C     0.68179   0.85936   0.28296   0.00000  Uiso   1.00
C532   C     0.70108   0.80659   0.21745   0.00000  Uiso   1.00
C533   C     0.98545   0.80808   0.21519   0.00000  Uiso   1.00
C534   C     0.83332   0.75424   0.25009   0.00000  Uiso   1.00
C535   C     0.85965   0.83297   0.14985   0.00000  Uiso   1.00
C536   C     0.92612   0.79221   0.01389   0.00000  Uiso   1.00
C537   C     0.87458   0.82696   0.09264   0.00000  Uiso   1.00
C538   C     0.74295   0.84349   0.43673   0.00000  Uiso   1.00
C539   C     0.72788   0.84451   0.49118   0.00000  Uiso   1.00
C540   C     0.76062   0.83551   0.01824   0.00000  Uiso   1.00
Cu541  Cu    0.78645   0.83333   0.25000   0.00000  Uiso   1.00
Cu542  Cu    0.88022   0.83334   0.25000   0.00000  Uiso   1.00
H543   H     0.94341   0.79691   0.08558   0.00000  Uiso   1.00
H544   H     0.89560   0.70426   0.18185   0.00000  Uiso   1.00
H545   H     0.95983   0.77564   0.49400   0.00000  Uiso   1.00
H546   H     0.69038   0.85265   0.01274   0.00000  Uiso   1.00
H547   H     0.87340   0.78078   0.37160   0.00000  Uiso   1.00
N548   N     0.71598   0.83332   0.24999   0.00000  Uiso   1.00
N549   N     0.95069   0.83335   0.24999   0.00000  Uiso   1.00
O550   O     0.79375   0.89345   0.25001   0.00000  Uiso   1.00
O551   O     0.87294   0.89346   0.25001   0.00000  Uiso   1.00
O552   O     0.77441   0.83332   0.32549   0.00000  Uiso   1.00
O553   O     0.85360   0.83333   0.32549   0.00000  Uiso   1.00
O554   O     0.79373   0.77321   0.25000   0.00000  Uiso   1.00
O555   O     0.87292   0.77322   0.24999   0.00000  Uiso   1.00
O556   O     0.81306   0.83334   0.17451   0.00000  Uiso   1.00
O557   O     0.89225   0.83335   0.17451   0.00000  Uiso   1.00
F558   F     0.76418   0.71260   0.32735   0.00000  Uiso   1.00
C559   C     0.76251   0.95855   0.33502   0.00000  Uiso   1.00
H560   H     0.76879   0.92667   0.34296   0.00000  Uiso   1.00
O561   O     0.72609   0.97632   0.36358   0.00000  Uiso   1.00
F562   F     0.93287   0.88477   0.31751   0.00000  Uiso   1.00
F563   F     0.69510   0.88567   0.31622   0.00000  Uiso   1.00
C564   C     0.73474   0.77373   0.18727   0.00000  Uiso   1.00
H565   H     0.76509   0.78084   0.15329   0.00000  Uiso   1.00
O566   O     0.72695   0.73763   0.19899   0.00000  Uiso   1.00
C567   C     0.97357   0.78338   0.17302   0.00000  Uiso   1.00
H568   H     0.93801   0.77135   0.17759   0.00000  Uiso   1.00
O569   O     0.67111   0.77638   0.13068   0.00000  Uiso   1.00
F570   F     0.94031   0.76300   0.41103   0.00000  Uiso   1.00
F571   F     0.80799   0.86790   0.08800   0.00000  Uiso   1.00
F572   F     0.71049   0.85548   0.41232   0.00000  Uiso   1.00
F573   F     0.74193   0.83242   0.07097   0.00000  Uiso   1.00
C574   C     0.90491   0.95519   0.16596   0.00000  Uiso   1.00
H575   H     0.90160   0.92226   0.15928   0.00000  Uiso   1.00
O576   O     0.93878   0.97319   0.13562   0.00000  Uiso   1.00
C577   C     0.16664   0.24582   0.75004   0.00000  Uiso   1.00
C578   C     0.14332   0.15852   0.99065   0.00000  Uiso   1.00
C579   C     0.15587   0.15000   0.93586   0.00000  Uiso   1.00
C580   C     0.17996   0.15390   0.51572   0.00000  Uiso   1.00
C581   C     0.22420   0.13253   0.98868   0.00000  Uiso   1.00
C582   C     0.23251   0.11825   0.93698   0.00000  Uiso   1.00
C583   C     0.19908   0.12715   0.91089   0.00000  Uiso   1.00
C584   C     0.17506   0.17113   0.56601   0.00000  Uiso   1.00
C585   C     0.25068   0.13837   0.56596   0.00000  Uiso   1.00
C586   C     0.12380   0.16307   0.90814   0.00000  Uiso   1.00
C587   C     0.20218   0.31126   0.71045   0.00000  Uiso   1.00
C588   C     0.14027   0.16504   0.85021   0.00000  Uiso   1.00
C589   C     0.20219   0.02100   0.71192   0.00000  Uiso   1.00
C590   C     0.16652   0.04310   0.75056   0.00000  Uiso   1.00
C591   C     0.13077   0.02304   0.78940   0.00000  Uiso   1.00
C592   C     0.13100   0.31316   0.79059   0.00000  Uiso   1.00
C593   C     0.16658   0.29065   0.75033   0.00000  Uiso   1.00
C594   C     0.29893   0.19222   0.78360   0.00000  Uiso   1.00
C595   C     0.01512   0.19269   0.78296   0.00000  Uiso   1.00
C596   C     0.03441   0.13992   0.71745   0.00000  Uiso   1.00
C597   C     0.31879   0.14141   0.71519   0.00000  Uiso   1.00
C598   C     0.16666   0.08758   0.75009   0.00000  Uiso   1.00
C599   C     0.19298   0.16630   0.64985   0.00000  Uiso   1.00
C600   C     0.25946   0.12554   0.51389   0.00000  Uiso   1.00
C601   C     0.20792   0.16029   0.59264   0.00000  Uiso   1.00
C602   C     0.07629   0.17683   0.93673   0.00000  Uiso   1.00
C603   C     0.06121   0.17784   0.99118   0.00000  Uiso   1.00
C604   C     0.09395   0.16884   0.51824   0.00000  Uiso   1.00
Cu605  Cu    0.11978   0.16666   0.75000   0.00000  Uiso   1.00
Cu606  Cu    0.21355   0.16667   0.75000   0.00000  Uiso   1.00
H607   H     0.27674   0.13024   0.58558   0.00000  Uiso   1.00
H608   H     0.22894   0.03759   0.68185   0.00000  Uiso   1.00
H609   H     0.29316   0.10897   0.99400   0.00000  Uiso   1.00
H610   H     0.02371   0.18598   0.51274   0.00000  Uiso   1.00
H611   H     0.20673   0.11411   0.87160   0.00000  Uiso   1.00
N612   N     0.04931   0.16666   0.74999   0.00000  Uiso   1.00
N613   N     0.28402   0.16669   0.74999   0.00000  Uiso   1.00
O614   O     0.12708   0.22678   0.75001   0.00000  Uiso   1.00
O615   O     0.20627   0.22679   0.75001   0.00000  Uiso   1.00
O616   O     0.10775   0.16665   0.82549   0.00000  Uiso   1.00
O617   O     0.18694   0.16666   0.82549   0.00000  Uiso   1.00
O618   O     0.12706   0.10654   0.75000   0.00000  Uiso   1.00
O619   O     0.20625   0.10655   0.74999   0.00000  Uiso   1.00
O620   O     0.14640   0.16667   0.67451   0.00000  Uiso   1.00
O621   O     0.22559   0.16668   0.67451   0.00000  Uiso   1.00
F622   F     0.09751   0.04594   0.82735   0.00000  Uiso   1.00
C623   C     0.09584   0.29188   0.83502   0.00000  Uiso   1.00
H624   H     0.10212   0.26001   0.84296   0.00000  Uiso   1.00
O625   O     0.05942   0.30965   0.86358   0.00000  Uiso   1.00
F626   F     0.26621   0.21811   0.81751   0.00000  Uiso   1.00
F627   F     0.02843   0.21901   0.81622   0.00000  Uiso   1.00
C628   C     0.06807   0.10706   0.68727   0.00000  Uiso   1.00
H629   H     0.09843   0.11417   0.65329   0.00000  Uiso   1.00
O630   O     0.06028   0.07096   0.69899   0.00000  Uiso   1.00
C631   C     0.30691   0.11672   0.67302   0.00000  Uiso   1.00
H632   H     0.27134   0.10468   0.67759   0.00000  Uiso   1.00
O633   O     0.00444   0.10972   0.63068   0.00000  Uiso   1.00
F634   F     0.27365   0.09633   0.91103   0.00000  Uiso   1.00
F635   F     0.14132   0.20123   0.58800   0.00000  Uiso   1.00
F636   F     0.04383   0.18881   0.91232   0.00000  Uiso   1.00
F637   F     0.07527   0.16575   0.57097   0.00000  Uiso   1.00
C638   C     0.23824   0.28853   0.66596   0.00000  Uiso   1.00
H639   H     0.23494   0.25560   0.65928   0.00000  Uiso   1.00
O640   O     0.27211   0.30653   0.63562   0.00000  Uiso   1.00
C641   C     0.49998   0.24582   0.75004   0.00000  Uiso   1.00
C642   C     0.47665   0.15852   0.99065   0.00000  Uiso   1.00
C643   C     0.48920   0.15000   0.93586   0.00000  Uiso   1.00
C644   C     0.51329   0.15390   0.51572   0.00000  Uiso   1.00
C645   C     0.55754   0.13253   0.98868   0.00000  Uiso   1.00
C646   C     0.56585   0.11825   0.93698   0.00000  Uiso   1.00
C647   C     0.53242   0.12715   0.91089   0.00000  Uiso   1.00
C648   C     0.50840   0.17113   0.56601   0.00000  Uiso   1.00
C649   C     0.58402   0.13837   0.56596   0.00000  Uiso   1.00
C650   C     0.45714   0.16307   0.90814   0.00000  Uiso   1.00
C651   C     0.53552   0.31126   0.71045   0.00000  Uiso   1.00
C652   C     0.47360   0.16504   0.85021   0.00000  Uiso   1.00
C653   C     0.53552   0.02100   0.71192   0.00000  Uiso   1.00
C654   C     0.49985   0.04310   0.75056   0.00000  Uiso   1.00
C655   C     0.46410   0.02304   0.78940   0.00000  Uiso   1.00
C656   C     0.46433   0.31316   0.79059   0.00000  Uiso   1.00
C657   C     0.49991   0.29065   0.75033   0.00000  Uiso   1.00
C658   C     0.63226   0.19222   0.78360   0.00000  Uiso   1.00
C659   C     0.34846   0.19269   0.78296   0.00000  Uiso   1.00
C660   C     0.36775   0.13992   0.71745   0.00000  Uiso   1.00
C661   C     0.65212   0.14141   0.71519   0.00000  Uiso   1.00
C662   C     0.49999   0.08758   0.75009   0.00000  Uiso   1.00
C663   C     0.52632   0.16630   0.64985   0.00000  Uiso   1.00
C664   C     0.59279   0.12554   0.51389   0.00000  Uiso   1.00
C665   C     0.54125   0.16029   0.59264   0.00000  Uiso   1.00
C666   C     0.40962   0.17683   0.93673   0.00000  Uiso   1.00
C667   C     0.39455   0.17784   0.99118   0.00000  Uiso   1.00
C668   C     0.42729   0.16884   0.51824   0.00000  Uiso   1.00
Cu669  Cu    0.45311   0.16666   0.75000   0.00000  Uiso   1.00
Cu670  Cu    0.54689   0.16667   0.75000   0.00000  Uiso   1.00
H671   H     0.61008   0.13024   0.58558   0.00000  Uiso   1.00
H672   H     0.56227   0.03759   0.68185   0.00000  Uiso   1.00
H673   H     0.62650   0.10897   0.99400   0.00000  Uiso   1.00
H674   H     0.35704   0.18598   0.51274   0.00000  Uiso   1.00
H675   H     0.54006   0.11411   0.87160   0.00000  Uiso   1.00
N676   N     0.38265   0.16666   0.74999   0.00000  Uiso   1.00
N677   N     0.61735   0.16669   0.74999   0.00000  Uiso   1.00
O678   O     0.46042   0.22678   0.75001   0.00000  Uiso   1.00
O679   O     0.53961   0.22679   0.75001   0.00000  Uiso   1.00
O680   O     0.44108   0.16665   0.82549   0.00000  Uiso   1.00
O681   O     0.52027   0.16666   0.82549   0.00000  Uiso   1.00
O682   O     0.46039   0.10654   0.75000   0.00000  Uiso   1.00
O683   O     0.53958   0.10655   0.74999   0.00000  Uiso   1.00
O684   O     0.47973   0.16667   0.67451   0.00000  Uiso   1.00
O685   O     0.55892   0.16668   0.67451   0.00000  Uiso   1.00
F686   F     0.43085   0.04594   0.82735   0.00000  Uiso   1.00
C687   C     0.42918   0.29188   0.83502   0.00000  Uiso   1.00
H688   H     0.43545   0.26001   0.84296   0.00000  Uiso   1.00
O689   O     0.39276   0.30965   0.86358   0.00000  Uiso   1.00
F690   F     0.59954   0.21811   0.81751   0.00000  Uiso   1.00
F691   F     0.36176   0.21901   0.81622   0.00000  Uiso   1.00
C692   C     0.40140   0.10706   0.68727   0.00000  Uiso   1.00
H693   H     0.43176   0.11417   0.65329   0.00000  Uiso   1.00
O694   O     0.39362   0.07096   0.69899   0.00000  Uiso   1.00
C695   C     0.64024   0.11672   0.67302   0.00000  Uiso   1.00
H696   H     0.60468   0.10468   0.67759   0.00000  Uiso   1.00
O697   O     0.33778   0.10972   0.63068   0.00000  Uiso   1.00
F698   F     0.60698   0.09633   0.91103   0.00000  Uiso   1.00
F699   F     0.47465   0.20123   0.58800   0.00000  Uiso   1.00
F700   F     0.37716   0.18881   0.91232   0.00000  Uiso   1.00
F701   F     0.40860   0.16575   0.57097   0.00000  Uiso   1.00
C702   C     0.57158   0.28853   0.66596   0.00000  Uiso   1.00
H703   H     0.56827   0.25560   0.65928   0.00000  Uiso   1.00
O704   O     0.60545   0.30653   0.63562   0.00000  Uiso   1.00
C705   C     0.83331   0.24582   0.75004   0.00000  Uiso   1.00
C706   C     0.80999   0.15852   0.99065   0.00000  Uiso   1.00
C707   C     0.82254   0.15000   0.93586   0.00000  Uiso   1.00
C708   C     0.84662   0.15390   0.51572   0.00000  Uiso   1.00
C709   C     0.89087   0.13253   0.98868   0.00000  Uiso   1.00
C710   C     0.89918   0.11825   0.93698   0.00000  Uiso   1.00
C711   C     0.86575   0.12715   0.91089   0.00000  Uiso   1.00
C712   C     0.84173   0.17113   0.56601   0.00000  Uiso   1.00
C713   C     0.91735   0.13837   0.56596   0.00000  Uiso   1.00
C714   C     0.79047   0.16307   0.90814   0.00000  Uiso   1.00
C715   C     0.86885   0.31126   0.71045   0.00000  Uiso   1.00
C716   C     0.80693   0.16504   0.85021   0.00000  Uiso   1.00
C717   C     0.86886   0.02100   0.71192   0.00000  Uiso   1.00
C718   C     0.83318   0.04310   0.75056   0.00000  Uiso   1.00
C719   C     0.79743   0.02304   0.78940   0.00000  Uiso   1.00
C720   C     0.79766   0.31316   0.79059   0.00000  Uiso   1.00
C721   C     0.83325   0.29065   0.75033   0.00000  Uiso   1.00
C722   C     0.96560   0.19222   0.78360   0.00000  Uiso   1.00
C723   C     0.68179   0.19269   0.78296   0.00000  Uiso   1.00
C724   C     0.70108   0.13992   0.71745   0.00000  Uiso   1.00
C725   C     0.98545   0.14141   0.71519   0.00000  Uiso   1.00
C726   C     0.83332   0.08758   0.75009   0.00000  Uiso   1.00
C727   C     0.85965   0.16630   0.64985   0.00000  Uiso   1.00
C728   C     0.92612   0.12554   0.51389   0.00000  Uiso   1.00
C729   C     0.87458   0.16029   0.59264   0.00000  Uiso   1.00
C730   C     0.74295   0.17683   0.93673   0.00000  Uiso   1.00
C731   C     0.72788   0.17784   0.99118   0.00000  Uiso   1.00
C732   C     0.76062   0.16884   0.51824   0.00000  Uiso   1.00
Cu733  Cu    0.78645   0.16666   0.75000   0.00000  Uiso   1.00
Cu734  Cu    0.88022   0.16667   0.75000   0.00000  Uiso   1.00
H735   H     0.94341   0.13024   0.58558   0.00000  Uiso   1.00
H736   H     0.89560   0.03759   0.68185   0.00000  Uiso   1.00
H737   H     0.95983   0.10897   0.99400   0.00000  Uiso   1.00
H738   H     0.69038   0.18598   0.51274   0.00000  Uiso   1.00
H739   H     0.87340   0.11411   0.87160   0.00000  Uiso   1.00
N740   N     0.71598   0.16666   0.74999   0.00000  Uiso   1.00
N741   N     0.95069   0.16669   0.74999   0.00000  Uiso   1.00
O742   O     0.79375   0.22678   0.75001   0.00000  Uiso   1.00
O743   O     0.87294   0.22679   0.75001   0.00000  Uiso   1.00
O744   O     0.77441   0.16665   0.82549   0.00000  Uiso   1.00
O745   O     0.85360   0.16666   0.82549   0.00000  Uiso   1.00
O746   O     0.79373   0.10654   0.75000   0.00000  Uiso   1.00
O747   O     0.87292   0.10655   0.74999   0.00000  Uiso   1.00
O748   O     0.81306   0.16667   0.67451   0.00000  Uiso   1.00
O749   O     0.89225   0.16668   0.67451   0.00000  Uiso   1.00
F750   F     0.76418   0.04594   0.82735   0.00000  Uiso   1.00
C751   C     0.76251   0.29188   0.83502   0.00000  Uiso   1.00
H752   H     0.76879   0.26001   0.84296   0.00000  Uiso   1.00
O753   O     0.72609   0.30965   0.86358   0.00000  Uiso   1.00
F754   F     0.93287   0.21811   0.81751   0.00000  Uiso   1.00
F755   F     0.69510   0.21901   0.81622   0.00000  Uiso   1.00
C756   C     0.73474   0.10706   0.68727   0.00000  Uiso   1.00
H757   H     0.76509   0.11417   0.65329   0.00000  Uiso   1.00
O758   O     0.72695   0.07096   0.69899   0.00000  Uiso   1.00
C759   C     0.97357   0.11672   0.67302   0.00000  Uiso   1.00
H760   H     0.93801   0.10468   0.67759   0.00000  Uiso   1.00
O761   O     0.67111   0.10972   0.63068   0.00000  Uiso   1.00
F762   F     0.94031   0.09633   0.91103   0.00000  Uiso   1.00
F763   F     0.80799   0.20123   0.58800   0.00000  Uiso   1.00
F764   F     0.71049   0.18881   0.91232   0.00000  Uiso   1.00
F765   F     0.74193   0.16575   0.57097   0.00000  Uiso   1.00
C766   C     0.90491   0.28853   0.66596   0.00000  Uiso   1.00
H767   H     0.90160   0.25560   0.65928   0.00000  Uiso   1.00
O768   O     0.93878   0.30653   0.63562   0.00000  Uiso   1.00
C769   C     0.16664   0.57915   0.75004   0.00000  Uiso   1.00
C770   C     0.14332   0.49186   0.99065   0.00000  Uiso   1.00
C771   C     0.15587   0.48333   0.93586   0.00000  Uiso   1.00
C772   C     0.17996   0.48723   0.51572   0.00000  Uiso   1.00
C773   C     0.22420   0.46586   0.98868   0.00000  Uiso   1.00
C774   C     0.23251   0.45158   0.93698   0.00000  Uiso   1.00
C775   C     0.19908   0.46048   0.91089   0.00000  Uiso   1.00
C776   C     0.17506   0.50446   0.56601   0.00000  Uiso   1.00
C777   C     0.25068   0.47170   0.56596   0.00000  Uiso   1.00
C778   C     0.12380   0.49640   0.90814   0.00000  Uiso   1.00
C779   C     0.20218   0.64459   0.71045   0.00000  Uiso   1.00
C780   C     0.14027   0.49838   0.85021   0.00000  Uiso   1.00
C781   C     0.20219   0.35433   0.71192   0.00000  Uiso   1.00
C782   C     0.16652   0.37643   0.75056   0.00000  Uiso   1.00
C783   C     0.13077   0.35637   0.78940   0.00000  Uiso   1.00
C784   C     0.13100   0.64649   0.79059   0.00000  Uiso   1.00
C785   C     0.16658   0.62398   0.75033   0.00000  Uiso   1.00
C786   C     0.29893   0.52555   0.78360   0.00000  Uiso   1.00
C787   C     0.01512   0.52602   0.78296   0.00000  Uiso   1.00
C788   C     0.03441   0.47325   0.71745   0.00000  Uiso   1.00
C789   C     0.31879   0.47475   0.71519   0.00000  Uiso   1.00
C790   C     0.16666   0.42091   0.75009   0.00000  Uiso   1.00
C791   C     0.19298   0.49964   0.64985   0.00000  Uiso   1.00
C792   C     0.25946   0.45887   0.51389   0.00000  Uiso   1.00
C793   C     0.20792   0.49362   0.59264   0.00000  Uiso   1.00
C794   C     0.07629   0.51016   0.93673   0.00000  Uiso   1.00
C795   C     0.06121   0.51117   0.99118   0.00000  Uiso   1.00
C796   C     0.09395   0.50217   0.51824   0.00000  Uiso   1.00
Cu797  Cu    0.11978   0.49999   0.75000   0.00000  Uiso   1.00
Cu798  Cu    0.21355   0.50001   0.75000   0.00000  Uiso   1.00
H799   H     0.27674   0.46357   0.58558   0.00000  Uiso   1.00
H800   H     0.22894   0.37093   0.68185   0.00000  Uiso   1.00
H801   H     0.29316   0.44230   0.99400   0.00000  Uiso   1.00
H802   H     0.02371   0.51932   0.51274   0.00000  Uiso   1.00
H803   H     0.20673   0.44745   0.87160   0.00000  Uiso   1.00
N804   N     0.04931   0.49999   0.74999   0.00000  Uiso   1.00
N805   N     0.28402   0.50002   0.74999   0.00000  Uiso   1.00
O806   O     0.12708   0.56011   0.75001   0.00000  Uiso   1.00
O807   O     0.20627   0.56012   0.75001   0.00000  Uiso   1.00
O808   O     0.10775   0.49998   0.82549   0.00000  Uiso   1.00
O809   O     0.18694   0.49999   0.82549   0.00000  Uiso   1.00
O810   O     0.12706   0.43988   0.75000   0.00000  Uiso   1.00
O811   O     0.20625   0.43989   0.74999   0.00000  Uiso   1.00
O812   O     0.14640   0.50001   0.67451   0.00000  Uiso   1.00
O813   O     0.22559   0.50002   0.67451   0.00000  Uiso   1.00
F814   F     0.09751   0.37927   0.82735   0.00000  Uiso   1.00
C815   C     0.09584   0.62522   0.83502   0.00000  Uiso   1.00
H816   H     0.10212   0.59334   0.84296   0.00000  Uiso   1.00
O817   O     0.05942   0.64299   0.86358   0.00000  Uiso   1.00
F818   F     0.26621   0.55144   0.81751   0.00000  Uiso   1.00
F819   F     0.02843   0.55234   0.81622   0.00000  Uiso   1.00
C820   C     0.06807   0.44040   0.68727   0.00000  Uiso   1.00
H821   H     0.09843   0.44751   0.65329   0.00000  Uiso   1.00
O822   O     0.06028   0.40429   0.69899   0.00000  Uiso   1.00
C823   C     0.30691   0.45005   0.67302   0.00000  Uiso   1.00
H824   H     0.27134   0.43802   0.67759   0.00000  Uiso   1.00
O825   O     0.00444   0.44305   0.63068   0.00000  Uiso   1.00
F826   F     0.27365   0.42967   0.91103   0.00000  Uiso   1.00
F827   F     0.14132   0.53457   0.58800   0.00000  Uiso   1.00
F828   F     0.04383   0.52215   0.91232   0.00000  Uiso   1.00
F829   F     0.07527   0.49908   0.57097   0.00000  Uiso   1.00
C830   C     0.23824   0.62186   0.66596   0.00000  Uiso   1.00
H831   H     0.23494   0.58893   0.65928   0.00000  Uiso   1.00
O832   O     0.27211   0.63986   0.63562   0.00000  Uiso   1.00
C833   C     0.49998   0.57915   0.75004   0.00000  Uiso   1.00
C834   C     0.47665   0.49186   0.99065   0.00000  Uiso   1.00
C835   C     0.48920   0.48333   0.93586   0.00000  Uiso   1.00
C836   C     0.51329   0.48723   0.51572   0.00000  Uiso   1.00
C837   C     0.55754   0.46586   0.98868   0.00000  Uiso   1.00
C838   C     0.56585   0.45158   0.93698   0.00000  Uiso   1.00
C839   C     0.53242   0.46048   0.91089   0.00000  Uiso   1.00
C840   C     0.50840   0.50446   0.56601   0.00000  Uiso   1.00
C841   C     0.58402   0.47170   0.56596   0.00000  Uiso   1.00
C842   C     0.45714   0.49640   0.90814   0.00000  Uiso   1.00
C843   C     0.53552   0.64459   0.71045   0.00000  Uiso   1.00
C844   C     0.47360   0.49838   0.85021   0.00000  Uiso   1.00
C845   C     0.53552   0.35433   0.71192   0.00000  Uiso   1.00
C846   C     0.49985   0.37643   0.75056   0.00000  Uiso   1.00
C847   C     0.46410   0.35637   0.78940   0.00000  Uiso   1.00
C848   C     0.46433   0.64649   0.79059   0.00000  Uiso   1.00
C849   C     0.49991   0.62398   0.75033   0.00000  Uiso   1.00
C850   C     0.63226   0.52555   0.78360   0.00000  Uiso   1.00
C851   C     0.34846   0.52602   0.78296   0.00000  Uiso   1.00
C852   C     0.36775   0.47325   0.71745   0.00000  Uiso   1.00
C853   C     0.65212   0.47475   0.71519   0.00000  Uiso   1.00
C854   C     0.49999   0.42091   0.75009   0.00000  Uiso   1.00
C855   C     0.52632   0.49964   0.64985   0.00000  Uiso   1.00
C856   C     0.59279   0.45887   0.51389   0.00000  Uiso   1.00
C857   C     0.54125   0.49362   0.59264   0.00000  Uiso   1.00
C858   C     0.40962   0.51016   0.93673   0.00000  Uiso   1.00
C859   C     0.39455   0.51117   0.99118   0.00000  Uiso   1.00
C860   C     0.42729   0.50217   0.51824   0.00000  Uiso   1.00
Cu861  Cu    0.45311   0.49999   0.75000   0.00000  Uiso   1.00
Cu862  Cu    0.54689   0.50001   0.75000   0.00000  Uiso   1.00
H863   H     0.61008   0.46357   0.58558   0.00000  Uiso   1.00
H864   H     0.56227   0.37093   0.68185   0.00000  Uiso   1.00
H865   H     0.62650   0.44230   0.99400   0.00000  Uiso   1.00
H866   H     0.35704   0.51932   0.51274   0.00000  Uiso   1.00
H867   H     0.54006   0.44745   0.87160   0.00000  Uiso   1.00
N868   N     0.38265   0.49999   0.74999   0.00000  Uiso   1.00
N869   N     0.61735   0.50002   0.74999   0.00000  Uiso   1.00
O870   O     0.46042   0.56011   0.75001   0.00000  Uiso   1.00
O871   O     0.53961   0.56012   0.75001   0.00000  Uiso   1.00
O872   O     0.44108   0.49998   0.82549   0.00000  Uiso   1.00
O873   O     0.52027   0.49999   0.82549   0.00000  Uiso   1.00
O874   O     0.46039   0.43988   0.75000   0.00000  Uiso   1.00
O875   O     0.53958   0.43989   0.74999   0.00000  Uiso   1.00
O876   O     0.47973   0.50001   0.67451   0.00000  Uiso   1.00
O877   O     0.55892   0.50002   0.67451   0.00000  Uiso   1.00
F878   F     0.43085   0.37927   0.82735   0.00000  Uiso   1.00
C879   C     0.42918   0.62522   0.83502   0.00000  Uiso   1.00
H880   H     0.43545   0.59334   0.84296   0.00000  Uiso   1.00
O881   O     0.39276   0.64299   0.86358   0.00000  Uiso   1.00
F882   F     0.59954   0.55144   0.81751   0.00000  Uiso   1.00
F883   F     0.36176   0.55234   0.81622   0.00000  Uiso   1.00
C884   C     0.40140   0.44040   0.68727   0.00000  Uiso   1.00
H885   H     0.43176   0.44751   0.65329   0.00000  Uiso   1.00
O886   O     0.39362   0.40429   0.69899   0.00000  Uiso   1.00
C887   C     0.64024   0.45005   0.67302   0.00000  Uiso   1.00
H888   H     0.60468   0.43802   0.67759   0.00000  Uiso   1.00
O889   O     0.33778   0.44305   0.63068   0.00000  Uiso   1.00
F890   F     0.60698   0.42967   0.91103   0.00000  Uiso   1.00
F891   F     0.47465   0.53457   0.58800   0.00000  Uiso   1.00
F892   F     0.37716   0.52215   0.91232   0.00000  Uiso   1.00
F893   F     0.40860   0.49908   0.57097   0.00000  Uiso   1.00
C894   C     0.57158   0.62186   0.66596   0.00000  Uiso   1.00
H895   H     0.56827   0.58893   0.65928   0.00000  Uiso   1.00
O896   O     0.60545   0.63986   0.63562   0.00000  Uiso   1.00
C897   C     0.83331   0.57915   0.75004   0.00000  Uiso   1.00
C898   C     0.80999   0.49186   0.99065   0.00000  Uiso   1.00
C899   C     0.82254   0.48333   0.93586   0.00000  Uiso   1.00
C900   C     0.84662   0.48723   0.51572   0.00000  Uiso   1.00
C901   C     0.89087   0.46586   0.98868   0.00000  Uiso   1.00
C902   C     0.89918   0.45158   0.93698   0.00000  Uiso   1.00
C903   C     0.86575   0.46048   0.91089   0.00000  Uiso   1.00
C904   C     0.84173   0.50446   0.56601   0.00000  Uiso   1.00
C905   C     0.91735   0.47170   0.56596   0.00000  Uiso   1.00
C906   C     0.79047   0.49640   0.90814   0.00000  Uiso   1.00
C907   C     0.86885   0.64459   0.71045   0.00000  Uiso   1.00
C908   C     0.80693   0.49838   0.85021   0.00000  Uiso   1.00
C909   C     0.86886   0.35433   0.71192   0.00000  Uiso   1.00
C910   C     0.83318   0.37643   0.75056   0.00000  Uiso   1.00
C911   C     0.79743   0.35637   0.78940   0.00000  Uiso   1.00
C912   C     0.79766   0.64649   0.79059   0.00000  Uiso   1.00
C913   C     0.83325   0.62398   0.75033   0.00000  Uiso   1.00
C914   C     0.96560   0.52555   0.78360   0.00000  Uiso   1.00
C915   C     0.68179   0.52602   0.78296   0.00000  Uiso   1.00
C916   C     0.70108   0.47325   0.71745   0.00000  Uiso   1.00
C917   C     0.98545   0.47475   0.71519   0.00000  Uiso   1.00
C918   C     0.83332   0.42091   0.75009   0.00000  Uiso   1.00
C919   C     0.85965   0.49964   0.64985   0.00000  Uiso   1.00
C920   C     0.92612   0.45887   0.51389   0.00000  Uiso   1.00
C921   C     0.87458   0.49362   0.59264   0.00000  Uiso   1.00
C922   C     0.74295   0.51016   0.93673   0.00000  Uiso   1.00
C923   C     0.72788   0.51117   0.99118   0.00000  Uiso   1.00
C924   C     0.76062   0.50217   0.51824   0.00000  Uiso   1.00
Cu925  Cu    0.78645   0.49999   0.75000   0.00000  Uiso   1.00
Cu926  Cu    0.88022   0.50001   0.75000   0.00000  Uiso   1.00
H927   H     0.94341   0.46357   0.58558   0.00000  Uiso   1.00
H928   H     0.89560   0.37093   0.68185   0.00000  Uiso   1.00
H929   H     0.95983   0.44230   0.99400   0.00000  Uiso   1.00
H930   H     0.69038   0.51932   0.51274   0.00000  Uiso   1.00
H931   H     0.87340   0.44745   0.87160   0.00000  Uiso   1.00
N932   N     0.71598   0.49999   0.74999   0.00000  Uiso   1.00
N933   N     0.95069   0.50002   0.74999   0.00000  Uiso   1.00
O934   O     0.79375   0.56011   0.75001   0.00000  Uiso   1.00
O935   O     0.87294   0.56012   0.75001   0.00000  Uiso   1.00
O936   O     0.77441   0.49998   0.82549   0.00000  Uiso   1.00
O937   O     0.85360   0.49999   0.82549   0.00000  Uiso   1.00
O938   O     0.79373   0.43988   0.75000   0.00000  Uiso   1.00
O939   O     0.87292   0.43989   0.74999   0.00000  Uiso   1.00
O940   O     0.81306   0.50001   0.67451   0.00000  Uiso   1.00
O941   O     0.89225   0.50002   0.67451   0.00000  Uiso   1.00
F942   F     0.76418   0.37927   0.82735   0.00000  Uiso   1.00
C943   C     0.76251   0.62522   0.83502   0.00000  Uiso   1.00
H944   H     0.76879   0.59334   0.84296   0.00000  Uiso   1.00
O945   O     0.72609   0.64299   0.86358   0.00000  Uiso   1.00
F946   F     0.93287   0.55144   0.81751   0.00000  Uiso   1.00
F947   F     0.69510   0.55234   0.81622   0.00000  Uiso   1.00
C948   C     0.73474   0.44040   0.68727   0.00000  Uiso   1.00
H949   H     0.76509   0.44751   0.65329   0.00000  Uiso   1.00
O950   O     0.72695   0.40429   0.69899   0.00000  Uiso   1.00
C951   C     0.97357   0.45005   0.67302   0.00000  Uiso   1.00
H952   H     0.93801   0.43802   0.67759   0.00000  Uiso   1.00
O953   O     0.67111   0.44305   0.63068   0.00000  Uiso   1.00
F954   F     0.94031   0.42967   0.91103   0.00000  Uiso   1.00
F955   F     0.80799   0.53457   0.58800   0.00000  Uiso   1.00
F956   F     0.71049   0.52215   0.91232   0.00000  Uiso   1.00
F957   F     0.74193   0.49908   0.57097   0.00000  Uiso   1.00
C958   C     0.90491   0.62186   0.66596   0.00000  Uiso   1.00
H959   H     0.90160   0.58893   0.65928   0.00000  Uiso   1.00
O960   O     0.93878   0.63986   0.63562   0.00000  Uiso   1.00
C961   C     0.16664   0.91248   0.75004   0.00000  Uiso   1.00
C962   C     0.14332   0.82519   0.99065   0.00000  Uiso   1.00
C963   C     0.15587   0.81667   0.93586   0.00000  Uiso   1.00
C964   C     0.17996   0.82056   0.51572   0.00000  Uiso   1.00
C965   C     0.22420   0.79919   0.98868   0.00000  Uiso   1.00
C966   C     0.23251   0.78492   0.93698   0.00000  Uiso   1.00
C967   C     0.19908   0.79381   0.91089   0.00000  Uiso   1.00
C968   C     0.17506   0.83780   0.56601   0.00000  Uiso   1.00
C969   C     0.25068   0.80504   0.56596   0.00000  Uiso   1.00
C970   C     0.12380   0.82973   0.90814   0.00000  Uiso   1.00
C971   C     0.20218   0.97793   0.71045   0.00000  Uiso   1.00
C972   C     0.14027   0.83171   0.85021   0.00000  Uiso   1.00
C973   C     0.20219   0.68767   0.71192   0.00000  Uiso   1.00
C974   C     0.16652   0.70977   0.75056   0.00000  Uiso   1.00
C975   C     0.13077   0.68970   0.78940   0.00000  Uiso   1.00
C976   C     0.13100   0.97982   0.79059   0.00000  Uiso   1.00
C977   C     0.16658   0.95731   0.75033   0.00000  Uiso   1.00
C978   C     0.29893   0.85889   0.78360   0.00000  Uiso   1.00
C979   C     0.01512   0.85936   0.78296   0.00000  Uiso   1.00
C980   C     0.03441   0.80659   0.71745   0.00000  Uiso   1.00
C981   C     0.31879   0.80808   0.71519   0.00000  Uiso   1.00
C982   C     0.16666   0.75424   0.75009   0.00000  Uiso   1.00
C983   C     0.19298   0.83297   0.64985   0.00000  Uiso   1.00
C984   C     0.25946   0.79221   0.51389   0.00000  Uiso   1.00
C985   C     0.20792   0.82696   0.59264   0.00000  Uiso   1.00
C986   C     0.07629   0.84349   0.93673   0.00000  Uiso   1.00
C987   C     0.06121   0.84451   0.99118   0.00000  Uiso   1.00
C988   C     0.09395   0.83551   0.51824   0.00000  Uiso   1.00
Cu989  Cu    0.11978   0.83333   0.75000   0.00000  Uiso   1.00
Cu990  Cu    0.21355   0.83334   0.75000   0.00000  Uiso   1.00
H991   H     0.27674   0.79691   0.58558   0.00000  Uiso   1.00
H992   H     0.22894   0.70426   0.68185   0.00000  Uiso   1.00
H993   H     0.29316   0.77564   0.99400   0.00000  Uiso   1.00
H994   H     0.02371   0.85265   0.51274   0.00000  Uiso   1.00
H995   H     0.20673   0.78078   0.87160   0.00000  Uiso   1.00
N996   N     0.04931   0.83332   0.74999   0.00000  Uiso   1.00
N997   N     0.28402   0.83335   0.74999   0.00000  Uiso   1.00
O998   O     0.12708   0.89345   0.75001   0.00000  Uiso   1.00
O999   O     0.20627   0.89346   0.75001   0.00000  Uiso   1.00
O1000  O     0.10775   0.83332   0.82549   0.00000  Uiso   1.00
O1001  O     0.18694   0.83333   0.82549   0.00000  Uiso   1.00
O1002  O     0.12706   0.77321   0.75000   0.00000  Uiso   1.00
O1003  O     0.20625   0.77322   0.74999   0.00000  Uiso   1.00
O1004  O     0.14640   0.83334   0.67451   0.00000  Uiso   1.00
O1005  O     0.22559   0.83335   0.67451   0.00000  Uiso   1.00
F1006  F     0.09751   0.71260   0.82735   0.00000  Uiso   1.00
C1007  C     0.09584   0.95855   0.83502   0.00000  Uiso   1.00
H1008  H     0.10212   0.92667   0.84296   0.00000  Uiso   1.00
O1009  O     0.05942   0.97632   0.86358   0.00000  Uiso   1.00
F1010  F     0.26621   0.88477   0.81751   0.00000  Uiso   1.00
F1011  F     0.02843   0.88567   0.81622   0.00000  Uiso   1.00
C1012  C     0.06807   0.77373   0.68727   0.00000  Uiso   1.00
H1013  H     0.09843   0.78084   0.65329   0.00000  Uiso   1.00
O1014  O     0.06028   0.73763   0.69899   0.00000  Uiso   1.00
C1015  C     0.30691   0.78338   0.67302   0.00000  Uiso   1.00
H1016  H     0.27134   0.77135   0.67759   0.00000  Uiso   1.00
O1017  O     0.00444   0.77638   0.63068   0.00000  Uiso   1.00
F1018  F     0.27365   0.76300   0.91103   0.00000  Uiso   1.00
F1019  F     0.14132   0.86790   0.58800   0.00000  Uiso   1.00
F1020  F     0.04383   0.85548   0.91232   0.00000  Uiso   1.00
F1021  F     0.07527   0.83242   0.57097   0.00000  Uiso   1.00
C1022  C     0.23824   0.95519   0.66596   0.00000  Uiso   1.00
H1023  H     0.23494   0.92226   0.65928   0.00000  Uiso   1.00
O1024  O     0.27211   0.97319   0.63562   0.00000  Uiso   1.00
C1025  C     0.49998   0.91248   0.75004   0.00000  Uiso   1.00
C1026  C     0.47665   0.82519   0.99065   0.00000  Uiso   1.00
C1027  C     0.48920   0.81667   0.93586   0.00000  Uiso   1.00
C1028  C     0.51329   0.82056   0.51572   0.00000  Uiso   1.00
C1029  C     0.55754   0.79919   0.98868   0.00000  Uiso   1.00
C1030  C     0.56585   0.78492   0.93698   0.00000  Uiso   1.00
C1031  C     0.53242   0.79381   0.91089   0.00000  Uiso   1.00
C1032  C     0.50840   0.83780   0.56601   0.00000  Uiso   1.00
C1033  C     0.58402   0.80504   0.56596   0.00000  Uiso   1.00
C1034  C     0.45714   0.82973   0.90814   0.00000  Uiso   1.00
C1035  C     0.53552   0.97793   0.71045   0.00000  Uiso   1.00
C1036  C     0.47360   0.83171   0.85021   0.00000  Uiso   1.00
C1037  C     0.53552   0.68767   0.71192   0.00000  Uiso   1.00
C1038  C     0.49985   0.70977   0.75056   0.00000  Uiso   1.00
C1039  C     0.46410   0.68970   0.78940   0.00000  Uiso   1.00
C1040  C     0.46433   0.97982   0.79059   0.00000  Uiso   1.00
C1041  C     0.49991   0.95731   0.75033   0.00000  Uiso   1.00
C1042  C     0.63226   0.85889   0.78360   0.00000  Uiso   1.00
C1043  C     0.34846   0.85936   0.78296   0.00000  Uiso   1.00
C1044  C     0.36775   0.80659   0.71745   0.00000  Uiso   1.00
C1045  C     0.65212   0.80808   0.71519   0.00000  Uiso   1.00
C1046  C     0.49999   0.75424   0.75009   0.00000  Uiso   1.00
C1047  C     0.52632   0.83297   0.64985   0.00000  Uiso   1.00
C1048  C     0.59279   0.79221   0.51389   0.00000  Uiso   1.00
C1049  C     0.54125   0.82696   0.59264   0.00000  Uiso   1.00
C1050  C     0.40962   0.84349   0.93673   0.00000  Uiso   1.00
C1051  C     0.39455   0.84451   0.99118   0.00000  Uiso   1.00
C1052  C     0.42729   0.83551   0.51824   0.00000  Uiso   1.00
Cu1053 Cu    0.45311   0.83333   0.75000   0.00000  Uiso   1.00
Cu1054 Cu    0.54689   0.83334   0.75000   0.00000  Uiso   1.00
H1055  H     0.61008   0.79691   0.58558   0.00000  Uiso   1.00
H1056  H     0.56227   0.70426   0.68185   0.00000  Uiso   1.00
H1057  H     0.62650   0.77564   0.99400   0.00000  Uiso   1.00
H1058  H     0.35704   0.85265   0.51274   0.00000  Uiso   1.00
H1059  H     0.54006   0.78078   0.87160   0.00000  Uiso   1.00
N1060  N     0.38265   0.83332   0.74999   0.00000  Uiso   1.00
N1061  N     0.61735   0.83335   0.74999   0.00000  Uiso   1.00
O1062  O     0.46042   0.89345   0.75001   0.00000  Uiso   1.00
O1063  O     0.53961   0.89346   0.75001   0.00000  Uiso   1.00
O1064  O     0.44108   0.83332   0.82549   0.00000  Uiso   1.00
O1065  O     0.52027   0.83333   0.82549   0.00000  Uiso   1.00
O1066  O     0.46039   0.77321   0.75000   0.00000  Uiso   1.00
O1067  O     0.53958   0.77322   0.74999   0.00000  Uiso   1.00
O1068  O     0.47973   0.83334   0.67451   0.00000  Uiso   1.00
O1069  O     0.55892   0.83335   0.67451   0.00000  Uiso   1.00
F1070  F     0.43085   0.71260   0.82735   0.00000  Uiso   1.00
C1071  C     0.42918   0.95855   0.83502   0.00000  Uiso   1.00
H1072  H     0.43545   0.92667   0.84296   0.00000  Uiso   1.00
O1073  O     0.39276   0.97632   0.86358   0.00000  Uiso   1.00
F1074  F     0.59954   0.88477   0.81751   0.00000  Uiso   1.00
F1075  F     0.36176   0.88567   0.81622   0.00000  Uiso   1.00
C1076  C     0.40140   0.77373   0.68727   0.00000  Uiso   1.00
H1077  H     0.43176   0.78084   0.65329   0.00000  Uiso   1.00
O1078  O     0.39362   0.73763   0.69899   0.00000  Uiso   1.00
C1079  C     0.64024   0.78338   0.67302   0.00000  Uiso   1.00
H1080  H     0.60468   0.77135   0.67759   0.00000  Uiso   1.00
O1081  O     0.33778   0.77638   0.63068   0.00000  Uiso   1.00
F1082  F     0.60698   0.76300   0.91103   0.00000  Uiso   1.00
F1083  F     0.47465   0.86790   0.58800   0.00000  Uiso   1.00
F1084  F     0.37716   0.85548   0.91232   0.00000  Uiso   1.00
F1085  F     0.40860   0.83242   0.57097   0.00000  Uiso   1.00
C1086  C     0.57158   0.95519   0.66596   0.00000  Uiso   1.00
H1087  H     0.56827   0.92226   0.65928   0.00000  Uiso   1.00
O1088  O     0.60545   0.97319   0.63562   0.00000  Uiso   1.00
C1089  C     0.83331   0.91248   0.75004   0.00000  Uiso   1.00
C1090  C     0.80999   0.82519   0.99065   0.00000  Uiso   1.00
C1091  C     0.82254   0.81667   0.93586   0.00000  Uiso   1.00
C1092  C     0.84662   0.82056   0.51572   0.00000  Uiso   1.00
C1093  C     0.89087   0.79919   0.98868   0.00000  Uiso   1.00
C1094  C     0.89918   0.78492   0.93698   0.00000  Uiso   1.00
C1095  C     0.86575   0.79381   0.91089   0.00000  Uiso   1.00
C1096  C     0.84173   0.83780   0.56601   0.00000  Uiso   1.00
C1097  C     0.91735   0.80504   0.56596   0.00000  Uiso   1.00
C1098  C     0.79047   0.82973   0.90814   0.00000  Uiso   1.00
C1099  C     0.86885   0.97793   0.71045   0.00000  Uiso   1.00
C1100  C     0.80693   0.83171   0.85021   0.00000  Uiso   1.00
C1101  C     0.86886   0.68767   0.71192   0.00000  Uiso   1.00
C1102  C     0.83318   0.70977   0.75056   0.00000  Uiso   1.00
C1103  C     0.79743   0.68970   0.78940   0.00000  Uiso   1.00
C1104  C     0.79766   0.97982   0.79059   0.00000  Uiso   1.00
C1105  C     0.83325   0.95731   0.75033   0.00000  Uiso   1.00
C1106  C     0.96560   0.85889   0.78360   0.00000  Uiso   1.00
C1107  C     0.68179   0.85936   0.78296   0.00000  Uiso   1.00
C1108  C     0.70108   0.80659   0.71745   0.00000  Uiso   1.00
C1109  C     0.98545   0.80808   0.71519   0.00000  Uiso   1.00
C1110  C     0.83332   0.75424   0.75009   0.00000  Uiso   1.00
C1111  C     0.85965   0.83297   0.64985   0.00000  Uiso   1.00
C1112  C     0.92612   0.79221   0.51389   0.00000  Uiso   1.00
C1113  C     0.87458   0.82696   0.59264   0.00000  Uiso   1.00
C1114  C     0.74295   0.84349   0.93673   0.00000  Uiso   1.00
C1115  C     0.72788   0.84451   0.99118   0.00000  Uiso   1.00
C1116  C     0.76062   0.83551   0.51824   0.00000  Uiso   1.00
Cu1117 Cu    0.78645   0.83333   0.75000   0.00000  Uiso   1.00
Cu1118 Cu    0.88022   0.83334   0.75000   0.00000  Uiso   1.00
H1119  H     0.94341   0.79691   0.58558   0.00000  Uiso   1.00
H1120  H     0.89560   0.70426   0.68185   0.00000  Uiso   1.00
H1121  H     0.95983   0.77564   0.99400   0.00000  Uiso   1.00
H1122  H     0.69038   0.85265   0.51274   0.00000  Uiso   1.00
H1123  H     0.87340   0.78078   0.87160   0.00000  Uiso   1.00
N1124  N     0.71598   0.83332   0.74999   0.00000  Uiso   1.00
N1125  N     0.95069   0.83335   0.74999   0.00000  Uiso   1.00
O1126  O     0.79375   0.89345   0.75001   0.00000  Uiso   1.00
O1127  O     0.87294   0.89346   0.75001   0.00000  Uiso   1.00
O1128  O     0.77441   0.83332   0.82549   0.00000  Uiso   1.00
O1129  O     0.85360   0.83333   0.82549   0.00000  Uiso   1.00
O1130  O     0.79373   0.77321   0.75000   0.00000  Uiso   1.00
O1131  O     0.87292   0.77322   0.74999   0.00000  Uiso   1.00
O1132  O     0.81306   0.83334   0.67451   0.00000  Uiso   1.00
O1133  O     0.89225   0.83335   0.67451   0.00000  Uiso   1.00
F1134  F     0.76418   0.71260   0.82735   0.00000  Uiso   1.00
C1135  C     0.76251   0.95855   0.83502   0.00000  Uiso   1.00
H1136  H     0.76879   0.92667   0.84296   0.00000  Uiso   1.00
O1137  O     0.72609   0.97632   0.86358   0.00000  Uiso   1.00
F1138  F     0.93287   0.88477   0.81751   0.00000  Uiso   1.00
F1139  F     0.69510   0.88567   0.81622   0.00000  Uiso   1.00
C1140  C     0.73474   0.77373   0.68727   0.00000  Uiso   1.00
H1141  H     0.76509   0.78084   0.65329   0.00000  Uiso   1.00
O1142  O     0.72695   0.73763   0.69899   0.00000  Uiso   1.00
C1143  C     0.97357   0.78338   0.67302   0.00000  Uiso   1.00
H1144  H     0.93801   0.77135   0.67759   0.00000  Uiso   1.00
O1145  O     0.67111   0.77638   0.63068   0.00000  Uiso   1.00
F1146  F     0.94031   0.76300   0.91103   0.00000  Uiso   1.00
F1147  F     0.80799   0.86790   0.58800   0.00000  Uiso   1.00
F1148  F     0.71049   0.85548   0.91232   0.00000  Uiso   1.00
F1149  F     0.74193   0.83242   0.57097   0.00000  Uiso   1.00
C1150  C     0.90491   0.95519   0.66596   0.00000  Uiso   1.00
H1151  H     0.90160   0.92226   0.65928   0.00000  Uiso   1.00
O1152  O     0.93878   0.97319   0.63562   0.00000  Uiso   1.00
loop_
_geom_bond_atom_site_label_1
_geom_bond_atom_site_label_2
_geom_bond_distance
_geom_bond_site_symmetry_2
_ccdc_geom_bond_type
C1     C17     1.449   .     S
C1     O38     1.296   .     A
C1     O39     1.294   .     A
C2     C3      1.419   .     A
C2     C580    1.424   .     S
C2     C604    1.418   .     S
C3     C10     1.422   .     A
C3     C7      1.412   .     A
C4     C8      1.409   .     A
C4     C578    1.424   1_554 S
C4     C581    1.422   1_554 S
C5     C6      1.396   .     A
C5     C580    1.422   .     S
C5     C600    1.403   .     S
C6     F58     1.359   .     S
C6     C7      1.387   .     A
C7     H35     1.080   .     S
C8     C25     1.399   .     A
C8     F59     1.359   .     S
C9     C24     1.390   .     A
C9     C25     1.397   .     A
C9     H31     1.077   .     S
C10    C26     1.409   .     A
C10    C12     1.481   .     S
C11    C62     1.490   .     S
C11    C17     1.417   .     A
C11    C205    1.392   .     S
C12    O40     1.305   .     A
C12    O41     1.304   .     A
C13    H32     1.084   .     S
C13    C14     1.391   .     A
C13    C395    1.392   1_545 S
C14    C22     1.438   .     S
C14    C15     1.395   .     A
C15    F46     1.360   .     S
C15    C400    1.398   1_545 S
C16    C47     1.491   .     S
C16    C17     1.418   .     A
C16    C207    1.398   .     S
C18    N37     1.369   .     A
C18    F50     1.355   .     S
C18    C83     1.421   .     S
C19    N36     1.369   .     A
C19    F51     1.354   .     S
C19    C146    1.421   1_455 S
C20    N36     1.371   .     A
C20    C52     1.477   .     S
C20    C149    1.430   1_455 S
C21    N37     1.384   .     A
C21    C55     1.490   .     S
C21    C84     1.430   .     S
C22    O43     1.295   .     A
C22    O42     1.294   .     A
C23    O45     1.304   .     A
C23    C25     1.466   .     S
C23    O44     1.299   .     A
C24    C581    1.403   1_554 S
C24    H609    1.084   1_554 S
C26    C27     1.388   .     A
C26    F60     1.357   .     S
C27    C604    1.390   .     S
C27    H610    1.083   .     S
C28    F61     1.356   .     S
C28    C578    1.418   1_554 S
C28    C603    1.390   1_554 S
Cu29   O38     1.955   .     S
Cu29   O42     1.954   .     S
Cu29   N36     2.029   .     S
Cu29   Cu30    2.699   .     S
Cu29   O40     1.945   .     S
Cu29   O44     1.931   .     S
Cu30   O39     1.954   .     S
Cu30   O43     1.955   .     S
Cu30   O41     1.931   .     S
Cu30   O45     1.945   .     S
Cu30   N37     2.028   .     S
H33    C600    1.084   .     S
H34    C603    1.083   1_554 S
C47    O49     1.221   .     D
C47    H48     1.084   .     S
C52    H53     1.081   .     S
C52    O54     1.221   .     D
C55    H56     1.068   .     S
C55    O121    1.221   .     S
O57    C183    1.221   1_455 S
C62    H63     1.084   .     S
C62    O64     1.221   .     D
C65    C81     1.449   .     S
C65    O102    1.296   .     A
C65    O103    1.294   .     A
C66    C67     1.419   .     A
C66    C644    1.424   .     S
C66    C668    1.418   .     S
C67    C74     1.422   .     A
C67    C71     1.412   .     A
C68    C72     1.409   .     A
C68    C642    1.424   1_554 S
C68    C645    1.422   1_554 S
C69    C70     1.396   .     A
C69    C644    1.422   .     S
C69    C664    1.403   .     S
C70    F122    1.359   .     S
C70    C71     1.387   .     A
C71    H99     1.080   .     S
C72    C89     1.399   .     A
C72    F123    1.359   .     S
C73    C88     1.390   .     A
C73    C89     1.397   .     A
C73    H95     1.077   .     S
C74    C90     1.409   .     A
C74    C76     1.481   .     S
C75    C126    1.490   .     S
C75    C81     1.417   .     A
C75    C269    1.392   .     S
C76    O104    1.305   .     A
C76    O105    1.304   .     A
C77    H96     1.084   .     S
C77    C78     1.391   .     A
C77    C459    1.392   1_545 S
C78    C86     1.438   .     S
C78    C79     1.395   .     A
C79    F110    1.360   .     S
C79    C464    1.398   1_545 S
C80    C111    1.491   .     S
C80    C81     1.418   .     A
C80    C271    1.398   .     S
C82    N101    1.369   .     A
C82    F114    1.355   .     S
C82    C147    1.421   .     S
C83    N100    1.369   .     A
C83    F115    1.354   .     S
C84    N100    1.371   .     A
C84    C116    1.477   .     S
C85    N101    1.384   .     A
C85    C119    1.490   .     S
C85    C148    1.430   .     S
C86    O107    1.295   .     A
C86    O106    1.294   .     A
C87    O109    1.304   .     A
C87    C89     1.466   .     S
C87    O108    1.299   .     A
C88    C645    1.403   1_554 S
C88    H673    1.084   1_554 S
C90    C91     1.388   .     A
C90    F124    1.357   .     S
C91    C668    1.390   .     S
C91    H674    1.083   .     S
C92    F125    1.356   .     S
C92    C642    1.418   1_554 S
C92    C667    1.390   1_554 S
Cu93   O102    1.955   .     S
Cu93   O106    1.954   .     S
Cu93   N100    2.029   .     S
Cu93   Cu94    2.699   .     S
Cu93   O104    1.945   .     S
Cu93   O108    1.931   .     S
Cu94   O103    1.954   .     S
Cu94   O107    1.955   .     S
Cu94   O105    1.931   .     S
Cu94   O109    1.945   .     S
Cu94   N101    2.028   .     S
H97    C664    1.084   .     S
H98    C667    1.083   1_554 S
C111   O113    1.221   .     D
C111   H112    1.084   .     S
C116   H117    1.081   .     S
C116   O118    1.221   .     D
C119   H120    1.068   .     S
C119   O185    1.221   .     S
C126   H127    1.084   .     S
C126   O128    1.221   .     D
C129   C145    1.449   .     S
C129   O166    1.296   .     A
C129   O167    1.294   .     A
C130   C131    1.419   .     A
C130   C708    1.424   .     S
C130   C732    1.418   .     S
C131   C138    1.422   .     A
C131   C135    1.412   .     A
C132   C136    1.409   .     A
C132   C706    1.424   1_554 S
C132   C709    1.422   1_554 S
C133   C134    1.396   .     A
C133   C708    1.422   .     S
C133   C728    1.403   .     S
C134   F186    1.359   .     S
C134   C135    1.387   .     A
C135   H163    1.080   .     S
C136   C153    1.399   .     A
C136   F187    1.359   .     S
C137   C152    1.390   .     A
C137   C153    1.397   .     A
C137   H159    1.077   .     S
C138   C154    1.409   .     A
C138   C140    1.481   .     S
C139   C190    1.490   .     S
C139   C145    1.417   .     A
C139   C333    1.392   .     S
C140   O168    1.305   .     A
C140   O169    1.304   .     A
C141   H160    1.084   .     S
C141   C142    1.391   .     A
C141   C523    1.392   1_545 S
C142   C150    1.438   .     S
C142   C143    1.395   .     A
C143   F174    1.360   .     S
C143   C528    1.398   1_545 S
C144   C175    1.491   .     S
C144   C145    1.418   .     A
C144   C335    1.398   .     S
C146   N165    1.369   .     A
C146   F178    1.355   .     S
C146   C19     1.421   1_655 S
C147   N164    1.369   .     A
C147   F179    1.354   .     S
C148   N164    1.371   .     A
C148   C180    1.477   .     S
C149   N165    1.384   .     A
C149   C183    1.490   .     S
C149   C20     1.430   1_655 S
C150   O171    1.295   .     A
C150   O170    1.294   .     A
C151   O173    1.304   .     A
C151   C153    1.466   .     S
C151   O172    1.299   .     A
C152   C709    1.403   1_554 S
C152   H737    1.084   1_554 S
C154   C155    1.388   .     A
C154   F188    1.357   .     S
C155   C732    1.390   .     S
C155   H738    1.083   .     S
C156   F189    1.356   .     S
C156   C706    1.418   1_554 S
C156   C731    1.390   1_554 S
Cu157  O166    1.955   .     S
Cu157  O170    1.954   .     S
Cu157  N164    2.029   .     S
Cu157  Cu158   2.699   .     S
Cu157  O168    1.945   .     S
Cu157  O172    1.931   .     S
Cu158  O167    1.954   .     S
Cu158  O171    1.955   .     S
Cu158  O169    1.931   .     S
Cu158  O173    1.945   .     S
Cu158  N165    2.028   .     S
H161   C728    1.084   .     S
H162   C731    1.083   1_554 S
C175   O177    1.221   .     D
C175   H176    1.084   .     S
C180   H181    1.081   .     S
C180   O182    1.221   .     D
C183   H184    1.068   .     S
C183   O57     1.221   1_655 S
C190   H191    1.084   .     S
C190   O192    1.221   .     D
C193   C209    1.449   .     S
C193   O230    1.296   .     A
C193   O231    1.294   .     A
C194   C195    1.419   .     A
C194   C772    1.424   .     S
C194   C796    1.418   .     S
C195   C202    1.422   .     A
C195   C199    1.412   .     A
C196   C200    1.409   .     A
C196   C770    1.424   1_554 S
C196   C773    1.422   1_554 S
C197   C198    1.396   .     A
C197   C772    1.422   .     S
C197   C792    1.403   .     S
C198   F250    1.359   .     S
C198   C199    1.387   .     A
C199   H227    1.080   .     S
C200   C217    1.399   .     A
C200   F251    1.359   .     S
C201   C216    1.390   .     A
C201   C217    1.397   .     A
C201   H223    1.077   .     S
C202   C218    1.409   .     A
C202   C204    1.481   .     S
C203   C254    1.490   .     S
C203   C209    1.417   .     A
C203   C397    1.392   .     S
C204   O232    1.305   .     A
C204   O233    1.304   .     A
C205   H224    1.084   .     S
C205   C206    1.391   .     A
C206   C214    1.438   .     S
C206   C207    1.395   .     A
C207   F238    1.360   .     S
C208   C239    1.491   .     S
C208   C209    1.418   .     A
C208   C399    1.398   .     S
C210   N229    1.369   .     A
C210   F242    1.355   .     S
C210   C275    1.421   .     S
C211   N228    1.369   .     A
C211   F243    1.354   .     S
C211   C338    1.421   1_455 S
C212   N228    1.371   .     A
C212   C244    1.477   .     S
C212   C341    1.430   1_455 S
C213   N229    1.384   .     A
C213   C247    1.490   .     S
C213   C276    1.430   .     S
C214   O235    1.295   .     A
C214   O234    1.294   .     A
C215   O237    1.304   .     A
C215   C217    1.466   .     S
C215   O236    1.299   .     A
C216   C773    1.403   1_554 S
C216   H801    1.084   1_554 S
C218   C219    1.388   .     A
C218   F252    1.357   .     S
C219   C796    1.390   .     S
C219   H802    1.083   .     S
C220   F253    1.356   .     S
C220   C770    1.418   1_554 S
C220   C795    1.390   1_554 S
Cu221  O230    1.955   .     S
Cu221  O234    1.954   .     S
Cu221  N228    2.029   .     S
Cu221  Cu222   2.699   .     S
Cu221  O232    1.945   .     S
Cu221  O236    1.931   .     S
Cu222  O231    1.954   .     S
Cu222  O235    1.955   .     S
Cu222  O233    1.931   .     S
Cu222  O237    1.945   .     S
Cu222  N229    2.028   .     S
H225   C792    1.084   .     S
H226   C795    1.083   1_554 S
C239   O241    1.221   .     D
C239   H240    1.084   .     S
C244   H245    1.081   .     S
C244   O246    1.221   .     D
C247   H248    1.068   .     S
C247   O313    1.221   .     S
O249   C375    1.221   1_455 S
C254   H255    1.084   .     S
C254   O256    1.221   .     D
C257   C273    1.449   .     S
C257   O294    1.296   .     A
C257   O295    1.294   .     A
C258   C259    1.419   .     A
C258   C836    1.424   .     S
C258   C860    1.418   .     S
C259   C266    1.422   .     A
C259   C263    1.412   .     A
C260   C264    1.409   .     A
C260   C834    1.424   1_554 S
C260   C837    1.422   1_554 S
C261   C262    1.396   .     A
C261   C836    1.422   .     S
C261   C856    1.403   .     S
C262   F314    1.359   .     S
C262   C263    1.387   .     A
C263   H291    1.080   .     S
C264   C281    1.399   .     A
C264   F315    1.359   .     S
C265   C280    1.390   .     A
C265   C281    1.397   .     A
C265   H287    1.077   .     S
C266   C282    1.409   .     A
C266   C268    1.481   .     S
C267   C318    1.490   .     S
C267   C273    1.417   .     A
C267   C461    1.392   .     S
C268   O296    1.305   .     A
C268   O297    1.304   .     A
C269   H288    1.084   .     S
C269   C270    1.391   .     A
C270   C278    1.438   .     S
C270   C271    1.395   .     A
C271   F302    1.360   .     S
C272   C303    1.491   .     S
C272   C273    1.418   .     A
C272   C463    1.398   .     S
C274   N293    1.369   .     A
C274   F306    1.355   .     S
C274   C339    1.421   .     S
C275   N292    1.369   .     A
C275   F307    1.354   .     S
C276   N292    1.371   .     A
C276   C308    1.477   .     S
C277   N293    1.384   .     A
C277   C311    1.490   .     S
C277   C340    1.430   .     S
C278   O299    1.295   .     A
C278   O298    1.294   .     A
C279   O301    1.304   .     A
C279   C281    1.466   .     S
C279   O300    1.299   .     A
C280   C837    1.403   1_554 S
C280   H865    1.084   1_554 S
C282   C283    1.388   .     A
C282   F316    1.357   .     S
C283   C860    1.390   .     S
C283   H866    1.083   .     S
C284   F317    1.356   .     S
C284   C834    1.418   1_554 S
C284   C859    1.390   1_554 S
Cu285  O294    1.955   .     S
Cu285  O298    1.954   .     S
Cu285  N292    2.029   .     S
Cu285  Cu286   2.699   .     S
Cu285  O296    1.945   .     S
Cu285  O300    1.931   .     S
Cu286  O295    1.954   .     S
Cu286  O299    1.955   .     S
Cu286  O297    1.931   .     S
Cu286  O301    1.945   .     S
Cu286  N293    2.028   .     S
H289   C856    1.084   .     S
H290   C859    1.083   1_554 S
C303   O305    1.221   .     D
C303   H304    1.084   .     S
C308   H309    1.081   .     S
C308   O310    1.221   .     D
C311   H312    1.068   .     S
C311   O377    1.221   .     S
C318   H319    1.084   .     S
C318   O320    1.221   .     D
C321   C337    1.449   .     S
C321   O358    1.296   .     A
C321   O359    1.294   .     A
C322   C323    1.419   .     A
C322   C900    1.424   .     S
C322   C924    1.418   .     S
C323   C330    1.422   .     A
C323   C327    1.412   .     A
C324   C328    1.409   .     A
C324   C898    1.424   1_554 S
C324   C901    1.422   1_554 S
C325   C326    1.396   .     A
C325   C900    1.422   .     S
C325   C920    1.403   .     S
C326   F378    1.359   .     S
C326   C327    1.387   .     A
C327   H355    1.080   .     S
C328   C345    1.399   .     A
C328   F379    1.359   .     S
C329   C344    1.390   .     A
C329   C345    1.397   .     A
C329   H351    1.077   .     S
C330   C346    1.409   .     A
C330   C332    1.481   .     S
C331   C382    1.490   .     S
C331   C337    1.417   .     A
C331   C525    1.392   .     S
C332   O360    1.305   .     A
C332   O361    1.304   .     A
C333   H352    1.084   .     S
C333   C334    1.391   .     A
C334   C342    1.438   .     S
C334   C335    1.395   .     A
C335   F366    1.360   .     S
C336   C367    1.491   .     S
C336   C337    1.418   .     A
C336   C527    1.398   .     S
C338   N357    1.369   .     A
C338   F370    1.355   .     S
C338   C211    1.421   1_655 S
C339   N356    1.369   .     A
C339   F371    1.354   .     S
C340   N356    1.371   .     A
C340   C372    1.477   .     S
C341   N357    1.384   .     A
C341   C375    1.490   .     S
C341   C212    1.430   1_655 S
C342   O363    1.295   .     A
C342   O362    1.294   .     A
C343   O365    1.304   .     A
C343   C345    1.466   .     S
C343   O364    1.299   .     A
C344   C901    1.403   1_554 S
C344   H929    1.084   1_554 S
C346   C347    1.388   .     A
C346   F380    1.357   .     S
C347   C924    1.390   .     S
C347   H930    1.083   .     S
C348   F381    1.356   .     S
C348   C898    1.418   1_554 S
C348   C923    1.390   1_554 S
Cu349  O358    1.955   .     S
Cu349  O362    1.954   .     S
Cu349  N356    2.029   .     S
Cu349  Cu350   2.699   .     S
Cu349  O360    1.945   .     S
Cu349  O364    1.931   .     S
Cu350  O359    1.954   .     S
Cu350  O363    1.955   .     S
Cu350  O361    1.931   .     S
Cu350  O365    1.945   .     S
Cu350  N357    2.028   .     S
H353   C920    1.084   .     S
H354   C923    1.083   1_554 S
C367   O369    1.221   .     D
C367   H368    1.084   .     S
C372   H373    1.081   .     S
C372   O374    1.221   .     D
C375   H376    1.068   .     S
C375   O249    1.221   1_655 S
C382   H383    1.084   .     S
C382   O384    1.221   .     D
C385   C401    1.449   .     S
C385   O422    1.296   .     A
C385   O423    1.294   .     A
C386   C387    1.419   .     A
C386   C964    1.424   .     S
C386   C988    1.418   .     S
C387   C394    1.422   .     A
C387   C391    1.412   .     A
C388   C392    1.409   .     A
C388   C962    1.424   1_554 S
C388   C965    1.422   1_554 S
C389   C390    1.396   .     A
C389   C964    1.422   .     S
C389   C984    1.403   .     S
C390   F442    1.359   .     S
C390   C391    1.387   .     A
C391   H419    1.080   .     S
C392   C409    1.399   .     A
C392   F443    1.359   .     S
C393   C408    1.390   .     A
C393   C409    1.397   .     A
C393   H415    1.077   .     S
C394   C410    1.409   .     A
C394   C396    1.481   .     S
C395   C446    1.490   .     S
C395   C401    1.417   .     A
C395   C13     1.392   1_565 S
C396   O424    1.305   .     A
C396   O425    1.304   .     A
C397   H416    1.084   .     S
C397   C398    1.391   .     A
C398   C406    1.438   .     S
C398   C399    1.395   .     A
C399   F430    1.360   .     S
C400   C431    1.491   .     S
C400   C401    1.418   .     A
C400   C15     1.398   1_565 S
C402   N421    1.369   .     A
C402   F434    1.355   .     S
C402   C467    1.421   .     S
C403   N420    1.369   .     A
C403   F435    1.354   .     S
C403   C530    1.421   1_455 S
C404   N420    1.371   .     A
C404   C436    1.477   .     S
C404   C533    1.430   1_455 S
C405   N421    1.384   .     A
C405   C439    1.490   .     S
C405   C468    1.430   .     S
C406   O427    1.295   .     A
C406   O426    1.294   .     A
C407   O429    1.304   .     A
C407   C409    1.466   .     S
C407   O428    1.299   .     A
C408   C965    1.403   1_554 S
C408   H993    1.084   1_554 S
C410   C411    1.388   .     A
C410   F444    1.357   .     S
C411   C988    1.390   .     S
C411   H994    1.083   .     S
C412   F445    1.356   .     S
C412   C962    1.418   1_554 S
C412   C987    1.390   1_554 S
Cu413  O422    1.955   .     S
Cu413  O426    1.954   .     S
Cu413  N420    2.029   .     S
Cu413  Cu414   2.699   .     S
Cu413  O424    1.945   .     S
Cu413  O428    1.931   .     S
Cu414  O423    1.954   .     S
Cu414  O427    1.955   .     S
Cu414  O425    1.931   .     S
Cu414  O429    1.945   .     S
Cu414  N421    2.028   .     S
H417   C984    1.084   .     S
H418   C987    1.083   1_554 S
C431   O433    1.221   .     D
C431   H432    1.084   .     S
C436   H437    1.081   .     S
C436   O438    1.221   .     D
C439   H440    1.068   .     S
C439   O505    1.221   .     S
O441   C567    1.221   1_455 S
C446   H447    1.084   .     S
C446   O448    1.221   .     D
C449   C465    1.449   .     S
C449   O486    1.296   .     A
C449   O487    1.294   .     A
C450   C451    1.419   .     A
C450   C1028   1.424   .     S
C450   C1052   1.418   .     S
C451   C458    1.422   .     A
C451   C455    1.412   .     A
C452   C456    1.409   .     A
C452   C1026   1.424   1_554 S
C452   C1029   1.422   1_554 S
C453   C454    1.396   .     A
C453   C1028   1.422   .     S
C453   C1048   1.403   .     S
C454   F506    1.359   .     S
C454   C455    1.387   .     A
C455   H483    1.080   .     S
C456   C473    1.399   .     A
C456   F507    1.359   .     S
C457   C472    1.390   .     A
C457   C473    1.397   .     A
C457   H479    1.077   .     S
C458   C474    1.409   .     A
C458   C460    1.481   .     S
C459   C510    1.490   .     S
C459   C465    1.417   .     A
C459   C77     1.392   1_565 S
C460   O488    1.305   .     A
C460   O489    1.304   .     A
C461   H480    1.084   .     S
C461   C462    1.391   .     A
C462   C470    1.438   .     S
C462   C463    1.395   .     A
C463   F494    1.360   .     S
C464   C495    1.491   .     S
C464   C465    1.418   .     A
C464   C79     1.398   1_565 S
C466   N485    1.369   .     A
C466   F498    1.355   .     S
C466   C531    1.421   .     S
C467   N484    1.369   .     A
C467   F499    1.354   .     S
C468   N484    1.371   .     A
C468   C500    1.477   .     S
C469   N485    1.384   .     A
C469   C503    1.490   .     S
C469   C532    1.430   .     S
C470   O491    1.295   .     A
C470   O490    1.294   .     A
C471   O493    1.304   .     A
C471   C473    1.466   .     S
C471   O492    1.299   .     A
C472   C1029   1.403   1_554 S
C472   H1057   1.084   1_554 S
C474   C475    1.388   .     A
C474   F508    1.357   .     S
C475   C1052   1.390   .     S
C475   H1058   1.083   .     S
C476   F509    1.356   .     S
C476   C1026   1.418   1_554 S
C476   C1051   1.390   1_554 S
Cu477  O486    1.955   .     S
Cu477  O490    1.954   .     S
Cu477  N484    2.029   .     S
Cu477  Cu478   2.699   .     S
Cu477  O488    1.945   .     S
Cu477  O492    1.931   .     S
Cu478  O487    1.954   .     S
Cu478  O491    1.955   .     S
Cu478  O489    1.931   .     S
Cu478  O493    1.945   .     S
Cu478  N485    2.028   .     S
H481   C1048   1.084   .     S
H482   C1051   1.083   1_554 S
C495   O497    1.221   .     D
C495   H496    1.084   .     S
C500   H501    1.081   .     S
C500   O502    1.221   .     D
C503   H504    1.068   .     S
C503   O569    1.221   .     S
C510   H511    1.084   .     S
C510   O512    1.221   .     D
C513   C529    1.449   .     S
C513   O550    1.296   .     A
C513   O551    1.294   .     A
C514   C515    1.419   .     A
C514   C1092   1.424   .     S
C514   C1116   1.418   .     S
C515   C522    1.422   .     A
C515   C519    1.412   .     A
C516   C520    1.409   .     A
C516   C1090   1.424   1_554 S
C516   C1093   1.422   1_554 S
C517   C518    1.396   .     A
C517   C1092   1.422   .     S
C517   C1112   1.403   .     S
C518   F570    1.359   .     S
C518   C519    1.387   .     A
C519   H547    1.080   .     S
C520   C537    1.399   .     A
C520   F571    1.359   .     S
C521   C536    1.390   .     A
C521   C537    1.397   .     A
C521   H543    1.077   .     S
C522   C538    1.409   .     A
C522   C524    1.481   .     S
C523   C574    1.490   .     S
C523   C529    1.417   .     A
C523   C141    1.392   1_565 S
C524   O552    1.305   .     A
C524   O553    1.304   .     A
C525   H544    1.084   .     S
C525   C526    1.391   .     A
C526   C534    1.438   .     S
C526   C527    1.395   .     A
C527   F558    1.360   .     S
C528   C559    1.491   .     S
C528   C529    1.418   .     A
C528   C143    1.398   1_565 S
C530   N549    1.369   .     A
C530   F562    1.355   .     S
C530   C403    1.421   1_655 S
C531   N548    1.369   .     A
C531   F563    1.354   .     S
C532   N548    1.371   .     A
C532   C564    1.477   .     S
C533   N549    1.384   .     A
C533   C567    1.490   .     S
C533   C404    1.430   1_655 S
C534   O555    1.295   .     A
C534   O554    1.294   .     A
C535   O557    1.304   .     A
C535   C537    1.466   .     S
C535   O556    1.299   .     A
C536   C1093   1.403   1_554 S
C536   H1121   1.084   1_554 S
C538   C539    1.388   .     A
C538   F572    1.357   .     S
C539   C1116   1.390   .     S
C539   H1122   1.083   .     S
C540   F573    1.356   .     S
C540   C1090   1.418   1_554 S
C540   C1115   1.390   1_554 S
Cu541  O550    1.955   .     S
Cu541  O554    1.954   .     S
Cu541  N548    2.029   .     S
Cu541  Cu542   2.699   .     S
Cu541  O552    1.945   .     S
Cu541  O556    1.931   .     S
Cu542  O551    1.954   .     S
Cu542  O555    1.955   .     S
Cu542  O553    1.931   .     S
Cu542  O557    1.945   .     S
Cu542  N549    2.028   .     S
H545   C1112   1.084   .     S
H546   C1115   1.083   1_554 S
C559   O561    1.221   .     D
C559   H560    1.084   .     S
C564   H565    1.081   .     S
C564   O566    1.221   .     D
C567   H568    1.068   .     S
C567   O441    1.221   1_655 S
C574   H575    1.084   .     S
C574   O576    1.221   .     D
C577   C593    1.449   .     S
C577   O614    1.296   .     A
C577   O615    1.294   .     A
C578   C579    1.419   .     A
C578   C4      1.424   1_556 S
C578   C28     1.418   1_556 S
C579   C586    1.422   .     A
C579   C583    1.412   .     A
C580   C584    1.409   .     A
C581   C582    1.396   .     A
C581   C4      1.422   1_556 S
C581   C24     1.403   1_556 S
C582   F634    1.359   .     S
C582   C583    1.387   .     A
C583   H611    1.080   .     S
C584   C601    1.399   .     A
C584   F635    1.359   .     S
C585   C600    1.390   .     A
C585   C601    1.397   .     A
C585   H607    1.077   .     S
C586   C602    1.409   .     A
C586   C588    1.481   .     S
C587   C638    1.490   .     S
C587   C593    1.417   .     A
C587   C781    1.392   .     S
C588   O616    1.305   .     A
C588   O617    1.304   .     A
C589   H608    1.084   .     S
C589   C590    1.391   .     A
C589   C971    1.392   1_545 S
C590   C598    1.438   .     S
C590   C591    1.395   .     A
C591   F622    1.360   .     S
C591   C976    1.398   1_545 S
C592   C623    1.491   .     S
C592   C593    1.418   .     A
C592   C783    1.398   .     S
C594   N613    1.369   .     A
C594   F626    1.355   .     S
C594   C659    1.421   .     S
C595   N612    1.369   .     A
C595   F627    1.354   .     S
C595   C722    1.421   1_455 S
C596   N612    1.371   .     A
C596   C628    1.477   .     S
C596   C725    1.430   1_455 S
C597   N613    1.384   .     A
C597   C631    1.490   .     S
C597   C660    1.430   .     S
C598   O619    1.295   .     A
C598   O618    1.294   .     A
C599   O621    1.304   .     A
C599   C601    1.466   .     S
C599   O620    1.299   .     A
C602   C603    1.388   .     A
C602   F636    1.357   .     S
C603   C28     1.390   1_556 S
C603   H34     1.083   1_556 S
C604   F637    1.356   .     S
Cu605  O614    1.955   .     S
Cu605  O618    1.954   .     S
Cu605  N612    2.029   .     S
Cu605  Cu606   2.699   .     S
Cu605  O616    1.945   .     S
Cu605  O620    1.931   .     S
Cu606  O615    1.954   .     S
Cu606  O619    1.955   .     S
Cu606  O617    1.931   .     S
Cu606  O621    1.945   .     S
Cu606  N613    2.028   .     S
H609   C24     1.084   1_556 S
C623   O625    1.221   .     D
C623   H624    1.084   .     S
C628   H629    1.081   .     S
C628   O630    1.221   .     D
C631   H632    1.068   .     S
C631   O697    1.221   .     S
O633   C759    1.221   1_455 S
C638   H639    1.084   .     S
C638   O640    1.221   .     D
C641   C657    1.449   .     S
C641   O678    1.296   .     A
C641   O679    1.294   .     A
C642   C643    1.419   .     A
C642   C68     1.424   1_556 S
C642   C92     1.418   1_556 S
C643   C650    1.422   .     A
C643   C647    1.412   .     A
C644   C648    1.409   .     A
C645   C646    1.396   .     A
C645   C68     1.422   1_556 S
C645   C88     1.403   1_556 S
C646   F698    1.359   .     S
C646   C647    1.387   .     A
C647   H675    1.080   .     S
C648   C665    1.399   .     A
C648   F699    1.359   .     S
C649   C664    1.390   .     A
C649   C665    1.397   .     A
C649   H671    1.077   .     S
C650   C666    1.409   .     A
C650   C652    1.481   .     S
C651   C702    1.490   .     S
C651   C657    1.417   .     A
C651   C845    1.392   .     S
C652   O680    1.305   .     A
C652   O681    1.304   .     A
C653   H672    1.084   .     S
C653   C654    1.391   .     A
C653   C1035   1.392   1_545 S
C654   C662    1.438   .     S
C654   C655    1.395   .     A
C655   F686    1.360   .     S
C655   C1040   1.398   1_545 S
C656   C687    1.491   .     S
C656   C657    1.418   .     A
C656   C847    1.398   .     S
C658   N677    1.369   .     A
C658   F690    1.355   .     S
C658   C723    1.421   .     S
C659   N676    1.369   .     A
C659   F691    1.354   .     S
C660   N676    1.371   .     A
C660   C692    1.477   .     S
C661   N677    1.384   .     A
C661   C695    1.490   .     S
C661   C724    1.430   .     S
C662   O683    1.295   .     A
C662   O682    1.294   .     A
C663   O685    1.304   .     A
C663   C665    1.466   .     S
C663   O684    1.299   .     A
C666   C667    1.388   .     A
C666   F700    1.357   .     S
C667   C92     1.390   1_556 S
C667   H98     1.083   1_556 S
C668   F701    1.356   .     S
Cu669  O678    1.955   .     S
Cu669  O682    1.954   .     S
Cu669  N676    2.029   .     S
Cu669  Cu670   2.699   .     S
Cu669  O680    1.945   .     S
Cu669  O684    1.931   .     S
Cu670  O679    1.954   .     S
Cu670  O683    1.955   .     S
Cu670  O681    1.931   .     S
Cu670  O685    1.945   .     S
Cu670  N677    2.028   .     S
H673   C88     1.084   1_556 S
C687   O689    1.221   .     D
C687   H688    1.084   .     S
C692   H693    1.081   .     S
C692   O694    1.221   .     D
C695   H696    1.068   .     S
C695   O761    1.221   .     S
C702   H703    1.084   .     S
C702   O704    1.221   .     D
C705   C721    1.449   .     S
C705   O742    1.296   .     A
C705   O743    1.294   .     A
C706   C707    1.419   .     A
C706   C132    1.424   1_556 S
C706   C156    1.418   1_556 S
C707   C714    1.422   .     A
C707   C711    1.412   .     A
C708   C712    1.409   .     A
C709   C710    1.396   .     A
C709   C132    1.422   1_556 S
C709   C152    1.403   1_556 S
C710   F762    1.359   .     S
C710   C711    1.387   .     A
C711   H739    1.080   .     S
C712   C729    1.399   .     A
C712   F763    1.359   .     S
C713   C728    1.390   .     A
C713   C729    1.397   .     A
C713   H735    1.077   .     S
C714   C730    1.409   .     A
C714   C716    1.481   .     S
C715   C766    1.490   .     S
C715   C721    1.417   .     A
C715   C909    1.392   .     S
C716   O744    1.305   .     A
C716   O745    1.304   .     A
C717   H736    1.084   .     S
C717   C718    1.391   .     A
C717   C1099   1.392   1_545 S
C718   C726    1.438   .     S
C718   C719    1.395   .     A
C719   F750    1.360   .     S
C719   C1104   1.398   1_545 S
C720   C751    1.491   .     S
C720   C721    1.418   .     A
C720   C911    1.398   .     S
C722   N741    1.369   .     A
C722   F754    1.355   .     S
C722   C595    1.421   1_655 S
C723   N740    1.369   .     A
C723   F755    1.354   .     S
C724   N740    1.371   .     A
C724   C756    1.477   .     S
C725   N741    1.384   .     A
C725   C759    1.490   .     S
C725   C596    1.430   1_655 S
C726   O747    1.295   .     A
C726   O746    1.294   .     A
C727   O749    1.304   .     A
C727   C729    1.466   .     S
C727   O748    1.299   .     A
C730   C731    1.388   .     A
C730   F764    1.357   .     S
C731   C156    1.390   1_556 S
C731   H162    1.083   1_556 S
C732   F765    1.356   .     S
Cu733  O742    1.955   .     S
Cu733  O746    1.954   .     S
Cu733  N740    2.029   .     S
Cu733  Cu734   2.699   .     S
Cu733  O744    1.945   .     S
Cu733  O748    1.931   .     S
Cu734  O743    1.954   .     S
Cu734  O747    1.955   .     S
Cu734  O745    1.931   .     S
Cu734  O749    1.945   .     S
Cu734  N741    2.028   .     S
H737   C152    1.084   1_556 S
C751   O753    1.221   .     D
C751   H752    1.084   .     S
C756   H757    1.081   .     S
C756   O758    1.221   .     D
C759   H760    1.068   .     S
C759   O633    1.221   1_655 S
C766   H767    1.084   .     S
C766   O768    1.221   .     D
C769   C785    1.449   .     S
C769   O806    1.296   .     A
C769   O807    1.294   .     A
C770   C771    1.419   .     A
C770   C196    1.424   1_556 S
C770   C220    1.418   1_556 S
C771   C778    1.422   .     A
C771   C775    1.412   .     A
C772   C776    1.409   .     A
C773   C774    1.396   .     A
C773   C196    1.422   1_556 S
C773   C216    1.403   1_556 S
C774   F826    1.359   .     S
C774   C775    1.387   .     A
C775   H803    1.080   .     S
C776   C793    1.399   .     A
C776   F827    1.359   .     S
C777   C792    1.390   .     A
C777   C793    1.397   .     A
C777   H799    1.077   .     S
C778   C794    1.409   .     A
C778   C780    1.481   .     S
C779   C830    1.490   .     S
C779   C785    1.417   .     A
C779   C973    1.392   .     S
C780   O808    1.305   .     A
C780   O809    1.304   .     A
C781   H800    1.084   .     S
C781   C782    1.391   .     A
C782   C790    1.438   .     S
C782   C783    1.395   .     A
C783   F814    1.360   .     S
C784   C815    1.491   .     S
C784   C785    1.418   .     A
C784   C975    1.398   .     S
C786   N805    1.369   .     A
C786   F818    1.355   .     S
C786   C851    1.421   .     S
C787   N804    1.369   .     A
C787   F819    1.354   .     S
C787   C914    1.421   1_455 S
C788   N804    1.371   .     A
C788   C820    1.477   .     S
C788   C917    1.430   1_455 S
C789   N805    1.384   .     A
C789   C823    1.490   .     S
C789   C852    1.430   .     S
C790   O811    1.295   .     A
C790   O810    1.294   .     A
C791   O813    1.304   .     A
C791   C793    1.466   .     S
C791   O812    1.299   .     A
C794   C795    1.388   .     A
C794   F828    1.357   .     S
C795   C220    1.390   1_556 S
C795   H226    1.083   1_556 S
C796   F829    1.356   .     S
Cu797  O806    1.955   .     S
Cu797  O810    1.954   .     S
Cu797  N804    2.029   .     S
Cu797  Cu798   2.699   .     S
Cu797  O808    1.945   .     S
Cu797  O812    1.931   .     S
Cu798  O807    1.954   .     S
Cu798  O811    1.955   .     S
Cu798  O809    1.931   .     S
Cu798  O813    1.945   .     S
Cu798  N805    2.028   .     S
H801   C216    1.084   1_556 S
C815   O817    1.221   .     D
C815   H816    1.084   .     S
C820   H821    1.081   .     S
C820   O822    1.221   .     D
C823   H824    1.068   .     S
C823   O889    1.221   .     S
O825   C951    1.221   1_455 S
C830   H831    1.084   .     S
C830   O832    1.221   .     D
C833   C849    1.449   .     S
C833   O870    1.296   .     A
C833   O871    1.294   .     A
C834   C835    1.419   .     A
C834   C260    1.424   1_556 S
C834   C284    1.418   1_556 S
C835   C842    1.422   .     A
C835   C839    1.412   .     A
C836   C840    1.409   .     A
C837   C838    1.396   .     A
C837   C260    1.422   1_556 S
C837   C280    1.403   1_556 S
C838   F890    1.359   .     S
C838   C839    1.387   .     A
C839   H867    1.080   .     S
C840   C857    1.399   .     A
C840   F891    1.359   .     S
C841   C856    1.390   .     A
C841   C857    1.397   .     A
C841   H863    1.077   .     S
C842   C858    1.409   .     A
C842   C844    1.481   .     S
C843   C894    1.490   .     S
C843   C849    1.417   .     A
C843   C1037   1.392   .     S
C844   O872    1.305   .     A
C844   O873    1.304   .     A
C845   H864    1.084   .     S
C845   C846    1.391   .     A
C846   C854    1.438   .     S
C846   C847    1.395   .     A
C847   F878    1.360   .     S
C848   C879    1.491   .     S
C848   C849    1.418   .     A
C848   C1039   1.398   .     S
C850   N869    1.369   .     A
C850   F882    1.355   .     S
C850   C915    1.421   .     S
C851   N868    1.369   .     A
C851   F883    1.354   .     S
C852   N868    1.371   .     A
C852   C884    1.477   .     S
C853   N869    1.384   .     A
C853   C887    1.490   .     S
C853   C916    1.430   .     S
C854   O875    1.295   .     A
C854   O874    1.294   .     A
C855   O877    1.304   .     A
C855   C857    1.466   .     S
C855   O876    1.299   .     A
C858   C859    1.388   .     A
C858   F892    1.357   .     S
C859   C284    1.390   1_556 S
C859   H290    1.083   1_556 S
C860   F893    1.356   .     S
Cu861  O870    1.955   .     S
Cu861  O874    1.954   .     S
Cu861  N868    2.029   .     S
Cu861  Cu862   2.699   .     S
Cu861  O872    1.945   .     S
Cu861  O876    1.931   .     S
Cu862  O871    1.954   .     S
Cu862  O875    1.955   .     S
Cu862  O873    1.931   .     S
Cu862  O877    1.945   .     S
Cu862  N869    2.028   .     S
H865   C280    1.084   1_556 S
C879   O881    1.221   .     D
C879   H880    1.084   .     S
C884   H885    1.081   .     S
C884   O886    1.221   .     D
C887   H888    1.068   .     S
C887   O953    1.221   .     S
C894   H895    1.084   .     S
C894   O896    1.221   .     D
C897   C913    1.449   .     S
C897   O934    1.296   .     A
C897   O935    1.294   .     A
C898   C899    1.419   .     A
C898   C324    1.424   1_556 S
C898   C348    1.418   1_556 S
C899   C906    1.422   .     A
C899   C903    1.412   .     A
C900   C904    1.409   .     A
C901   C902    1.396   .     A
C901   C324    1.422   1_556 S
C901   C344    1.403   1_556 S
C902   F954    1.359   .     S
C902   C903    1.387   .     A
C903   H931    1.080   .     S
C904   C921    1.399   .     A
C904   F955    1.359   .     S
C905   C920    1.390   .     A
C905   C921    1.397   .     A
C905   H927    1.077   .     S
C906   C922    1.409   .     A
C906   C908    1.481   .     S
C907   C958    1.490   .     S
C907   C913    1.417   .     A
C907   C1101   1.392   .     S
C908   O936    1.305   .     A
C908   O937    1.304   .     A
C909   H928    1.084   .     S
C909   C910    1.391   .     A
C910   C918    1.438   .     S
C910   C911    1.395   .     A
C911   F942    1.360   .     S
C912   C943    1.491   .     S
C912   C913    1.418   .     A
C912   C1103   1.398   .     S
C914   N933    1.369   .     A
C914   F946    1.355   .     S
C914   C787    1.421   1_655 S
C915   N932    1.369   .     A
C915   F947    1.354   .     S
C916   N932    1.371   .     A
C916   C948    1.477   .     S
C917   N933    1.384   .     A
C917   C951    1.490   .     S
C917   C788    1.430   1_655 S
C918   O939    1.295   .     A
C918   O938    1.294   .     A
C919   O941    1.304   .     A
C919   C921    1.466   .     S
C919   O940    1.299   .     A
C922   C923    1.388   .     A
C922   F956    1.357   .     S
C923   C348    1.390   1_556 S
C923   H354    1.083   1_556 S
C924   F957    1.356   .     S
Cu925  O934    1.955   .     S
Cu925  O938    1.954   .     S
Cu925  N932    2.029   .     S
Cu925  Cu926   2.699   .     S
Cu925  O936    1.945   .     S
Cu925  O940    1.931   .     S
Cu926  O935    1.954   .     S
Cu926  O939    1.955   .     S
Cu926  O937    1.931   .     S
Cu926  O941    1.945   .     S
Cu926  N933    2.028   .     S
H929   C344    1.084   1_556 S
C943   O945    1.221   .     D
C943   H944    1.084   .     S
C948   H949    1.081   .     S
C948   O950    1.221   .     D
C951   H952    1.068   .     S
C951   O825    1.221   1_655 S
C958   H959    1.084   .     S
C958   O960    1.221   .     D
C961   C977    1.449   .     S
C961   O998    1.296   .     A
C961   O999    1.294   .     A
C962   C963    1.419   .     A
C962   C388    1.424   1_556 S
C962   C412    1.418   1_556 S
C963   C970    1.422   .     A
C963   C967    1.412   .     A
C964   C968    1.409   .     A
C965   C966    1.396   .     A
C965   C388    1.422   1_556 S
C965   C408    1.403   1_556 S
C966   F1018   1.359   .     S
C966   C967    1.387   .     A
C967   H995    1.080   .     S
C968   C985    1.399   .     A
C968   F1019   1.359   .     S
C969   C984    1.390   .     A
C969   C985    1.397   .     A
C969   H991    1.077   .     S
C970   C986    1.409   .     A
C970   C972    1.481   .     S
C971   C1022   1.490   .     S
C971   C977    1.417   .     A
C971   C589    1.392   1_565 S
C972   O1000   1.305   .     A
C972   O1001   1.304   .     A
C973   H992    1.084   .     S
C973   C974    1.391   .     A
C974   C982    1.438   .     S
C974   C975    1.395   .     A
C975   F1006   1.360   .     S
C976   C1007   1.491   .     S
C976   C977    1.418   .     A
C976   C591    1.398   1_565 S
C978   N997    1.369   .     A
C978   F1010   1.355   .     S
C978   C1043   1.421   .     S
C979   N996    1.369   .     A
C979   F1011   1.354   .     S
C979   C1106   1.421   1_455 S
C980   N996    1.371   .     A
C980   C1012   1.477   .     S
C980   C1109   1.430   1_455 S
C981   N997    1.384   .     A
C981   C1015   1.490   .     S
C981   C1044   1.430   .     S
C982   O1003   1.295   .     A
C982   O1002   1.294   .     A
C983   O1005   1.304   .     A
C983   C985    1.466   .     S
C983   O1004   1.299   .     A
C986   C987    1.388   .     A
C986   F1020   1.357   .     S
C987   C412    1.390   1_556 S
C987   H418    1.083   1_556 S
C988   F1021   1.356   .     S
Cu989  O998    1.955   .     S
Cu989  O1002   1.954   .     S
Cu989  N996    2.029   .     S
Cu989  Cu990   2.699   .     S
Cu989  O1000   1.945   .     S
Cu989  O1004   1.931   .     S
Cu990  O999    1.954   .     S
Cu990  O1003   1.955   .     S
Cu990  O1001   1.931   .     S
Cu990  O1005   1.945   .     S
Cu990  N997    2.028   .     S
H993   C408    1.084   1_556 S
C1007  O1009   1.221   .     D
C1007  H1008   1.084   .     S
C1012  H1013   1.081   .     S
C1012  O1014   1.221   .     D
C1015  H1016   1.068   .     S
C1015  O1081   1.221   .     S
O1017  C1143   1.221   1_455 S
C1022  H1023   1.084   .     S
C1022  O1024   1.221   .     D
C1025  C1041   1.449   .     S
C1025  O1062   1.296   .     A
C1025  O1063   1.294   .     A
C1026  C1027   1.419   .     A
C1026  C452    1.424   1_556 S
C1026  C476    1.418   1_556 S
C1027  C1034   1.422   .     A
C1027  C1031   1.412   .     A
C1028  C1032   1.409   .     A
C1029  C1030   1.396   .     A
C1029  C452    1.422   1_556 S
C1029  C472    1.403   1_556 S
C1030  F1082   1.359   .     S
C1030  C1031   1.387   .     A
C1031  H1059   1.080   .     S
C1032  C1049   1.399   .     A
C1032  F1083   1.359   .     S
C1033  C1048   1.390   .     A
C1033  C1049   1.397   .     A
C1033  H1055   1.077   .     S
C1034  C1050   1.409   .     A
C1034  C1036   1.481   .     S
C1035  C1086   1.490   .     S
C1035  C1041   1.417   .     A
C1035  C653    1.392   1_565 S
C1036  O1064   1.305   .     A
C1036  O1065   1.304   .     A
C1037  H1056   1.084   .     S
C1037  C1038   1.391   .     A
C1038  C1046   1.438   .     S
C1038  C1039   1.395   .     A
C1039  F1070   1.360   .     S
C1040  C1071   1.491   .     S
C1040  C1041   1.418   .     A
C1040  C655    1.398   1_565 S
C1042  N1061   1.369   .     A
C1042  F1074   1.355   .     S
C1042  C1107   1.421   .     S
C1043  N1060   1.369   .     A
C1043  F1075   1.354   .     S
C1044  N1060   1.371   .     A
C1044  C1076   1.477   .     S
C1045  N1061   1.384   .     A
C1045  C1079   1.490   .     S
C1045  C1108   1.430   .     S
C1046  O1067   1.295   .     A
C1046  O1066   1.294   .     A
C1047  O1069   1.304   .     A
C1047  C1049   1.466   .     S
C1047  O1068   1.299   .     A
C1050  C1051   1.388   .     A
C1050  F1084   1.357   .     S
C1051  C476    1.390   1_556 S
C1051  H482    1.083   1_556 S
C1052  F1085   1.356   .     S
Cu1053 O1062   1.955   .     S
Cu1053 O1066   1.954   .     S
Cu1053 N1060   2.029   .     S
Cu1053 Cu1054  2.699   .     S
Cu1053 O1064   1.945   .     S
Cu1053 O1068   1.931   .     S
Cu1054 O1063   1.954   .     S
Cu1054 O1067   1.955   .     S
Cu1054 O1065   1.931   .     S
Cu1054 O1069   1.945   .     S
Cu1054 N1061   2.028   .     S
H1057  C472    1.084   1_556 S
C1071  O1073   1.221   .     D
C1071  H1072   1.084   .     S
C1076  H1077   1.081   .     S
C1076  O1078   1.221   .     D
C1079  H1080   1.068   .     S
C1079  O1145   1.221   .     S
C1086  H1087   1.084   .     S
C1086  O1088   1.221   .     D
C1089  C1105   1.449   .     S
C1089  O1126   1.296   .     A
C1089  O1127   1.294   .     A
C1090  C1091   1.419   .     A
C1090  C516    1.424   1_556 S
C1090  C540    1.418   1_556 S
C1091  C1098   1.422   .     A
C1091  C1095   1.412   .     A
C1092  C1096   1.409   .     A
C1093  C1094   1.396   .     A
C1093  C516    1.422   1_556 S
C1093  C536    1.403   1_556 S
C1094  F1146   1.359   .     S
C1094  C1095   1.387   .     A
C1095  H1123   1.080   .     S
C1096  C1113   1.399   .     A
C1096  F1147   1.359   .     S
C1097  C1112   1.390   .     A
C1097  C1113   1.397   .     A
C1097  H1119   1.077   .     S
C1098  C1114   1.409   .     A
C1098  C1100   1.481   .     S
C1099  C1150   1.490   .     S
C1099  C1105   1.417   .     A
C1099  C717    1.392   1_565 S
C1100  O1128   1.305   .     A
C1100  O1129   1.304   .     A
C1101  H1120   1.084   .     S
C1101  C1102   1.391   .     A
C1102  C1110   1.438   .     S
C1102  C1103   1.395   .     A
C1103  F1134   1.360   .     S
C1104  C1135   1.491   .     S
C1104  C1105   1.418   .     A
C1104  C719    1.398   1_565 S
C1106  N1125   1.369   .     A
C1106  F1138   1.355   .     S
C1106  C979    1.421   1_655 S
C1107  N1124   1.369   .     A
C1107  F1139   1.354   .     S
C1108  N1124   1.371   .     A
C1108  C1140   1.477   .     S
C1109  N1125   1.384   .     A
C1109  C1143   1.490   .     S
C1109  C980    1.430   1_655 S
C1110  O1131   1.295   .     A
C1110  O1130   1.294   .     A
C1111  O1133   1.304   .     A
C1111  C1113   1.466   .     S
C1111  O1132   1.299   .     A
C1114  C1115   1.388   .     A
C1114  F1148   1.357   .     S
C1115  C540    1.390   1_556 S
C1115  H546    1.083   1_556 S
C1116  F1149   1.356   .     S
Cu1117 O1126   1.955   .     S
Cu1117 O1130   1.954   .     S
Cu1117 N1124   2.029   .     S
Cu1117 Cu1118  2.699   .     S
Cu1117 O1128   1.945   .     S
Cu1117 O1132   1.931   .     S
Cu1118 O1127   1.954   .     S
Cu1118 O1131   1.955   .     S
Cu1118 O1129   1.931   .     S
Cu1118 O1133   1.945   .     S
Cu1118 N1125   2.028   .     S
H1121  C536    1.084   1_556 S
C1135  O1137   1.221   .     D
C1135  H1136   1.084   .     S
C1140  H1141   1.081   .     S
C1140  O1142   1.221   .     D
C1143  H1144   1.068   .     S
C1143  O1017   1.221   1_655 S
C1150  H1151   1.084   .     S
C1150  O1152   1.221   .     D
