data_str_m2_o1_o18_pcu_sym.74
_audit_creation_date              2020-01-03
_audit_creation_method            'Materials Studio'
_symmetry_space_group_name_H-M    'P1'
_symmetry_Int_Tables_number       1
_symmetry_cell_setting            triclinic
loop_
_symmetry_equiv_pos_as_xyz
  x,y,z
_cell_length_a                    28.7276
_cell_length_b                    32.3203
_cell_length_c                    31.3579
_cell_angle_alpha                 89.5270
_cell_angle_beta                  73.0956
_cell_angle_gamma                 90.8918
loop_
_atom_site_label
_atom_site_type_symbol
_atom_site_fract_x
_atom_site_fract_y
_atom_site_fract_z
_atom_site_U_iso_or_equiv
_atom_site_adp_type
_atom_site_occupancy
C1     C     0.33309   0.08747   0.24970   0.00000  Uiso   1.00
C2     C     0.02213   0.02227   0.27737   0.00000  Uiso   1.00
C3     C     0.00044   0.29056   0.25110   0.00000  Uiso   1.00
C4     C     0.33243   0.04278   0.24986   0.00000  Uiso   1.00
C5     C     0.18303   0.13850   0.27557   0.00000  Uiso   1.00
C6     C     0.15034   0.19503   0.22489   0.00000  Uiso   1.00
C7     C     0.13312   0.13903   0.27564   0.00000  Uiso   1.00
C8     C     0.20026   0.19411   0.22418   0.00000  Uiso   1.00
C9     C     0.30559   0.16622   0.33594   0.00000  Uiso   1.00
C10    C     0.02767   0.16731   0.16395   0.00000  Uiso   1.00
C11    C     0.28968   0.16727   0.38491   0.00000  Uiso   1.00
C12    C     0.00013   0.24586   0.25063   0.00000  Uiso   1.00
C13    C     0.04313   0.17376   0.11511   0.00000  Uiso   1.00
C14    C     0.30619   0.16442   0.45608   0.00000  Uiso   1.00
C15    C     0.02666   0.19920   0.04807   0.00000  Uiso   1.00
C16    C     0.32252   0.16092   0.40998   0.00000  Uiso   1.00
C17    C     0.00950   0.18341   0.09166   0.00000  Uiso   1.00
C18    C     0.24061   0.17525   0.40685   0.00000  Uiso   1.00
C19    C     0.09281   0.17454   0.09233   0.00000  Uiso   1.00
C20    C     0.22426   0.18126   0.45316   0.00000  Uiso   1.00
C21    C     0.11027   0.18839   0.04769   0.00000  Uiso   1.00
C22    C     0.25789   0.17428   0.47750   0.00000  Uiso   1.00
C23    C     0.19667   0.18816   0.04644   0.00000  Uiso   1.00
C24    C     0.07630   0.19964   0.02531   0.00000  Uiso   1.00
C25    C     0.17531   0.19192   0.47662   0.00000  Uiso   1.00
C26    C     0.16048   0.18919   0.02413   0.00000  Uiso   1.00
C27    C     0.28034   0.13631   0.11093   0.00000  Uiso   1.00
C28    C     0.04593   0.11085   0.39367   0.00000  Uiso   1.00
C29    C     0.19537   0.24406   0.08947   0.00000  Uiso   1.00
C30    C     0.16986   0.26106   0.40872   0.00000  Uiso   1.00
C31    C     0.24871   0.02322   0.18647   0.00000  Uiso   1.00
C32    C     0.07493   0.31172   0.32475   0.00000  Uiso   1.00
C33    C     0.18246   0.07070   0.29988   0.00000  Uiso   1.00
C34    C     0.14082   0.20675   0.45555   0.00000  Uiso   1.00
C35    C     0.14248   0.26394   0.21247   0.00000  Uiso   1.00
C36    C     0.24369   0.17842   0.02322   0.00000  Uiso   1.00
C37    C     0.09206   0.21042   0.48017   0.00000  Uiso   1.00
C38    C     0.30885   0.02104   0.22327   0.00000  Uiso   1.00
C39    C     0.02320   0.31219   0.27850   0.00000  Uiso   1.00
C40    C     0.31065   0.31112   0.22372   0.00000  Uiso   1.00
Cu41   Cu    0.04689   0.16667   0.25000   0.00000  Uiso   1.00
Cu42   Cu    0.28645   0.16666   0.25000   0.00000  Uiso   1.00
H43    H     0.26952   0.17521   0.04131   0.00000  Uiso   1.00
H44    H     0.29403   0.11769   0.13447   0.00000  Uiso   1.00
H45    H     0.29397   0.12269   0.07716   0.00000  Uiso   1.00
H46    H     0.08523   0.10520   0.37873   0.00000  Uiso   1.00
H47    H     0.02550   0.09203   0.37525   0.00000  Uiso   1.00
H48    H     0.03644   0.10049   0.42914   0.00000  Uiso   1.00
H49    H     0.16585   0.26017   0.07993   0.00000  Uiso   1.00
H50    H     0.23165   0.25388   0.06699   0.00000  Uiso   1.00
H51    H     0.19450   0.25398   0.12331   0.00000  Uiso   1.00
H52    H     0.20262   0.26468   0.42059   0.00000  Uiso   1.00
H53    H     0.14044   0.28159   0.42765   0.00000  Uiso   1.00
H54    H     0.06620   0.22071   0.46329   0.00000  Uiso   1.00
H55    H     0.18026   0.27123   0.37327   0.00000  Uiso   1.00
H56    H     0.22713   0.04665   0.17489   0.00000  Uiso   1.00
H57    H     0.22417   0.00819   0.21704   0.00000  Uiso   1.00
H58    H     0.26100   0.00042   0.15938   0.00000  Uiso   1.00
H59    H     0.10312   0.32867   0.29809   0.00000  Uiso   1.00
H60    H     0.09421   0.28953   0.34049   0.00000  Uiso   1.00
H61    H     0.05493   0.33297   0.35122   0.00000  Uiso   1.00
H62    H     0.18218   0.06276   0.26547   0.00000  Uiso   1.00
H63    H     0.14581   0.06531   0.32369   0.00000  Uiso   1.00
H64    H     0.20768   0.04921   0.30928   0.00000  Uiso   1.00
H65    H     0.33172   0.15966   0.47510   0.00000  Uiso   1.00
H66    H     0.18130   0.27370   0.19935   0.00000  Uiso   1.00
H67    H     0.13016   0.26698   0.24935   0.00000  Uiso   1.00
H68    H     0.12092   0.28559   0.19851   0.00000  Uiso   1.00
H69    H     0.10686   0.11758   0.29648   0.00000  Uiso   1.00
H70    H     0.22638   0.21551   0.20298   0.00000  Uiso   1.00
H71    H     0.00145   0.21068   0.03137   0.00000  Uiso   1.00
H72    H     0.29516   0.29306   0.20211   0.00000  Uiso   1.00
H73    H     0.03796   0.04073   0.29841   0.00000  Uiso   1.00
H74    H     0.11720   0.16248   0.10962   0.00000  Uiso   1.00
H75    H     0.21557   0.17548   0.38721   0.00000  Uiso   1.00
H76    H     0.24008   0.13320   0.12163   0.00000  Uiso   1.00
N77    N     0.11736   0.16668   0.24999   0.00000  Uiso   1.00
N78    N     0.21597   0.16666   0.25001   0.00000  Uiso   1.00
O79    O     0.03958   0.10655   0.25000   0.00000  Uiso   1.00
O80    O     0.03781   0.15342   0.38961   0.00000  Uiso   1.00
O81    O     0.18814   0.20075   0.09000   0.00000  Uiso   1.00
O82    O     0.15367   0.21944   0.41144   0.00000  Uiso   1.00
O83    O     0.28916   0.04345   0.19461   0.00000  Uiso   1.00
O84    O     0.04222   0.28920   0.30738   0.00000  Uiso   1.00
O85    O     0.19879   0.11169   0.30306   0.00000  Uiso   1.00
O86    O     0.13485   0.22342   0.19897   0.00000  Uiso   1.00
O87    O     0.29375   0.22678   0.25000   0.00000  Uiso   1.00
O88    O     0.29372   0.10654   0.25001   0.00000  Uiso   1.00
O89    O     0.03961   0.22679   0.25000   0.00000  Uiso   1.00
O90    O     0.01852   0.16668   0.31492   0.00000  Uiso   1.00
O91    O     0.31481   0.16666   0.18509   0.00000  Uiso   1.00
O92    O     0.27267   0.16667   0.31492   0.00000  Uiso   1.00
O93    O     0.06067   0.16667   0.18508   0.00000  Uiso   1.00
O94    O     0.29321   0.17882   0.11115   0.00000  Uiso   1.00
C95    C     0.66642   0.08747   0.24970   0.00000  Uiso   1.00
C96    C     0.35546   0.02227   0.27737   0.00000  Uiso   1.00
C97    C     0.33377   0.29056   0.25110   0.00000  Uiso   1.00
C98    C     0.66577   0.04278   0.24986   0.00000  Uiso   1.00
C99    C     0.51637   0.13850   0.27557   0.00000  Uiso   1.00
C100   C     0.48368   0.19503   0.22489   0.00000  Uiso   1.00
C101   C     0.46645   0.13903   0.27564   0.00000  Uiso   1.00
C102   C     0.53359   0.19411   0.22418   0.00000  Uiso   1.00
C103   C     0.63892   0.16622   0.33594   0.00000  Uiso   1.00
C104   C     0.36101   0.16731   0.16395   0.00000  Uiso   1.00
C105   C     0.62302   0.16727   0.38491   0.00000  Uiso   1.00
C106   C     0.33346   0.24586   0.25063   0.00000  Uiso   1.00
C107   C     0.37646   0.17376   0.11511   0.00000  Uiso   1.00
C108   C     0.63953   0.16442   0.45608   0.00000  Uiso   1.00
C109   C     0.35999   0.19920   0.04807   0.00000  Uiso   1.00
C110   C     0.65585   0.16092   0.40998   0.00000  Uiso   1.00
C111   C     0.34283   0.18341   0.09166   0.00000  Uiso   1.00
C112   C     0.57394   0.17525   0.40685   0.00000  Uiso   1.00
C113   C     0.42614   0.17454   0.09233   0.00000  Uiso   1.00
C114   C     0.55759   0.18126   0.45316   0.00000  Uiso   1.00
C115   C     0.44360   0.18839   0.04769   0.00000  Uiso   1.00
C116   C     0.59122   0.17428   0.47750   0.00000  Uiso   1.00
C117   C     0.53000   0.18816   0.04644   0.00000  Uiso   1.00
C118   C     0.40964   0.19964   0.02531   0.00000  Uiso   1.00
C119   C     0.50864   0.19192   0.47662   0.00000  Uiso   1.00
C120   C     0.49381   0.18919   0.02413   0.00000  Uiso   1.00
C121   C     0.61367   0.13631   0.11093   0.00000  Uiso   1.00
C122   C     0.37926   0.11085   0.39367   0.00000  Uiso   1.00
C123   C     0.52870   0.24406   0.08947   0.00000  Uiso   1.00
C124   C     0.50319   0.26106   0.40872   0.00000  Uiso   1.00
C125   C     0.58205   0.02322   0.18647   0.00000  Uiso   1.00
C126   C     0.40826   0.31172   0.32475   0.00000  Uiso   1.00
C127   C     0.51579   0.07070   0.29988   0.00000  Uiso   1.00
C128   C     0.47415   0.20675   0.45555   0.00000  Uiso   1.00
C129   C     0.47581   0.26394   0.21247   0.00000  Uiso   1.00
C130   C     0.57702   0.17842   0.02322   0.00000  Uiso   1.00
C131   C     0.42540   0.21042   0.48017   0.00000  Uiso   1.00
C132   C     0.64218   0.02104   0.22327   0.00000  Uiso   1.00
C133   C     0.35653   0.31219   0.27850   0.00000  Uiso   1.00
C134   C     0.64398   0.31112   0.22372   0.00000  Uiso   1.00
Cu135  Cu    0.38022   0.16667   0.25000   0.00000  Uiso   1.00
Cu136  Cu    0.61978   0.16666   0.25000   0.00000  Uiso   1.00
H137   H     0.60285   0.17521   0.04131   0.00000  Uiso   1.00
H138   H     0.62737   0.11769   0.13447   0.00000  Uiso   1.00
H139   H     0.62731   0.12269   0.07716   0.00000  Uiso   1.00
H140   H     0.41856   0.10520   0.37873   0.00000  Uiso   1.00
H141   H     0.35883   0.09203   0.37525   0.00000  Uiso   1.00
H142   H     0.36977   0.10049   0.42914   0.00000  Uiso   1.00
H143   H     0.49918   0.26017   0.07993   0.00000  Uiso   1.00
H144   H     0.56498   0.25388   0.06699   0.00000  Uiso   1.00
H145   H     0.52784   0.25398   0.12331   0.00000  Uiso   1.00
H146   H     0.53595   0.26468   0.42059   0.00000  Uiso   1.00
H147   H     0.47377   0.28159   0.42765   0.00000  Uiso   1.00
H148   H     0.39953   0.22071   0.46329   0.00000  Uiso   1.00
H149   H     0.51359   0.27123   0.37327   0.00000  Uiso   1.00
H150   H     0.56047   0.04665   0.17489   0.00000  Uiso   1.00
H151   H     0.55751   0.00819   0.21704   0.00000  Uiso   1.00
H152   H     0.59433   0.00042   0.15938   0.00000  Uiso   1.00
H153   H     0.43646   0.32867   0.29809   0.00000  Uiso   1.00
H154   H     0.42755   0.28953   0.34049   0.00000  Uiso   1.00
H155   H     0.38826   0.33297   0.35122   0.00000  Uiso   1.00
H156   H     0.51551   0.06276   0.26547   0.00000  Uiso   1.00
H157   H     0.47914   0.06531   0.32369   0.00000  Uiso   1.00
H158   H     0.54102   0.04921   0.30928   0.00000  Uiso   1.00
H159   H     0.66506   0.15966   0.47510   0.00000  Uiso   1.00
H160   H     0.51463   0.27370   0.19935   0.00000  Uiso   1.00
H161   H     0.46350   0.26698   0.24935   0.00000  Uiso   1.00
H162   H     0.45425   0.28559   0.19851   0.00000  Uiso   1.00
H163   H     0.44019   0.11758   0.29648   0.00000  Uiso   1.00
H164   H     0.55971   0.21551   0.20298   0.00000  Uiso   1.00
H165   H     0.33479   0.21068   0.03137   0.00000  Uiso   1.00
H166   H     0.62849   0.29306   0.20211   0.00000  Uiso   1.00
H167   H     0.37129   0.04073   0.29841   0.00000  Uiso   1.00
H168   H     0.45053   0.16248   0.10962   0.00000  Uiso   1.00
H169   H     0.54891   0.17548   0.38721   0.00000  Uiso   1.00
H170   H     0.57341   0.13320   0.12163   0.00000  Uiso   1.00
N171   N     0.45069   0.16668   0.24999   0.00000  Uiso   1.00
N172   N     0.54931   0.16666   0.25001   0.00000  Uiso   1.00
O173   O     0.37291   0.10655   0.25000   0.00000  Uiso   1.00
O174   O     0.37115   0.15342   0.38961   0.00000  Uiso   1.00
O175   O     0.52147   0.20075   0.09000   0.00000  Uiso   1.00
O176   O     0.48701   0.21944   0.41144   0.00000  Uiso   1.00
O177   O     0.62250   0.04345   0.19461   0.00000  Uiso   1.00
O178   O     0.37555   0.28920   0.30738   0.00000  Uiso   1.00
O179   O     0.53213   0.11169   0.30306   0.00000  Uiso   1.00
O180   O     0.46819   0.22342   0.19897   0.00000  Uiso   1.00
O181   O     0.62709   0.22678   0.25000   0.00000  Uiso   1.00
O182   O     0.62706   0.10654   0.25001   0.00000  Uiso   1.00
O183   O     0.37294   0.22679   0.25000   0.00000  Uiso   1.00
O184   O     0.35186   0.16668   0.31492   0.00000  Uiso   1.00
O185   O     0.64814   0.16666   0.18509   0.00000  Uiso   1.00
O186   O     0.60600   0.16667   0.31492   0.00000  Uiso   1.00
O187   O     0.39400   0.16667   0.18508   0.00000  Uiso   1.00
O188   O     0.62654   0.17882   0.11115   0.00000  Uiso   1.00
C189   C     0.99975   0.08747   0.24970   0.00000  Uiso   1.00
C190   C     0.68879   0.02227   0.27737   0.00000  Uiso   1.00
C191   C     0.66710   0.29056   0.25110   0.00000  Uiso   1.00
C192   C     0.99910   0.04278   0.24986   0.00000  Uiso   1.00
C193   C     0.84970   0.13850   0.27557   0.00000  Uiso   1.00
C194   C     0.81701   0.19503   0.22489   0.00000  Uiso   1.00
C195   C     0.79978   0.13903   0.27564   0.00000  Uiso   1.00
C196   C     0.86693   0.19411   0.22418   0.00000  Uiso   1.00
C197   C     0.97225   0.16622   0.33594   0.00000  Uiso   1.00
C198   C     0.69434   0.16731   0.16395   0.00000  Uiso   1.00
C199   C     0.95635   0.16727   0.38491   0.00000  Uiso   1.00
C200   C     0.66679   0.24586   0.25063   0.00000  Uiso   1.00
C201   C     0.70980   0.17376   0.11511   0.00000  Uiso   1.00
C202   C     0.97286   0.16442   0.45608   0.00000  Uiso   1.00
C203   C     0.69333   0.19920   0.04807   0.00000  Uiso   1.00
C204   C     0.98918   0.16092   0.40998   0.00000  Uiso   1.00
C205   C     0.67617   0.18341   0.09166   0.00000  Uiso   1.00
C206   C     0.90727   0.17525   0.40685   0.00000  Uiso   1.00
C207   C     0.75948   0.17454   0.09233   0.00000  Uiso   1.00
C208   C     0.89093   0.18126   0.45316   0.00000  Uiso   1.00
C209   C     0.77694   0.18839   0.04769   0.00000  Uiso   1.00
C210   C     0.92455   0.17428   0.47750   0.00000  Uiso   1.00
C211   C     0.86334   0.18816   0.04644   0.00000  Uiso   1.00
C212   C     0.74297   0.19964   0.02531   0.00000  Uiso   1.00
C213   C     0.84198   0.19192   0.47662   0.00000  Uiso   1.00
C214   C     0.82714   0.18919   0.02413   0.00000  Uiso   1.00
C215   C     0.94701   0.13631   0.11093   0.00000  Uiso   1.00
C216   C     0.71259   0.11085   0.39367   0.00000  Uiso   1.00
C217   C     0.86203   0.24406   0.08947   0.00000  Uiso   1.00
C218   C     0.83653   0.26106   0.40872   0.00000  Uiso   1.00
C219   C     0.91538   0.02322   0.18647   0.00000  Uiso   1.00
C220   C     0.74159   0.31172   0.32475   0.00000  Uiso   1.00
C221   C     0.84912   0.07070   0.29988   0.00000  Uiso   1.00
C222   C     0.80749   0.20675   0.45555   0.00000  Uiso   1.00
C223   C     0.80914   0.26394   0.21247   0.00000  Uiso   1.00
C224   C     0.91036   0.17842   0.02322   0.00000  Uiso   1.00
C225   C     0.75873   0.21042   0.48017   0.00000  Uiso   1.00
C226   C     0.97552   0.02104   0.22327   0.00000  Uiso   1.00
C227   C     0.68987   0.31219   0.27850   0.00000  Uiso   1.00
C228   C     0.97732   0.31112   0.22372   0.00000  Uiso   1.00
Cu229  Cu    0.71355   0.16667   0.25000   0.00000  Uiso   1.00
Cu230  Cu    0.95311   0.16666   0.25000   0.00000  Uiso   1.00
H231   H     0.93618   0.17521   0.04131   0.00000  Uiso   1.00
H232   H     0.96070   0.11769   0.13447   0.00000  Uiso   1.00
H233   H     0.96064   0.12269   0.07716   0.00000  Uiso   1.00
H234   H     0.75189   0.10520   0.37873   0.00000  Uiso   1.00
H235   H     0.69216   0.09203   0.37525   0.00000  Uiso   1.00
H236   H     0.70311   0.10049   0.42914   0.00000  Uiso   1.00
H237   H     0.83252   0.26017   0.07993   0.00000  Uiso   1.00
H238   H     0.89831   0.25388   0.06699   0.00000  Uiso   1.00
H239   H     0.86117   0.25398   0.12331   0.00000  Uiso   1.00
H240   H     0.86928   0.26468   0.42059   0.00000  Uiso   1.00
H241   H     0.80710   0.28159   0.42765   0.00000  Uiso   1.00
H242   H     0.73287   0.22071   0.46329   0.00000  Uiso   1.00
H243   H     0.84692   0.27123   0.37327   0.00000  Uiso   1.00
H244   H     0.89380   0.04665   0.17489   0.00000  Uiso   1.00
H245   H     0.89084   0.00819   0.21704   0.00000  Uiso   1.00
H246   H     0.92767   0.00042   0.15938   0.00000  Uiso   1.00
H247   H     0.76979   0.32867   0.29809   0.00000  Uiso   1.00
H248   H     0.76088   0.28953   0.34049   0.00000  Uiso   1.00
H249   H     0.72160   0.33297   0.35122   0.00000  Uiso   1.00
H250   H     0.84884   0.06276   0.26547   0.00000  Uiso   1.00
H251   H     0.81247   0.06531   0.32369   0.00000  Uiso   1.00
H252   H     0.87435   0.04921   0.30928   0.00000  Uiso   1.00
H253   H     0.99839   0.15966   0.47510   0.00000  Uiso   1.00
H254   H     0.84796   0.27370   0.19935   0.00000  Uiso   1.00
H255   H     0.79683   0.26698   0.24935   0.00000  Uiso   1.00
H256   H     0.78758   0.28559   0.19851   0.00000  Uiso   1.00
H257   H     0.77353   0.11758   0.29648   0.00000  Uiso   1.00
H258   H     0.89304   0.21551   0.20298   0.00000  Uiso   1.00
H259   H     0.66812   0.21068   0.03137   0.00000  Uiso   1.00
H260   H     0.96182   0.29306   0.20211   0.00000  Uiso   1.00
H261   H     0.70463   0.04073   0.29841   0.00000  Uiso   1.00
H262   H     0.78387   0.16248   0.10962   0.00000  Uiso   1.00
H263   H     0.88224   0.17548   0.38721   0.00000  Uiso   1.00
H264   H     0.90674   0.13320   0.12163   0.00000  Uiso   1.00
N265   N     0.78403   0.16668   0.24999   0.00000  Uiso   1.00
N266   N     0.88264   0.16666   0.25001   0.00000  Uiso   1.00
O267   O     0.70625   0.10655   0.25000   0.00000  Uiso   1.00
O268   O     0.70448   0.15342   0.38961   0.00000  Uiso   1.00
O269   O     0.85481   0.20075   0.09000   0.00000  Uiso   1.00
O270   O     0.82034   0.21944   0.41144   0.00000  Uiso   1.00
O271   O     0.95583   0.04345   0.19461   0.00000  Uiso   1.00
O272   O     0.70888   0.28920   0.30738   0.00000  Uiso   1.00
O273   O     0.86546   0.11169   0.30306   0.00000  Uiso   1.00
O274   O     0.80152   0.22342   0.19897   0.00000  Uiso   1.00
O275   O     0.96042   0.22678   0.25000   0.00000  Uiso   1.00
O276   O     0.96039   0.10654   0.25001   0.00000  Uiso   1.00
O277   O     0.70628   0.22679   0.25000   0.00000  Uiso   1.00
O278   O     0.68519   0.16668   0.31492   0.00000  Uiso   1.00
O279   O     0.98148   0.16666   0.18509   0.00000  Uiso   1.00
O280   O     0.93933   0.16667   0.31492   0.00000  Uiso   1.00
O281   O     0.72733   0.16667   0.18508   0.00000  Uiso   1.00
O282   O     0.95987   0.17882   0.11115   0.00000  Uiso   1.00
C283   C     0.33309   0.42081   0.24970   0.00000  Uiso   1.00
C284   C     0.02213   0.35561   0.27737   0.00000  Uiso   1.00
C285   C     0.00044   0.62389   0.25110   0.00000  Uiso   1.00
C286   C     0.33243   0.37611   0.24986   0.00000  Uiso   1.00
C287   C     0.18303   0.47183   0.27557   0.00000  Uiso   1.00
C288   C     0.15034   0.52836   0.22489   0.00000  Uiso   1.00
C289   C     0.13312   0.47237   0.27564   0.00000  Uiso   1.00
C290   C     0.20026   0.52745   0.22418   0.00000  Uiso   1.00
C291   C     0.30559   0.49956   0.33594   0.00000  Uiso   1.00
C292   C     0.02767   0.50065   0.16395   0.00000  Uiso   1.00
C293   C     0.28968   0.50061   0.38491   0.00000  Uiso   1.00
C294   C     0.00013   0.57919   0.25063   0.00000  Uiso   1.00
C295   C     0.04313   0.50710   0.11511   0.00000  Uiso   1.00
C296   C     0.30619   0.49776   0.45608   0.00000  Uiso   1.00
C297   C     0.02666   0.53253   0.04807   0.00000  Uiso   1.00
C298   C     0.32252   0.49425   0.40998   0.00000  Uiso   1.00
C299   C     0.00950   0.51675   0.09166   0.00000  Uiso   1.00
C300   C     0.24061   0.50859   0.40685   0.00000  Uiso   1.00
C301   C     0.09281   0.50787   0.09233   0.00000  Uiso   1.00
C302   C     0.22426   0.51459   0.45316   0.00000  Uiso   1.00
C303   C     0.11027   0.52173   0.04769   0.00000  Uiso   1.00
C304   C     0.25789   0.50761   0.47750   0.00000  Uiso   1.00
C305   C     0.19667   0.52149   0.04644   0.00000  Uiso   1.00
C306   C     0.07630   0.53297   0.02531   0.00000  Uiso   1.00
C307   C     0.17531   0.52525   0.47662   0.00000  Uiso   1.00
C308   C     0.16048   0.52252   0.02413   0.00000  Uiso   1.00
C309   C     0.28034   0.46965   0.11093   0.00000  Uiso   1.00
C310   C     0.04593   0.44418   0.39367   0.00000  Uiso   1.00
C311   C     0.19537   0.57739   0.08947   0.00000  Uiso   1.00
C312   C     0.16986   0.59439   0.40872   0.00000  Uiso   1.00
C313   C     0.24871   0.35655   0.18647   0.00000  Uiso   1.00
C314   C     0.07493   0.64506   0.32475   0.00000  Uiso   1.00
C315   C     0.18246   0.40403   0.29988   0.00000  Uiso   1.00
C316   C     0.14082   0.54008   0.45555   0.00000  Uiso   1.00
C317   C     0.14248   0.59727   0.21247   0.00000  Uiso   1.00
C318   C     0.24369   0.51175   0.02322   0.00000  Uiso   1.00
C319   C     0.09206   0.54375   0.48017   0.00000  Uiso   1.00
C320   C     0.30885   0.35437   0.22327   0.00000  Uiso   1.00
C321   C     0.02320   0.64553   0.27850   0.00000  Uiso   1.00
C322   C     0.31065   0.64446   0.22372   0.00000  Uiso   1.00
Cu323  Cu    0.04689   0.50001   0.25000   0.00000  Uiso   1.00
Cu324  Cu    0.28645   0.49999   0.25000   0.00000  Uiso   1.00
H325   H     0.26952   0.50854   0.04131   0.00000  Uiso   1.00
H326   H     0.29403   0.45102   0.13447   0.00000  Uiso   1.00
H327   H     0.29397   0.45602   0.07716   0.00000  Uiso   1.00
H328   H     0.08523   0.43853   0.37873   0.00000  Uiso   1.00
H329   H     0.02550   0.42536   0.37525   0.00000  Uiso   1.00
H330   H     0.03644   0.43382   0.42914   0.00000  Uiso   1.00
H331   H     0.16585   0.59350   0.07993   0.00000  Uiso   1.00
H332   H     0.23165   0.58722   0.06699   0.00000  Uiso   1.00
H333   H     0.19450   0.58731   0.12331   0.00000  Uiso   1.00
H334   H     0.20262   0.59802   0.42059   0.00000  Uiso   1.00
H335   H     0.14044   0.61492   0.42765   0.00000  Uiso   1.00
H336   H     0.06620   0.55405   0.46329   0.00000  Uiso   1.00
H337   H     0.18026   0.60456   0.37327   0.00000  Uiso   1.00
H338   H     0.22713   0.37999   0.17489   0.00000  Uiso   1.00
H339   H     0.22417   0.34152   0.21704   0.00000  Uiso   1.00
H340   H     0.26100   0.33375   0.15938   0.00000  Uiso   1.00
H341   H     0.10312   0.66200   0.29809   0.00000  Uiso   1.00
H342   H     0.09421   0.62286   0.34049   0.00000  Uiso   1.00
H343   H     0.05493   0.66630   0.35122   0.00000  Uiso   1.00
H344   H     0.18218   0.39609   0.26547   0.00000  Uiso   1.00
H345   H     0.14581   0.39864   0.32369   0.00000  Uiso   1.00
H346   H     0.20768   0.38254   0.30928   0.00000  Uiso   1.00
H347   H     0.33172   0.49299   0.47510   0.00000  Uiso   1.00
H348   H     0.18130   0.60703   0.19935   0.00000  Uiso   1.00
H349   H     0.13016   0.60031   0.24935   0.00000  Uiso   1.00
H350   H     0.12092   0.61892   0.19851   0.00000  Uiso   1.00
H351   H     0.10686   0.45091   0.29648   0.00000  Uiso   1.00
H352   H     0.22638   0.54885   0.20298   0.00000  Uiso   1.00
H353   H     0.00145   0.54401   0.03137   0.00000  Uiso   1.00
H354   H     0.29516   0.62640   0.20211   0.00000  Uiso   1.00
H355   H     0.03796   0.37407   0.29841   0.00000  Uiso   1.00
H356   H     0.11720   0.49582   0.10962   0.00000  Uiso   1.00
H357   H     0.21557   0.50881   0.38721   0.00000  Uiso   1.00
H358   H     0.24008   0.46653   0.12163   0.00000  Uiso   1.00
N359   N     0.11736   0.50001   0.24999   0.00000  Uiso   1.00
N360   N     0.21597   0.49999   0.25001   0.00000  Uiso   1.00
O361   O     0.03958   0.43989   0.25000   0.00000  Uiso   1.00
O362   O     0.03781   0.48676   0.38961   0.00000  Uiso   1.00
O363   O     0.18814   0.53409   0.09000   0.00000  Uiso   1.00
O364   O     0.15367   0.55278   0.41144   0.00000  Uiso   1.00
O365   O     0.28916   0.37678   0.19461   0.00000  Uiso   1.00
O366   O     0.04222   0.62254   0.30738   0.00000  Uiso   1.00
O367   O     0.19879   0.44503   0.30306   0.00000  Uiso   1.00
O368   O     0.13485   0.55675   0.19897   0.00000  Uiso   1.00
O369   O     0.29375   0.56011   0.25000   0.00000  Uiso   1.00
O370   O     0.29372   0.43988   0.25001   0.00000  Uiso   1.00
O371   O     0.03961   0.56012   0.25000   0.00000  Uiso   1.00
O372   O     0.01852   0.50001   0.31492   0.00000  Uiso   1.00
O373   O     0.31481   0.49999   0.18509   0.00000  Uiso   1.00
O374   O     0.27267   0.50000   0.31492   0.00000  Uiso   1.00
O375   O     0.06067   0.50000   0.18508   0.00000  Uiso   1.00
O376   O     0.29321   0.51216   0.11115   0.00000  Uiso   1.00
C377   C     0.66642   0.42081   0.24970   0.00000  Uiso   1.00
C378   C     0.35546   0.35561   0.27737   0.00000  Uiso   1.00
C379   C     0.33377   0.62389   0.25110   0.00000  Uiso   1.00
C380   C     0.66577   0.37611   0.24986   0.00000  Uiso   1.00
C381   C     0.51637   0.47183   0.27557   0.00000  Uiso   1.00
C382   C     0.48368   0.52836   0.22489   0.00000  Uiso   1.00
C383   C     0.46645   0.47237   0.27564   0.00000  Uiso   1.00
C384   C     0.53359   0.52745   0.22418   0.00000  Uiso   1.00
C385   C     0.63892   0.49956   0.33594   0.00000  Uiso   1.00
C386   C     0.36101   0.50065   0.16395   0.00000  Uiso   1.00
C387   C     0.62302   0.50061   0.38491   0.00000  Uiso   1.00
C388   C     0.33346   0.57919   0.25063   0.00000  Uiso   1.00
C389   C     0.37646   0.50710   0.11511   0.00000  Uiso   1.00
C390   C     0.63953   0.49776   0.45608   0.00000  Uiso   1.00
C391   C     0.35999   0.53253   0.04807   0.00000  Uiso   1.00
C392   C     0.65585   0.49425   0.40998   0.00000  Uiso   1.00
C393   C     0.34283   0.51675   0.09166   0.00000  Uiso   1.00
C394   C     0.57394   0.50859   0.40685   0.00000  Uiso   1.00
C395   C     0.42614   0.50787   0.09233   0.00000  Uiso   1.00
C396   C     0.55759   0.51459   0.45316   0.00000  Uiso   1.00
C397   C     0.44360   0.52173   0.04769   0.00000  Uiso   1.00
C398   C     0.59122   0.50761   0.47750   0.00000  Uiso   1.00
C399   C     0.53000   0.52149   0.04644   0.00000  Uiso   1.00
C400   C     0.40964   0.53297   0.02531   0.00000  Uiso   1.00
C401   C     0.50864   0.52525   0.47662   0.00000  Uiso   1.00
C402   C     0.49381   0.52252   0.02413   0.00000  Uiso   1.00
C403   C     0.61367   0.46965   0.11093   0.00000  Uiso   1.00
C404   C     0.37926   0.44418   0.39367   0.00000  Uiso   1.00
C405   C     0.52870   0.57739   0.08947   0.00000  Uiso   1.00
C406   C     0.50319   0.59439   0.40872   0.00000  Uiso   1.00
C407   C     0.58205   0.35655   0.18647   0.00000  Uiso   1.00
C408   C     0.40826   0.64506   0.32475   0.00000  Uiso   1.00
C409   C     0.51579   0.40403   0.29988   0.00000  Uiso   1.00
C410   C     0.47415   0.54008   0.45555   0.00000  Uiso   1.00
C411   C     0.47581   0.59727   0.21247   0.00000  Uiso   1.00
C412   C     0.57702   0.51175   0.02322   0.00000  Uiso   1.00
C413   C     0.42540   0.54375   0.48017   0.00000  Uiso   1.00
C414   C     0.64218   0.35437   0.22327   0.00000  Uiso   1.00
C415   C     0.35653   0.64553   0.27850   0.00000  Uiso   1.00
C416   C     0.64398   0.64446   0.22372   0.00000  Uiso   1.00
Cu417  Cu    0.38022   0.50001   0.25000   0.00000  Uiso   1.00
Cu418  Cu    0.61978   0.49999   0.25000   0.00000  Uiso   1.00
H419   H     0.60285   0.50854   0.04131   0.00000  Uiso   1.00
H420   H     0.62737   0.45102   0.13447   0.00000  Uiso   1.00
H421   H     0.62731   0.45602   0.07716   0.00000  Uiso   1.00
H422   H     0.41856   0.43853   0.37873   0.00000  Uiso   1.00
H423   H     0.35883   0.42536   0.37525   0.00000  Uiso   1.00
H424   H     0.36977   0.43382   0.42914   0.00000  Uiso   1.00
H425   H     0.49918   0.59350   0.07993   0.00000  Uiso   1.00
H426   H     0.56498   0.58722   0.06699   0.00000  Uiso   1.00
H427   H     0.52784   0.58731   0.12331   0.00000  Uiso   1.00
H428   H     0.53595   0.59802   0.42059   0.00000  Uiso   1.00
H429   H     0.47377   0.61492   0.42765   0.00000  Uiso   1.00
H430   H     0.39953   0.55405   0.46329   0.00000  Uiso   1.00
H431   H     0.51359   0.60456   0.37327   0.00000  Uiso   1.00
H432   H     0.56047   0.37999   0.17489   0.00000  Uiso   1.00
H433   H     0.55751   0.34152   0.21704   0.00000  Uiso   1.00
H434   H     0.59433   0.33375   0.15938   0.00000  Uiso   1.00
H435   H     0.43646   0.66200   0.29809   0.00000  Uiso   1.00
H436   H     0.42755   0.62286   0.34049   0.00000  Uiso   1.00
H437   H     0.38826   0.66630   0.35122   0.00000  Uiso   1.00
H438   H     0.51551   0.39609   0.26547   0.00000  Uiso   1.00
H439   H     0.47914   0.39864   0.32369   0.00000  Uiso   1.00
H440   H     0.54102   0.38254   0.30928   0.00000  Uiso   1.00
H441   H     0.66506   0.49299   0.47510   0.00000  Uiso   1.00
H442   H     0.51463   0.60703   0.19935   0.00000  Uiso   1.00
H443   H     0.46350   0.60031   0.24935   0.00000  Uiso   1.00
H444   H     0.45425   0.61892   0.19851   0.00000  Uiso   1.00
H445   H     0.44019   0.45091   0.29648   0.00000  Uiso   1.00
H446   H     0.55971   0.54885   0.20298   0.00000  Uiso   1.00
H447   H     0.33479   0.54401   0.03137   0.00000  Uiso   1.00
H448   H     0.62849   0.62640   0.20211   0.00000  Uiso   1.00
H449   H     0.37129   0.37407   0.29841   0.00000  Uiso   1.00
H450   H     0.45053   0.49582   0.10962   0.00000  Uiso   1.00
H451   H     0.54891   0.50881   0.38721   0.00000  Uiso   1.00
H452   H     0.57341   0.46653   0.12163   0.00000  Uiso   1.00
N453   N     0.45069   0.50001   0.24999   0.00000  Uiso   1.00
N454   N     0.54931   0.49999   0.25001   0.00000  Uiso   1.00
O455   O     0.37291   0.43989   0.25000   0.00000  Uiso   1.00
O456   O     0.37115   0.48676   0.38961   0.00000  Uiso   1.00
O457   O     0.52147   0.53409   0.09000   0.00000  Uiso   1.00
O458   O     0.48701   0.55278   0.41144   0.00000  Uiso   1.00
O459   O     0.62250   0.37678   0.19461   0.00000  Uiso   1.00
O460   O     0.37555   0.62254   0.30738   0.00000  Uiso   1.00
O461   O     0.53213   0.44503   0.30306   0.00000  Uiso   1.00
O462   O     0.46819   0.55675   0.19897   0.00000  Uiso   1.00
O463   O     0.62709   0.56011   0.25000   0.00000  Uiso   1.00
O464   O     0.62706   0.43988   0.25001   0.00000  Uiso   1.00
O465   O     0.37294   0.56012   0.25000   0.00000  Uiso   1.00
O466   O     0.35186   0.50001   0.31492   0.00000  Uiso   1.00
O467   O     0.64814   0.49999   0.18509   0.00000  Uiso   1.00
O468   O     0.60600   0.50000   0.31492   0.00000  Uiso   1.00
O469   O     0.39400   0.50000   0.18508   0.00000  Uiso   1.00
O470   O     0.62654   0.51216   0.11115   0.00000  Uiso   1.00
C471   C     0.99975   0.42081   0.24970   0.00000  Uiso   1.00
C472   C     0.68879   0.35561   0.27737   0.00000  Uiso   1.00
C473   C     0.66710   0.62389   0.25110   0.00000  Uiso   1.00
C474   C     0.99910   0.37611   0.24986   0.00000  Uiso   1.00
C475   C     0.84970   0.47183   0.27557   0.00000  Uiso   1.00
C476   C     0.81701   0.52836   0.22489   0.00000  Uiso   1.00
C477   C     0.79978   0.47237   0.27564   0.00000  Uiso   1.00
C478   C     0.86693   0.52745   0.22418   0.00000  Uiso   1.00
C479   C     0.97225   0.49956   0.33594   0.00000  Uiso   1.00
C480   C     0.69434   0.50065   0.16395   0.00000  Uiso   1.00
C481   C     0.95635   0.50061   0.38491   0.00000  Uiso   1.00
C482   C     0.66679   0.57919   0.25063   0.00000  Uiso   1.00
C483   C     0.70980   0.50710   0.11511   0.00000  Uiso   1.00
C484   C     0.97286   0.49776   0.45608   0.00000  Uiso   1.00
C485   C     0.69333   0.53253   0.04807   0.00000  Uiso   1.00
C486   C     0.98918   0.49425   0.40998   0.00000  Uiso   1.00
C487   C     0.67617   0.51675   0.09166   0.00000  Uiso   1.00
C488   C     0.90727   0.50859   0.40685   0.00000  Uiso   1.00
C489   C     0.75948   0.50787   0.09233   0.00000  Uiso   1.00
C490   C     0.89093   0.51459   0.45316   0.00000  Uiso   1.00
C491   C     0.77694   0.52173   0.04769   0.00000  Uiso   1.00
C492   C     0.92455   0.50761   0.47750   0.00000  Uiso   1.00
C493   C     0.86334   0.52149   0.04644   0.00000  Uiso   1.00
C494   C     0.74297   0.53297   0.02531   0.00000  Uiso   1.00
C495   C     0.84198   0.52525   0.47662   0.00000  Uiso   1.00
C496   C     0.82714   0.52252   0.02413   0.00000  Uiso   1.00
C497   C     0.94701   0.46965   0.11093   0.00000  Uiso   1.00
C498   C     0.71259   0.44418   0.39367   0.00000  Uiso   1.00
C499   C     0.86203   0.57739   0.08947   0.00000  Uiso   1.00
C500   C     0.83653   0.59439   0.40872   0.00000  Uiso   1.00
C501   C     0.91538   0.35655   0.18647   0.00000  Uiso   1.00
C502   C     0.74159   0.64506   0.32475   0.00000  Uiso   1.00
C503   C     0.84912   0.40403   0.29988   0.00000  Uiso   1.00
C504   C     0.80749   0.54008   0.45555   0.00000  Uiso   1.00
C505   C     0.80914   0.59727   0.21247   0.00000  Uiso   1.00
C506   C     0.91036   0.51175   0.02322   0.00000  Uiso   1.00
C507   C     0.75873   0.54375   0.48017   0.00000  Uiso   1.00
C508   C     0.97552   0.35437   0.22327   0.00000  Uiso   1.00
C509   C     0.68987   0.64553   0.27850   0.00000  Uiso   1.00
C510   C     0.97732   0.64446   0.22372   0.00000  Uiso   1.00
Cu511  Cu    0.71355   0.50001   0.25000   0.00000  Uiso   1.00
Cu512  Cu    0.95311   0.49999   0.25000   0.00000  Uiso   1.00
H513   H     0.93618   0.50854   0.04131   0.00000  Uiso   1.00
H514   H     0.96070   0.45102   0.13447   0.00000  Uiso   1.00
H515   H     0.96064   0.45602   0.07716   0.00000  Uiso   1.00
H516   H     0.75189   0.43853   0.37873   0.00000  Uiso   1.00
H517   H     0.69216   0.42536   0.37525   0.00000  Uiso   1.00
H518   H     0.70311   0.43382   0.42914   0.00000  Uiso   1.00
H519   H     0.83252   0.59350   0.07993   0.00000  Uiso   1.00
H520   H     0.89831   0.58722   0.06699   0.00000  Uiso   1.00
H521   H     0.86117   0.58731   0.12331   0.00000  Uiso   1.00
H522   H     0.86928   0.59802   0.42059   0.00000  Uiso   1.00
H523   H     0.80710   0.61492   0.42765   0.00000  Uiso   1.00
H524   H     0.73287   0.55405   0.46329   0.00000  Uiso   1.00
H525   H     0.84692   0.60456   0.37327   0.00000  Uiso   1.00
H526   H     0.89380   0.37999   0.17489   0.00000  Uiso   1.00
H527   H     0.89084   0.34152   0.21704   0.00000  Uiso   1.00
H528   H     0.92767   0.33375   0.15938   0.00000  Uiso   1.00
H529   H     0.76979   0.66200   0.29809   0.00000  Uiso   1.00
H530   H     0.76088   0.62286   0.34049   0.00000  Uiso   1.00
H531   H     0.72160   0.66630   0.35122   0.00000  Uiso   1.00
H532   H     0.84884   0.39609   0.26547   0.00000  Uiso   1.00
H533   H     0.81247   0.39864   0.32369   0.00000  Uiso   1.00
H534   H     0.87435   0.38254   0.30928   0.00000  Uiso   1.00
H535   H     0.99839   0.49299   0.47510   0.00000  Uiso   1.00
H536   H     0.84796   0.60703   0.19935   0.00000  Uiso   1.00
H537   H     0.79683   0.60031   0.24935   0.00000  Uiso   1.00
H538   H     0.78758   0.61892   0.19851   0.00000  Uiso   1.00
H539   H     0.77353   0.45091   0.29648   0.00000  Uiso   1.00
H540   H     0.89304   0.54885   0.20298   0.00000  Uiso   1.00
H541   H     0.66812   0.54401   0.03137   0.00000  Uiso   1.00
H542   H     0.96182   0.62640   0.20211   0.00000  Uiso   1.00
H543   H     0.70463   0.37407   0.29841   0.00000  Uiso   1.00
H544   H     0.78387   0.49582   0.10962   0.00000  Uiso   1.00
H545   H     0.88224   0.50881   0.38721   0.00000  Uiso   1.00
H546   H     0.90674   0.46653   0.12163   0.00000  Uiso   1.00
N547   N     0.78403   0.50001   0.24999   0.00000  Uiso   1.00
N548   N     0.88264   0.49999   0.25001   0.00000  Uiso   1.00
O549   O     0.70625   0.43989   0.25000   0.00000  Uiso   1.00
O550   O     0.70448   0.48676   0.38961   0.00000  Uiso   1.00
O551   O     0.85481   0.53409   0.09000   0.00000  Uiso   1.00
O552   O     0.82034   0.55278   0.41144   0.00000  Uiso   1.00
O553   O     0.95583   0.37678   0.19461   0.00000  Uiso   1.00
O554   O     0.70888   0.62254   0.30738   0.00000  Uiso   1.00
O555   O     0.86546   0.44503   0.30306   0.00000  Uiso   1.00
O556   O     0.80152   0.55675   0.19897   0.00000  Uiso   1.00
O557   O     0.96042   0.56011   0.25000   0.00000  Uiso   1.00
O558   O     0.96039   0.43988   0.25001   0.00000  Uiso   1.00
O559   O     0.70628   0.56012   0.25000   0.00000  Uiso   1.00
O560   O     0.68519   0.50001   0.31492   0.00000  Uiso   1.00
O561   O     0.98148   0.49999   0.18509   0.00000  Uiso   1.00
O562   O     0.93933   0.50000   0.31492   0.00000  Uiso   1.00
O563   O     0.72733   0.50000   0.18508   0.00000  Uiso   1.00
O564   O     0.95987   0.51216   0.11115   0.00000  Uiso   1.00
C565   C     0.33309   0.75414   0.24970   0.00000  Uiso   1.00
C566   C     0.02213   0.68894   0.27737   0.00000  Uiso   1.00
C567   C     0.00044   0.95723   0.25110   0.00000  Uiso   1.00
C568   C     0.33243   0.70944   0.24986   0.00000  Uiso   1.00
C569   C     0.18303   0.80516   0.27557   0.00000  Uiso   1.00
C570   C     0.15034   0.86170   0.22489   0.00000  Uiso   1.00
C571   C     0.13312   0.80570   0.27564   0.00000  Uiso   1.00
C572   C     0.20026   0.86078   0.22418   0.00000  Uiso   1.00
C573   C     0.30559   0.83289   0.33594   0.00000  Uiso   1.00
C574   C     0.02767   0.83398   0.16395   0.00000  Uiso   1.00
C575   C     0.28968   0.83394   0.38491   0.00000  Uiso   1.00
C576   C     0.00013   0.91253   0.25063   0.00000  Uiso   1.00
C577   C     0.04313   0.84043   0.11511   0.00000  Uiso   1.00
C578   C     0.30619   0.83109   0.45608   0.00000  Uiso   1.00
C579   C     0.02666   0.86586   0.04807   0.00000  Uiso   1.00
C580   C     0.32252   0.82759   0.40998   0.00000  Uiso   1.00
C581   C     0.00950   0.85008   0.09166   0.00000  Uiso   1.00
C582   C     0.24061   0.84192   0.40685   0.00000  Uiso   1.00
C583   C     0.09281   0.84120   0.09233   0.00000  Uiso   1.00
C584   C     0.22426   0.84793   0.45316   0.00000  Uiso   1.00
C585   C     0.11027   0.85506   0.04769   0.00000  Uiso   1.00
C586   C     0.25789   0.84095   0.47750   0.00000  Uiso   1.00
C587   C     0.19667   0.85482   0.04644   0.00000  Uiso   1.00
C588   C     0.07630   0.86631   0.02531   0.00000  Uiso   1.00
C589   C     0.17531   0.85859   0.47662   0.00000  Uiso   1.00
C590   C     0.16048   0.85585   0.02413   0.00000  Uiso   1.00
C591   C     0.28034   0.80298   0.11093   0.00000  Uiso   1.00
C592   C     0.04593   0.77751   0.39367   0.00000  Uiso   1.00
C593   C     0.19537   0.91073   0.08947   0.00000  Uiso   1.00
C594   C     0.16986   0.92772   0.40872   0.00000  Uiso   1.00
C595   C     0.24871   0.68989   0.18647   0.00000  Uiso   1.00
C596   C     0.07493   0.97839   0.32475   0.00000  Uiso   1.00
C597   C     0.18246   0.73737   0.29988   0.00000  Uiso   1.00
C598   C     0.14082   0.87341   0.45555   0.00000  Uiso   1.00
C599   C     0.14248   0.93061   0.21247   0.00000  Uiso   1.00
C600   C     0.24369   0.84508   0.02322   0.00000  Uiso   1.00
C601   C     0.09206   0.87709   0.48017   0.00000  Uiso   1.00
C602   C     0.30885   0.68771   0.22327   0.00000  Uiso   1.00
C603   C     0.02320   0.97886   0.27850   0.00000  Uiso   1.00
C604   C     0.31065   0.97779   0.22372   0.00000  Uiso   1.00
Cu605  Cu    0.04689   0.83334   0.25000   0.00000  Uiso   1.00
Cu606  Cu    0.28645   0.83333   0.25000   0.00000  Uiso   1.00
H607   H     0.26952   0.84188   0.04131   0.00000  Uiso   1.00
H608   H     0.29403   0.78435   0.13447   0.00000  Uiso   1.00
H609   H     0.29397   0.78936   0.07716   0.00000  Uiso   1.00
H610   H     0.08523   0.77186   0.37873   0.00000  Uiso   1.00
H611   H     0.02550   0.75870   0.37525   0.00000  Uiso   1.00
H612   H     0.03644   0.76715   0.42914   0.00000  Uiso   1.00
H613   H     0.16585   0.92684   0.07993   0.00000  Uiso   1.00
H614   H     0.23165   0.92055   0.06699   0.00000  Uiso   1.00
H615   H     0.19450   0.92065   0.12331   0.00000  Uiso   1.00
H616   H     0.20262   0.93135   0.42059   0.00000  Uiso   1.00
H617   H     0.14044   0.94825   0.42765   0.00000  Uiso   1.00
H618   H     0.06620   0.88738   0.46329   0.00000  Uiso   1.00
H619   H     0.18026   0.93789   0.37327   0.00000  Uiso   1.00
H620   H     0.22713   0.71332   0.17489   0.00000  Uiso   1.00
H621   H     0.22417   0.67485   0.21704   0.00000  Uiso   1.00
H622   H     0.26100   0.66708   0.15938   0.00000  Uiso   1.00
H623   H     0.10312   0.99533   0.29809   0.00000  Uiso   1.00
H624   H     0.09421   0.95620   0.34049   0.00000  Uiso   1.00
H625   H     0.05493   0.99963   0.35122   0.00000  Uiso   1.00
H626   H     0.18218   0.72943   0.26547   0.00000  Uiso   1.00
H627   H     0.14581   0.73198   0.32369   0.00000  Uiso   1.00
H628   H     0.20768   0.71588   0.30928   0.00000  Uiso   1.00
H629   H     0.33172   0.82632   0.47510   0.00000  Uiso   1.00
H630   H     0.18130   0.94036   0.19935   0.00000  Uiso   1.00
H631   H     0.13016   0.93365   0.24935   0.00000  Uiso   1.00
H632   H     0.12092   0.95225   0.19851   0.00000  Uiso   1.00
H633   H     0.10686   0.78425   0.29648   0.00000  Uiso   1.00
H634   H     0.22638   0.88218   0.20298   0.00000  Uiso   1.00
H635   H     0.00145   0.87735   0.03137   0.00000  Uiso   1.00
H636   H     0.29516   0.95973   0.20211   0.00000  Uiso   1.00
H637   H     0.03796   0.70740   0.29841   0.00000  Uiso   1.00
H638   H     0.11720   0.82915   0.10962   0.00000  Uiso   1.00
H639   H     0.21557   0.84215   0.38721   0.00000  Uiso   1.00
H640   H     0.24008   0.79987   0.12163   0.00000  Uiso   1.00
N641   N     0.11736   0.83334   0.24999   0.00000  Uiso   1.00
N642   N     0.21597   0.83332   0.25001   0.00000  Uiso   1.00
O643   O     0.03958   0.77322   0.25000   0.00000  Uiso   1.00
O644   O     0.03781   0.82009   0.38961   0.00000  Uiso   1.00
O645   O     0.18814   0.86742   0.09000   0.00000  Uiso   1.00
O646   O     0.15367   0.88611   0.41144   0.00000  Uiso   1.00
O647   O     0.28916   0.71011   0.19461   0.00000  Uiso   1.00
O648   O     0.04222   0.95587   0.30738   0.00000  Uiso   1.00
O649   O     0.19879   0.77836   0.30306   0.00000  Uiso   1.00
O650   O     0.13485   0.89008   0.19897   0.00000  Uiso   1.00
O651   O     0.29375   0.89345   0.25000   0.00000  Uiso   1.00
O652   O     0.29372   0.77321   0.25001   0.00000  Uiso   1.00
O653   O     0.03961   0.89346   0.25000   0.00000  Uiso   1.00
O654   O     0.01852   0.83334   0.31492   0.00000  Uiso   1.00
O655   O     0.31481   0.83332   0.18509   0.00000  Uiso   1.00
O656   O     0.27267   0.83333   0.31492   0.00000  Uiso   1.00
O657   O     0.06067   0.83333   0.18508   0.00000  Uiso   1.00
O658   O     0.29321   0.84549   0.11115   0.00000  Uiso   1.00
C659   C     0.66642   0.75414   0.24970   0.00000  Uiso   1.00
C660   C     0.35546   0.68894   0.27737   0.00000  Uiso   1.00
C661   C     0.33377   0.95723   0.25110   0.00000  Uiso   1.00
C662   C     0.66577   0.70944   0.24986   0.00000  Uiso   1.00
C663   C     0.51637   0.80516   0.27557   0.00000  Uiso   1.00
C664   C     0.48368   0.86170   0.22489   0.00000  Uiso   1.00
C665   C     0.46645   0.80570   0.27564   0.00000  Uiso   1.00
C666   C     0.53359   0.86078   0.22418   0.00000  Uiso   1.00
C667   C     0.63892   0.83289   0.33594   0.00000  Uiso   1.00
C668   C     0.36101   0.83398   0.16395   0.00000  Uiso   1.00
C669   C     0.62302   0.83394   0.38491   0.00000  Uiso   1.00
C670   C     0.33346   0.91253   0.25063   0.00000  Uiso   1.00
C671   C     0.37646   0.84043   0.11511   0.00000  Uiso   1.00
C672   C     0.63953   0.83109   0.45608   0.00000  Uiso   1.00
C673   C     0.35999   0.86586   0.04807   0.00000  Uiso   1.00
C674   C     0.65585   0.82759   0.40998   0.00000  Uiso   1.00
C675   C     0.34283   0.85008   0.09166   0.00000  Uiso   1.00
C676   C     0.57394   0.84192   0.40685   0.00000  Uiso   1.00
C677   C     0.42614   0.84120   0.09233   0.00000  Uiso   1.00
C678   C     0.55759   0.84793   0.45316   0.00000  Uiso   1.00
C679   C     0.44360   0.85506   0.04769   0.00000  Uiso   1.00
C680   C     0.59122   0.84095   0.47750   0.00000  Uiso   1.00
C681   C     0.53000   0.85482   0.04644   0.00000  Uiso   1.00
C682   C     0.40964   0.86631   0.02531   0.00000  Uiso   1.00
C683   C     0.50864   0.85859   0.47662   0.00000  Uiso   1.00
C684   C     0.49381   0.85585   0.02413   0.00000  Uiso   1.00
C685   C     0.61367   0.80298   0.11093   0.00000  Uiso   1.00
C686   C     0.37926   0.77751   0.39367   0.00000  Uiso   1.00
C687   C     0.52870   0.91073   0.08947   0.00000  Uiso   1.00
C688   C     0.50319   0.92772   0.40872   0.00000  Uiso   1.00
C689   C     0.58205   0.68989   0.18647   0.00000  Uiso   1.00
C690   C     0.40826   0.97839   0.32475   0.00000  Uiso   1.00
C691   C     0.51579   0.73737   0.29988   0.00000  Uiso   1.00
C692   C     0.47415   0.87341   0.45555   0.00000  Uiso   1.00
C693   C     0.47581   0.93061   0.21247   0.00000  Uiso   1.00
C694   C     0.57702   0.84508   0.02322   0.00000  Uiso   1.00
C695   C     0.42540   0.87709   0.48017   0.00000  Uiso   1.00
C696   C     0.64218   0.68771   0.22327   0.00000  Uiso   1.00
C697   C     0.35653   0.97886   0.27850   0.00000  Uiso   1.00
C698   C     0.64398   0.97779   0.22372   0.00000  Uiso   1.00
Cu699  Cu    0.38022   0.83334   0.25000   0.00000  Uiso   1.00
Cu700  Cu    0.61978   0.83333   0.25000   0.00000  Uiso   1.00
H701   H     0.60285   0.84188   0.04131   0.00000  Uiso   1.00
H702   H     0.62737   0.78435   0.13447   0.00000  Uiso   1.00
H703   H     0.62731   0.78936   0.07716   0.00000  Uiso   1.00
H704   H     0.41856   0.77186   0.37873   0.00000  Uiso   1.00
H705   H     0.35883   0.75870   0.37525   0.00000  Uiso   1.00
H706   H     0.36977   0.76715   0.42914   0.00000  Uiso   1.00
H707   H     0.49918   0.92684   0.07993   0.00000  Uiso   1.00
H708   H     0.56498   0.92055   0.06699   0.00000  Uiso   1.00
H709   H     0.52784   0.92065   0.12331   0.00000  Uiso   1.00
H710   H     0.53595   0.93135   0.42059   0.00000  Uiso   1.00
H711   H     0.47377   0.94825   0.42765   0.00000  Uiso   1.00
H712   H     0.39953   0.88738   0.46329   0.00000  Uiso   1.00
H713   H     0.51359   0.93789   0.37327   0.00000  Uiso   1.00
H714   H     0.56047   0.71332   0.17489   0.00000  Uiso   1.00
H715   H     0.55751   0.67485   0.21704   0.00000  Uiso   1.00
H716   H     0.59433   0.66708   0.15938   0.00000  Uiso   1.00
H717   H     0.43646   0.99533   0.29809   0.00000  Uiso   1.00
H718   H     0.42755   0.95620   0.34049   0.00000  Uiso   1.00
H719   H     0.38826   0.99963   0.35122   0.00000  Uiso   1.00
H720   H     0.51551   0.72943   0.26547   0.00000  Uiso   1.00
H721   H     0.47914   0.73198   0.32369   0.00000  Uiso   1.00
H722   H     0.54102   0.71588   0.30928   0.00000  Uiso   1.00
H723   H     0.66506   0.82632   0.47510   0.00000  Uiso   1.00
H724   H     0.51463   0.94036   0.19935   0.00000  Uiso   1.00
H725   H     0.46350   0.93365   0.24935   0.00000  Uiso   1.00
H726   H     0.45425   0.95225   0.19851   0.00000  Uiso   1.00
H727   H     0.44019   0.78425   0.29648   0.00000  Uiso   1.00
H728   H     0.55971   0.88218   0.20298   0.00000  Uiso   1.00
H729   H     0.33479   0.87735   0.03137   0.00000  Uiso   1.00
H730   H     0.62849   0.95973   0.20211   0.00000  Uiso   1.00
H731   H     0.37129   0.70740   0.29841   0.00000  Uiso   1.00
H732   H     0.45053   0.82915   0.10962   0.00000  Uiso   1.00
H733   H     0.54891   0.84215   0.38721   0.00000  Uiso   1.00
H734   H     0.57341   0.79987   0.12163   0.00000  Uiso   1.00
N735   N     0.45069   0.83334   0.24999   0.00000  Uiso   1.00
N736   N     0.54931   0.83332   0.25001   0.00000  Uiso   1.00
O737   O     0.37291   0.77322   0.25000   0.00000  Uiso   1.00
O738   O     0.37115   0.82009   0.38961   0.00000  Uiso   1.00
O739   O     0.52147   0.86742   0.09000   0.00000  Uiso   1.00
O740   O     0.48701   0.88611   0.41144   0.00000  Uiso   1.00
O741   O     0.62250   0.71011   0.19461   0.00000  Uiso   1.00
O742   O     0.37555   0.95587   0.30738   0.00000  Uiso   1.00
O743   O     0.53213   0.77836   0.30306   0.00000  Uiso   1.00
O744   O     0.46819   0.89008   0.19897   0.00000  Uiso   1.00
O745   O     0.62709   0.89345   0.25000   0.00000  Uiso   1.00
O746   O     0.62706   0.77321   0.25001   0.00000  Uiso   1.00
O747   O     0.37294   0.89346   0.25000   0.00000  Uiso   1.00
O748   O     0.35186   0.83334   0.31492   0.00000  Uiso   1.00
O749   O     0.64814   0.83332   0.18509   0.00000  Uiso   1.00
O750   O     0.60600   0.83333   0.31492   0.00000  Uiso   1.00
O751   O     0.39400   0.83333   0.18508   0.00000  Uiso   1.00
O752   O     0.62654   0.84549   0.11115   0.00000  Uiso   1.00
C753   C     0.99975   0.75414   0.24970   0.00000  Uiso   1.00
C754   C     0.68879   0.68894   0.27737   0.00000  Uiso   1.00
C755   C     0.66710   0.95723   0.25110   0.00000  Uiso   1.00
C756   C     0.99910   0.70944   0.24986   0.00000  Uiso   1.00
C757   C     0.84970   0.80516   0.27557   0.00000  Uiso   1.00
C758   C     0.81701   0.86170   0.22489   0.00000  Uiso   1.00
C759   C     0.79978   0.80570   0.27564   0.00000  Uiso   1.00
C760   C     0.86693   0.86078   0.22418   0.00000  Uiso   1.00
C761   C     0.97225   0.83289   0.33594   0.00000  Uiso   1.00
C762   C     0.69434   0.83398   0.16395   0.00000  Uiso   1.00
C763   C     0.95635   0.83394   0.38491   0.00000  Uiso   1.00
C764   C     0.66679   0.91253   0.25063   0.00000  Uiso   1.00
C765   C     0.70980   0.84043   0.11511   0.00000  Uiso   1.00
C766   C     0.97286   0.83109   0.45608   0.00000  Uiso   1.00
C767   C     0.69333   0.86586   0.04807   0.00000  Uiso   1.00
C768   C     0.98918   0.82759   0.40998   0.00000  Uiso   1.00
C769   C     0.67617   0.85008   0.09166   0.00000  Uiso   1.00
C770   C     0.90727   0.84192   0.40685   0.00000  Uiso   1.00
C771   C     0.75948   0.84120   0.09233   0.00000  Uiso   1.00
C772   C     0.89093   0.84793   0.45316   0.00000  Uiso   1.00
C773   C     0.77694   0.85506   0.04769   0.00000  Uiso   1.00
C774   C     0.92455   0.84095   0.47750   0.00000  Uiso   1.00
C775   C     0.86334   0.85482   0.04644   0.00000  Uiso   1.00
C776   C     0.74297   0.86631   0.02531   0.00000  Uiso   1.00
C777   C     0.84198   0.85859   0.47662   0.00000  Uiso   1.00
C778   C     0.82714   0.85585   0.02413   0.00000  Uiso   1.00
C779   C     0.94701   0.80298   0.11093   0.00000  Uiso   1.00
C780   C     0.71259   0.77751   0.39367   0.00000  Uiso   1.00
C781   C     0.86203   0.91073   0.08947   0.00000  Uiso   1.00
C782   C     0.83653   0.92772   0.40872   0.00000  Uiso   1.00
C783   C     0.91538   0.68989   0.18647   0.00000  Uiso   1.00
C784   C     0.74159   0.97839   0.32475   0.00000  Uiso   1.00
C785   C     0.84912   0.73737   0.29988   0.00000  Uiso   1.00
C786   C     0.80749   0.87341   0.45555   0.00000  Uiso   1.00
C787   C     0.80914   0.93061   0.21247   0.00000  Uiso   1.00
C788   C     0.91036   0.84508   0.02322   0.00000  Uiso   1.00
C789   C     0.75873   0.87709   0.48017   0.00000  Uiso   1.00
C790   C     0.97552   0.68771   0.22327   0.00000  Uiso   1.00
C791   C     0.68987   0.97886   0.27850   0.00000  Uiso   1.00
C792   C     0.97732   0.97779   0.22372   0.00000  Uiso   1.00
Cu793  Cu    0.71355   0.83334   0.25000   0.00000  Uiso   1.00
Cu794  Cu    0.95311   0.83333   0.25000   0.00000  Uiso   1.00
H795   H     0.93618   0.84188   0.04131   0.00000  Uiso   1.00
H796   H     0.96070   0.78435   0.13447   0.00000  Uiso   1.00
H797   H     0.96064   0.78936   0.07716   0.00000  Uiso   1.00
H798   H     0.75189   0.77186   0.37873   0.00000  Uiso   1.00
H799   H     0.69216   0.75870   0.37525   0.00000  Uiso   1.00
H800   H     0.70311   0.76715   0.42914   0.00000  Uiso   1.00
H801   H     0.83252   0.92684   0.07993   0.00000  Uiso   1.00
H802   H     0.89831   0.92055   0.06699   0.00000  Uiso   1.00
H803   H     0.86117   0.92065   0.12331   0.00000  Uiso   1.00
H804   H     0.86928   0.93135   0.42059   0.00000  Uiso   1.00
H805   H     0.80710   0.94825   0.42765   0.00000  Uiso   1.00
H806   H     0.73287   0.88738   0.46329   0.00000  Uiso   1.00
H807   H     0.84692   0.93789   0.37327   0.00000  Uiso   1.00
H808   H     0.89380   0.71332   0.17489   0.00000  Uiso   1.00
H809   H     0.89084   0.67485   0.21704   0.00000  Uiso   1.00
H810   H     0.92767   0.66708   0.15938   0.00000  Uiso   1.00
H811   H     0.76979   0.99533   0.29809   0.00000  Uiso   1.00
H812   H     0.76088   0.95620   0.34049   0.00000  Uiso   1.00
H813   H     0.72160   0.99963   0.35122   0.00000  Uiso   1.00
H814   H     0.84884   0.72943   0.26547   0.00000  Uiso   1.00
H815   H     0.81247   0.73198   0.32369   0.00000  Uiso   1.00
H816   H     0.87435   0.71588   0.30928   0.00000  Uiso   1.00
H817   H     0.99839   0.82632   0.47510   0.00000  Uiso   1.00
H818   H     0.84796   0.94036   0.19935   0.00000  Uiso   1.00
H819   H     0.79683   0.93365   0.24935   0.00000  Uiso   1.00
H820   H     0.78758   0.95225   0.19851   0.00000  Uiso   1.00
H821   H     0.77353   0.78425   0.29648   0.00000  Uiso   1.00
H822   H     0.89304   0.88218   0.20298   0.00000  Uiso   1.00
H823   H     0.66812   0.87735   0.03137   0.00000  Uiso   1.00
H824   H     0.96182   0.95973   0.20211   0.00000  Uiso   1.00
H825   H     0.70463   0.70740   0.29841   0.00000  Uiso   1.00
H826   H     0.78387   0.82915   0.10962   0.00000  Uiso   1.00
H827   H     0.88224   0.84215   0.38721   0.00000  Uiso   1.00
H828   H     0.90674   0.79987   0.12163   0.00000  Uiso   1.00
N829   N     0.78403   0.83334   0.24999   0.00000  Uiso   1.00
N830   N     0.88264   0.83332   0.25001   0.00000  Uiso   1.00
O831   O     0.70625   0.77322   0.25000   0.00000  Uiso   1.00
O832   O     0.70448   0.82009   0.38961   0.00000  Uiso   1.00
O833   O     0.85481   0.86742   0.09000   0.00000  Uiso   1.00
O834   O     0.82034   0.88611   0.41144   0.00000  Uiso   1.00
O835   O     0.95583   0.71011   0.19461   0.00000  Uiso   1.00
O836   O     0.70888   0.95587   0.30738   0.00000  Uiso   1.00
O837   O     0.86546   0.77836   0.30306   0.00000  Uiso   1.00
O838   O     0.80152   0.89008   0.19897   0.00000  Uiso   1.00
O839   O     0.96042   0.89345   0.25000   0.00000  Uiso   1.00
O840   O     0.96039   0.77321   0.25001   0.00000  Uiso   1.00
O841   O     0.70628   0.89346   0.25000   0.00000  Uiso   1.00
O842   O     0.68519   0.83334   0.31492   0.00000  Uiso   1.00
O843   O     0.98148   0.83332   0.18509   0.00000  Uiso   1.00
O844   O     0.93933   0.83333   0.31492   0.00000  Uiso   1.00
O845   O     0.72733   0.83333   0.18508   0.00000  Uiso   1.00
O846   O     0.95987   0.84549   0.11115   0.00000  Uiso   1.00
C847   C     0.33309   0.08747   0.74970   0.00000  Uiso   1.00
C848   C     0.02213   0.02227   0.77737   0.00000  Uiso   1.00
C849   C     0.00044   0.29056   0.75110   0.00000  Uiso   1.00
C850   C     0.33243   0.04278   0.74986   0.00000  Uiso   1.00
C851   C     0.18303   0.13850   0.77557   0.00000  Uiso   1.00
C852   C     0.15034   0.19503   0.72489   0.00000  Uiso   1.00
C853   C     0.13312   0.13903   0.77564   0.00000  Uiso   1.00
C854   C     0.20026   0.19411   0.72418   0.00000  Uiso   1.00
C855   C     0.30559   0.16622   0.83594   0.00000  Uiso   1.00
C856   C     0.02767   0.16731   0.66395   0.00000  Uiso   1.00
C857   C     0.28968   0.16727   0.88491   0.00000  Uiso   1.00
C858   C     0.00013   0.24586   0.75063   0.00000  Uiso   1.00
C859   C     0.04313   0.17376   0.61511   0.00000  Uiso   1.00
C860   C     0.30619   0.16442   0.95608   0.00000  Uiso   1.00
C861   C     0.02666   0.19920   0.54807   0.00000  Uiso   1.00
C862   C     0.32252   0.16092   0.90998   0.00000  Uiso   1.00
C863   C     0.00950   0.18341   0.59166   0.00000  Uiso   1.00
C864   C     0.24061   0.17525   0.90685   0.00000  Uiso   1.00
C865   C     0.09281   0.17454   0.59233   0.00000  Uiso   1.00
C866   C     0.22426   0.18126   0.95316   0.00000  Uiso   1.00
C867   C     0.11027   0.18839   0.54769   0.00000  Uiso   1.00
C868   C     0.25789   0.17428   0.97750   0.00000  Uiso   1.00
C869   C     0.19667   0.18816   0.54644   0.00000  Uiso   1.00
C870   C     0.07630   0.19964   0.52531   0.00000  Uiso   1.00
C871   C     0.17531   0.19192   0.97662   0.00000  Uiso   1.00
C872   C     0.16048   0.18919   0.52413   0.00000  Uiso   1.00
C873   C     0.28034   0.13631   0.61093   0.00000  Uiso   1.00
C874   C     0.04593   0.11085   0.89367   0.00000  Uiso   1.00
C875   C     0.19537   0.24406   0.58947   0.00000  Uiso   1.00
C876   C     0.16986   0.26106   0.90872   0.00000  Uiso   1.00
C877   C     0.24871   0.02322   0.68647   0.00000  Uiso   1.00
C878   C     0.07493   0.31172   0.82475   0.00000  Uiso   1.00
C879   C     0.18246   0.07070   0.79988   0.00000  Uiso   1.00
C880   C     0.14082   0.20675   0.95555   0.00000  Uiso   1.00
C881   C     0.14248   0.26394   0.71247   0.00000  Uiso   1.00
C882   C     0.24369   0.17842   0.52322   0.00000  Uiso   1.00
C883   C     0.09206   0.21042   0.98017   0.00000  Uiso   1.00
C884   C     0.30885   0.02104   0.72327   0.00000  Uiso   1.00
C885   C     0.02320   0.31219   0.77850   0.00000  Uiso   1.00
C886   C     0.31065   0.31112   0.72372   0.00000  Uiso   1.00
Cu887  Cu    0.04689   0.16667   0.75000   0.00000  Uiso   1.00
Cu888  Cu    0.28645   0.16666   0.75000   0.00000  Uiso   1.00
H889   H     0.26952   0.17521   0.54131   0.00000  Uiso   1.00
H890   H     0.29403   0.11769   0.63447   0.00000  Uiso   1.00
H891   H     0.29397   0.12269   0.57716   0.00000  Uiso   1.00
H892   H     0.08523   0.10520   0.87873   0.00000  Uiso   1.00
H893   H     0.02550   0.09203   0.87525   0.00000  Uiso   1.00
H894   H     0.03644   0.10049   0.92914   0.00000  Uiso   1.00
H895   H     0.16585   0.26017   0.57993   0.00000  Uiso   1.00
H896   H     0.23165   0.25388   0.56699   0.00000  Uiso   1.00
H897   H     0.19450   0.25398   0.62331   0.00000  Uiso   1.00
H898   H     0.20262   0.26468   0.92059   0.00000  Uiso   1.00
H899   H     0.14044   0.28159   0.92765   0.00000  Uiso   1.00
H900   H     0.06620   0.22071   0.96329   0.00000  Uiso   1.00
H901   H     0.18026   0.27123   0.87327   0.00000  Uiso   1.00
H902   H     0.22713   0.04665   0.67489   0.00000  Uiso   1.00
H903   H     0.22417   0.00819   0.71704   0.00000  Uiso   1.00
H904   H     0.26100   0.00042   0.65938   0.00000  Uiso   1.00
H905   H     0.10312   0.32867   0.79809   0.00000  Uiso   1.00
H906   H     0.09421   0.28953   0.84049   0.00000  Uiso   1.00
H907   H     0.05493   0.33297   0.85122   0.00000  Uiso   1.00
H908   H     0.18218   0.06276   0.76547   0.00000  Uiso   1.00
H909   H     0.14581   0.06531   0.82369   0.00000  Uiso   1.00
H910   H     0.20768   0.04921   0.80928   0.00000  Uiso   1.00
H911   H     0.33172   0.15966   0.97510   0.00000  Uiso   1.00
H912   H     0.18130   0.27370   0.69935   0.00000  Uiso   1.00
H913   H     0.13016   0.26698   0.74935   0.00000  Uiso   1.00
H914   H     0.12092   0.28559   0.69851   0.00000  Uiso   1.00
H915   H     0.10686   0.11758   0.79648   0.00000  Uiso   1.00
H916   H     0.22638   0.21551   0.70298   0.00000  Uiso   1.00
H917   H     0.00145   0.21068   0.53137   0.00000  Uiso   1.00
H918   H     0.29516   0.29306   0.70211   0.00000  Uiso   1.00
H919   H     0.03796   0.04073   0.79841   0.00000  Uiso   1.00
H920   H     0.11720   0.16248   0.60962   0.00000  Uiso   1.00
H921   H     0.21557   0.17548   0.88721   0.00000  Uiso   1.00
H922   H     0.24008   0.13320   0.62163   0.00000  Uiso   1.00
N923   N     0.11736   0.16668   0.74999   0.00000  Uiso   1.00
N924   N     0.21597   0.16666   0.75001   0.00000  Uiso   1.00
O925   O     0.03958   0.10655   0.75000   0.00000  Uiso   1.00
O926   O     0.03781   0.15342   0.88961   0.00000  Uiso   1.00
O927   O     0.18814   0.20075   0.59000   0.00000  Uiso   1.00
O928   O     0.15367   0.21944   0.91144   0.00000  Uiso   1.00
O929   O     0.28916   0.04345   0.69461   0.00000  Uiso   1.00
O930   O     0.04222   0.28920   0.80738   0.00000  Uiso   1.00
O931   O     0.19879   0.11169   0.80306   0.00000  Uiso   1.00
O932   O     0.13485   0.22342   0.69897   0.00000  Uiso   1.00
O933   O     0.29375   0.22678   0.75000   0.00000  Uiso   1.00
O934   O     0.29372   0.10654   0.75001   0.00000  Uiso   1.00
O935   O     0.03961   0.22679   0.75000   0.00000  Uiso   1.00
O936   O     0.01852   0.16668   0.81492   0.00000  Uiso   1.00
O937   O     0.31481   0.16666   0.68509   0.00000  Uiso   1.00
O938   O     0.27267   0.16667   0.81492   0.00000  Uiso   1.00
O939   O     0.06067   0.16667   0.68508   0.00000  Uiso   1.00
O940   O     0.29321   0.17882   0.61115   0.00000  Uiso   1.00
C941   C     0.66642   0.08747   0.74970   0.00000  Uiso   1.00
C942   C     0.35546   0.02227   0.77737   0.00000  Uiso   1.00
C943   C     0.33377   0.29056   0.75110   0.00000  Uiso   1.00
C944   C     0.66577   0.04278   0.74986   0.00000  Uiso   1.00
C945   C     0.51637   0.13850   0.77557   0.00000  Uiso   1.00
C946   C     0.48368   0.19503   0.72489   0.00000  Uiso   1.00
C947   C     0.46645   0.13903   0.77564   0.00000  Uiso   1.00
C948   C     0.53359   0.19411   0.72418   0.00000  Uiso   1.00
C949   C     0.63892   0.16622   0.83594   0.00000  Uiso   1.00
C950   C     0.36101   0.16731   0.66395   0.00000  Uiso   1.00
C951   C     0.62302   0.16727   0.88491   0.00000  Uiso   1.00
C952   C     0.33346   0.24586   0.75063   0.00000  Uiso   1.00
C953   C     0.37646   0.17376   0.61511   0.00000  Uiso   1.00
C954   C     0.63953   0.16442   0.95608   0.00000  Uiso   1.00
C955   C     0.35999   0.19920   0.54807   0.00000  Uiso   1.00
C956   C     0.65585   0.16092   0.90998   0.00000  Uiso   1.00
C957   C     0.34283   0.18341   0.59166   0.00000  Uiso   1.00
C958   C     0.57394   0.17525   0.90685   0.00000  Uiso   1.00
C959   C     0.42614   0.17454   0.59233   0.00000  Uiso   1.00
C960   C     0.55759   0.18126   0.95316   0.00000  Uiso   1.00
C961   C     0.44360   0.18839   0.54769   0.00000  Uiso   1.00
C962   C     0.59122   0.17428   0.97750   0.00000  Uiso   1.00
C963   C     0.53000   0.18816   0.54644   0.00000  Uiso   1.00
C964   C     0.40964   0.19964   0.52531   0.00000  Uiso   1.00
C965   C     0.50864   0.19192   0.97662   0.00000  Uiso   1.00
C966   C     0.49381   0.18919   0.52413   0.00000  Uiso   1.00
C967   C     0.61367   0.13631   0.61093   0.00000  Uiso   1.00
C968   C     0.37926   0.11085   0.89367   0.00000  Uiso   1.00
C969   C     0.52870   0.24406   0.58947   0.00000  Uiso   1.00
C970   C     0.50319   0.26106   0.90872   0.00000  Uiso   1.00
C971   C     0.58205   0.02322   0.68647   0.00000  Uiso   1.00
C972   C     0.40826   0.31172   0.82475   0.00000  Uiso   1.00
C973   C     0.51579   0.07070   0.79988   0.00000  Uiso   1.00
C974   C     0.47415   0.20675   0.95555   0.00000  Uiso   1.00
C975   C     0.47581   0.26394   0.71247   0.00000  Uiso   1.00
C976   C     0.57702   0.17842   0.52322   0.00000  Uiso   1.00
C977   C     0.42540   0.21042   0.98017   0.00000  Uiso   1.00
C978   C     0.64218   0.02104   0.72327   0.00000  Uiso   1.00
C979   C     0.35653   0.31219   0.77850   0.00000  Uiso   1.00
C980   C     0.64398   0.31112   0.72372   0.00000  Uiso   1.00
Cu981  Cu    0.38022   0.16667   0.75000   0.00000  Uiso   1.00
Cu982  Cu    0.61978   0.16666   0.75000   0.00000  Uiso   1.00
H983   H     0.60285   0.17521   0.54131   0.00000  Uiso   1.00
H984   H     0.62737   0.11769   0.63447   0.00000  Uiso   1.00
H985   H     0.62731   0.12269   0.57716   0.00000  Uiso   1.00
H986   H     0.41856   0.10520   0.87873   0.00000  Uiso   1.00
H987   H     0.35883   0.09203   0.87525   0.00000  Uiso   1.00
H988   H     0.36977   0.10049   0.92914   0.00000  Uiso   1.00
H989   H     0.49918   0.26017   0.57993   0.00000  Uiso   1.00
H990   H     0.56498   0.25388   0.56699   0.00000  Uiso   1.00
H991   H     0.52784   0.25398   0.62331   0.00000  Uiso   1.00
H992   H     0.53595   0.26468   0.92059   0.00000  Uiso   1.00
H993   H     0.47377   0.28159   0.92765   0.00000  Uiso   1.00
H994   H     0.39953   0.22071   0.96329   0.00000  Uiso   1.00
H995   H     0.51359   0.27123   0.87327   0.00000  Uiso   1.00
H996   H     0.56047   0.04665   0.67489   0.00000  Uiso   1.00
H997   H     0.55751   0.00819   0.71704   0.00000  Uiso   1.00
H998   H     0.59433   0.00042   0.65938   0.00000  Uiso   1.00
H999   H     0.43646   0.32867   0.79809   0.00000  Uiso   1.00
H1000  H     0.42755   0.28953   0.84049   0.00000  Uiso   1.00
H1001  H     0.38826   0.33297   0.85122   0.00000  Uiso   1.00
H1002  H     0.51551   0.06276   0.76547   0.00000  Uiso   1.00
H1003  H     0.47914   0.06531   0.82369   0.00000  Uiso   1.00
H1004  H     0.54102   0.04921   0.80928   0.00000  Uiso   1.00
H1005  H     0.66506   0.15966   0.97510   0.00000  Uiso   1.00
H1006  H     0.51463   0.27370   0.69935   0.00000  Uiso   1.00
H1007  H     0.46350   0.26698   0.74935   0.00000  Uiso   1.00
H1008  H     0.45425   0.28559   0.69851   0.00000  Uiso   1.00
H1009  H     0.44019   0.11758   0.79648   0.00000  Uiso   1.00
H1010  H     0.55971   0.21551   0.70298   0.00000  Uiso   1.00
H1011  H     0.33479   0.21068   0.53137   0.00000  Uiso   1.00
H1012  H     0.62849   0.29306   0.70211   0.00000  Uiso   1.00
H1013  H     0.37129   0.04073   0.79841   0.00000  Uiso   1.00
H1014  H     0.45053   0.16248   0.60962   0.00000  Uiso   1.00
H1015  H     0.54891   0.17548   0.88721   0.00000  Uiso   1.00
H1016  H     0.57341   0.13320   0.62163   0.00000  Uiso   1.00
N1017  N     0.45069   0.16668   0.74999   0.00000  Uiso   1.00
N1018  N     0.54931   0.16666   0.75001   0.00000  Uiso   1.00
O1019  O     0.37291   0.10655   0.75000   0.00000  Uiso   1.00
O1020  O     0.37115   0.15342   0.88961   0.00000  Uiso   1.00
O1021  O     0.52147   0.20075   0.59000   0.00000  Uiso   1.00
O1022  O     0.48701   0.21944   0.91144   0.00000  Uiso   1.00
O1023  O     0.62250   0.04345   0.69461   0.00000  Uiso   1.00
O1024  O     0.37555   0.28920   0.80738   0.00000  Uiso   1.00
O1025  O     0.53213   0.11169   0.80306   0.00000  Uiso   1.00
O1026  O     0.46819   0.22342   0.69897   0.00000  Uiso   1.00
O1027  O     0.62709   0.22678   0.75000   0.00000  Uiso   1.00
O1028  O     0.62706   0.10654   0.75001   0.00000  Uiso   1.00
O1029  O     0.37294   0.22679   0.75000   0.00000  Uiso   1.00
O1030  O     0.35186   0.16668   0.81492   0.00000  Uiso   1.00
O1031  O     0.64814   0.16666   0.68509   0.00000  Uiso   1.00
O1032  O     0.60600   0.16667   0.81492   0.00000  Uiso   1.00
O1033  O     0.39400   0.16667   0.68508   0.00000  Uiso   1.00
O1034  O     0.62654   0.17882   0.61115   0.00000  Uiso   1.00
C1035  C     0.99975   0.08747   0.74970   0.00000  Uiso   1.00
C1036  C     0.68879   0.02227   0.77737   0.00000  Uiso   1.00
C1037  C     0.66710   0.29056   0.75110   0.00000  Uiso   1.00
C1038  C     0.99910   0.04278   0.74986   0.00000  Uiso   1.00
C1039  C     0.84970   0.13850   0.77557   0.00000  Uiso   1.00
C1040  C     0.81701   0.19503   0.72489   0.00000  Uiso   1.00
C1041  C     0.79978   0.13903   0.77564   0.00000  Uiso   1.00
C1042  C     0.86693   0.19411   0.72418   0.00000  Uiso   1.00
C1043  C     0.97225   0.16622   0.83594   0.00000  Uiso   1.00
C1044  C     0.69434   0.16731   0.66395   0.00000  Uiso   1.00
C1045  C     0.95635   0.16727   0.88491   0.00000  Uiso   1.00
C1046  C     0.66679   0.24586   0.75063   0.00000  Uiso   1.00
C1047  C     0.70980   0.17376   0.61511   0.00000  Uiso   1.00
C1048  C     0.97286   0.16442   0.95608   0.00000  Uiso   1.00
C1049  C     0.69333   0.19920   0.54807   0.00000  Uiso   1.00
C1050  C     0.98918   0.16092   0.90998   0.00000  Uiso   1.00
C1051  C     0.67617   0.18341   0.59166   0.00000  Uiso   1.00
C1052  C     0.90727   0.17525   0.90685   0.00000  Uiso   1.00
C1053  C     0.75948   0.17454   0.59233   0.00000  Uiso   1.00
C1054  C     0.89093   0.18126   0.95316   0.00000  Uiso   1.00
C1055  C     0.77694   0.18839   0.54769   0.00000  Uiso   1.00
C1056  C     0.92455   0.17428   0.97750   0.00000  Uiso   1.00
C1057  C     0.86334   0.18816   0.54644   0.00000  Uiso   1.00
C1058  C     0.74297   0.19964   0.52531   0.00000  Uiso   1.00
C1059  C     0.84198   0.19192   0.97662   0.00000  Uiso   1.00
C1060  C     0.82714   0.18919   0.52413   0.00000  Uiso   1.00
C1061  C     0.94701   0.13631   0.61093   0.00000  Uiso   1.00
C1062  C     0.71259   0.11085   0.89367   0.00000  Uiso   1.00
C1063  C     0.86203   0.24406   0.58947   0.00000  Uiso   1.00
C1064  C     0.83653   0.26106   0.90872   0.00000  Uiso   1.00
C1065  C     0.91538   0.02322   0.68647   0.00000  Uiso   1.00
C1066  C     0.74159   0.31172   0.82475   0.00000  Uiso   1.00
C1067  C     0.84912   0.07070   0.79988   0.00000  Uiso   1.00
C1068  C     0.80749   0.20675   0.95555   0.00000  Uiso   1.00
C1069  C     0.80914   0.26394   0.71247   0.00000  Uiso   1.00
C1070  C     0.91036   0.17842   0.52322   0.00000  Uiso   1.00
C1071  C     0.75873   0.21042   0.98017   0.00000  Uiso   1.00
C1072  C     0.97552   0.02104   0.72327   0.00000  Uiso   1.00
C1073  C     0.68987   0.31219   0.77850   0.00000  Uiso   1.00
C1074  C     0.97732   0.31112   0.72372   0.00000  Uiso   1.00
Cu1075 Cu    0.71355   0.16667   0.75000   0.00000  Uiso   1.00
Cu1076 Cu    0.95311   0.16666   0.75000   0.00000  Uiso   1.00
H1077  H     0.93618   0.17521   0.54131   0.00000  Uiso   1.00
H1078  H     0.96070   0.11769   0.63447   0.00000  Uiso   1.00
H1079  H     0.96064   0.12269   0.57716   0.00000  Uiso   1.00
H1080  H     0.75189   0.10520   0.87873   0.00000  Uiso   1.00
H1081  H     0.69216   0.09203   0.87525   0.00000  Uiso   1.00
H1082  H     0.70311   0.10049   0.92914   0.00000  Uiso   1.00
H1083  H     0.83252   0.26017   0.57993   0.00000  Uiso   1.00
H1084  H     0.89831   0.25388   0.56699   0.00000  Uiso   1.00
H1085  H     0.86117   0.25398   0.62331   0.00000  Uiso   1.00
H1086  H     0.86928   0.26468   0.92059   0.00000  Uiso   1.00
H1087  H     0.80710   0.28159   0.92765   0.00000  Uiso   1.00
H1088  H     0.73287   0.22071   0.96329   0.00000  Uiso   1.00
H1089  H     0.84692   0.27123   0.87327   0.00000  Uiso   1.00
H1090  H     0.89380   0.04665   0.67489   0.00000  Uiso   1.00
H1091  H     0.89084   0.00819   0.71704   0.00000  Uiso   1.00
H1092  H     0.92767   0.00042   0.65938   0.00000  Uiso   1.00
H1093  H     0.76979   0.32867   0.79809   0.00000  Uiso   1.00
H1094  H     0.76088   0.28953   0.84049   0.00000  Uiso   1.00
H1095  H     0.72160   0.33297   0.85122   0.00000  Uiso   1.00
H1096  H     0.84884   0.06276   0.76547   0.00000  Uiso   1.00
H1097  H     0.81247   0.06531   0.82369   0.00000  Uiso   1.00
H1098  H     0.87435   0.04921   0.80928   0.00000  Uiso   1.00
H1099  H     0.99839   0.15966   0.97510   0.00000  Uiso   1.00
H1100  H     0.84796   0.27370   0.69935   0.00000  Uiso   1.00
H1101  H     0.79683   0.26698   0.74935   0.00000  Uiso   1.00
H1102  H     0.78758   0.28559   0.69851   0.00000  Uiso   1.00
H1103  H     0.77353   0.11758   0.79648   0.00000  Uiso   1.00
H1104  H     0.89304   0.21551   0.70298   0.00000  Uiso   1.00
H1105  H     0.66812   0.21068   0.53137   0.00000  Uiso   1.00
H1106  H     0.96182   0.29306   0.70211   0.00000  Uiso   1.00
H1107  H     0.70463   0.04073   0.79841   0.00000  Uiso   1.00
H1108  H     0.78387   0.16248   0.60962   0.00000  Uiso   1.00
H1109  H     0.88224   0.17548   0.88721   0.00000  Uiso   1.00
H1110  H     0.90674   0.13320   0.62163   0.00000  Uiso   1.00
N1111  N     0.78403   0.16668   0.74999   0.00000  Uiso   1.00
N1112  N     0.88264   0.16666   0.75001   0.00000  Uiso   1.00
O1113  O     0.70625   0.10655   0.75000   0.00000  Uiso   1.00
O1114  O     0.70448   0.15342   0.88961   0.00000  Uiso   1.00
O1115  O     0.85481   0.20075   0.59000   0.00000  Uiso   1.00
O1116  O     0.82034   0.21944   0.91144   0.00000  Uiso   1.00
O1117  O     0.95583   0.04345   0.69461   0.00000  Uiso   1.00
O1118  O     0.70888   0.28920   0.80738   0.00000  Uiso   1.00
O1119  O     0.86546   0.11169   0.80306   0.00000  Uiso   1.00
O1120  O     0.80152   0.22342   0.69897   0.00000  Uiso   1.00
O1121  O     0.96042   0.22678   0.75000   0.00000  Uiso   1.00
O1122  O     0.96039   0.10654   0.75001   0.00000  Uiso   1.00
O1123  O     0.70628   0.22679   0.75000   0.00000  Uiso   1.00
O1124  O     0.68519   0.16668   0.81492   0.00000  Uiso   1.00
O1125  O     0.98148   0.16666   0.68509   0.00000  Uiso   1.00
O1126  O     0.93933   0.16667   0.81492   0.00000  Uiso   1.00
O1127  O     0.72733   0.16667   0.68508   0.00000  Uiso   1.00
O1128  O     0.95987   0.17882   0.61115   0.00000  Uiso   1.00
C1129  C     0.33309   0.42081   0.74970   0.00000  Uiso   1.00
C1130  C     0.02213   0.35561   0.77737   0.00000  Uiso   1.00
C1131  C     0.00044   0.62389   0.75110   0.00000  Uiso   1.00
C1132  C     0.33243   0.37611   0.74986   0.00000  Uiso   1.00
C1133  C     0.18303   0.47183   0.77557   0.00000  Uiso   1.00
C1134  C     0.15034   0.52836   0.72489   0.00000  Uiso   1.00
C1135  C     0.13312   0.47237   0.77564   0.00000  Uiso   1.00
C1136  C     0.20026   0.52745   0.72418   0.00000  Uiso   1.00
C1137  C     0.30559   0.49956   0.83594   0.00000  Uiso   1.00
C1138  C     0.02767   0.50065   0.66395   0.00000  Uiso   1.00
C1139  C     0.28968   0.50061   0.88491   0.00000  Uiso   1.00
C1140  C     0.00013   0.57919   0.75063   0.00000  Uiso   1.00
C1141  C     0.04313   0.50710   0.61511   0.00000  Uiso   1.00
C1142  C     0.30619   0.49776   0.95608   0.00000  Uiso   1.00
C1143  C     0.02666   0.53253   0.54807   0.00000  Uiso   1.00
C1144  C     0.32252   0.49425   0.90998   0.00000  Uiso   1.00
C1145  C     0.00950   0.51675   0.59166   0.00000  Uiso   1.00
C1146  C     0.24061   0.50859   0.90685   0.00000  Uiso   1.00
C1147  C     0.09281   0.50787   0.59233   0.00000  Uiso   1.00
C1148  C     0.22426   0.51459   0.95316   0.00000  Uiso   1.00
C1149  C     0.11027   0.52173   0.54769   0.00000  Uiso   1.00
C1150  C     0.25789   0.50761   0.97750   0.00000  Uiso   1.00
C1151  C     0.19667   0.52149   0.54644   0.00000  Uiso   1.00
C1152  C     0.07630   0.53297   0.52531   0.00000  Uiso   1.00
C1153  C     0.17531   0.52525   0.97662   0.00000  Uiso   1.00
C1154  C     0.16048   0.52252   0.52413   0.00000  Uiso   1.00
C1155  C     0.28034   0.46965   0.61093   0.00000  Uiso   1.00
C1156  C     0.04593   0.44418   0.89367   0.00000  Uiso   1.00
C1157  C     0.19537   0.57739   0.58947   0.00000  Uiso   1.00
C1158  C     0.16986   0.59439   0.90872   0.00000  Uiso   1.00
C1159  C     0.24871   0.35655   0.68647   0.00000  Uiso   1.00
C1160  C     0.07493   0.64506   0.82475   0.00000  Uiso   1.00
C1161  C     0.18246   0.40403   0.79988   0.00000  Uiso   1.00
C1162  C     0.14082   0.54008   0.95555   0.00000  Uiso   1.00
C1163  C     0.14248   0.59727   0.71247   0.00000  Uiso   1.00
C1164  C     0.24369   0.51175   0.52322   0.00000  Uiso   1.00
C1165  C     0.09206   0.54375   0.98017   0.00000  Uiso   1.00
C1166  C     0.30885   0.35437   0.72327   0.00000  Uiso   1.00
C1167  C     0.02320   0.64553   0.77850   0.00000  Uiso   1.00
C1168  C     0.31065   0.64446   0.72372   0.00000  Uiso   1.00
Cu1169 Cu    0.04689   0.50001   0.75000   0.00000  Uiso   1.00
Cu1170 Cu    0.28645   0.49999   0.75000   0.00000  Uiso   1.00
H1171  H     0.26952   0.50854   0.54131   0.00000  Uiso   1.00
H1172  H     0.29403   0.45102   0.63447   0.00000  Uiso   1.00
H1173  H     0.29397   0.45602   0.57716   0.00000  Uiso   1.00
H1174  H     0.08523   0.43853   0.87873   0.00000  Uiso   1.00
H1175  H     0.02550   0.42536   0.87525   0.00000  Uiso   1.00
H1176  H     0.03644   0.43382   0.92914   0.00000  Uiso   1.00
H1177  H     0.16585   0.59350   0.57993   0.00000  Uiso   1.00
H1178  H     0.23165   0.58722   0.56699   0.00000  Uiso   1.00
H1179  H     0.19450   0.58731   0.62331   0.00000  Uiso   1.00
H1180  H     0.20262   0.59802   0.92059   0.00000  Uiso   1.00
H1181  H     0.14044   0.61492   0.92765   0.00000  Uiso   1.00
H1182  H     0.06620   0.55405   0.96329   0.00000  Uiso   1.00
H1183  H     0.18026   0.60456   0.87327   0.00000  Uiso   1.00
H1184  H     0.22713   0.37999   0.67489   0.00000  Uiso   1.00
H1185  H     0.22417   0.34152   0.71704   0.00000  Uiso   1.00
H1186  H     0.26100   0.33375   0.65938   0.00000  Uiso   1.00
H1187  H     0.10312   0.66200   0.79809   0.00000  Uiso   1.00
H1188  H     0.09421   0.62286   0.84049   0.00000  Uiso   1.00
H1189  H     0.05493   0.66630   0.85122   0.00000  Uiso   1.00
H1190  H     0.18218   0.39609   0.76547   0.00000  Uiso   1.00
H1191  H     0.14581   0.39864   0.82369   0.00000  Uiso   1.00
H1192  H     0.20768   0.38254   0.80928   0.00000  Uiso   1.00
H1193  H     0.33172   0.49299   0.97510   0.00000  Uiso   1.00
H1194  H     0.18130   0.60703   0.69935   0.00000  Uiso   1.00
H1195  H     0.13016   0.60031   0.74935   0.00000  Uiso   1.00
H1196  H     0.12092   0.61892   0.69851   0.00000  Uiso   1.00
H1197  H     0.10686   0.45091   0.79648   0.00000  Uiso   1.00
H1198  H     0.22638   0.54885   0.70298   0.00000  Uiso   1.00
H1199  H     0.00145   0.54401   0.53137   0.00000  Uiso   1.00
H1200  H     0.29516   0.62640   0.70211   0.00000  Uiso   1.00
H1201  H     0.03796   0.37407   0.79841   0.00000  Uiso   1.00
H1202  H     0.11720   0.49582   0.60962   0.00000  Uiso   1.00
H1203  H     0.21557   0.50881   0.88721   0.00000  Uiso   1.00
H1204  H     0.24008   0.46653   0.62163   0.00000  Uiso   1.00
N1205  N     0.11736   0.50001   0.74999   0.00000  Uiso   1.00
N1206  N     0.21597   0.49999   0.75001   0.00000  Uiso   1.00
O1207  O     0.03958   0.43989   0.75000   0.00000  Uiso   1.00
O1208  O     0.03781   0.48676   0.88961   0.00000  Uiso   1.00
O1209  O     0.18814   0.53409   0.59000   0.00000  Uiso   1.00
O1210  O     0.15367   0.55278   0.91144   0.00000  Uiso   1.00
O1211  O     0.28916   0.37678   0.69461   0.00000  Uiso   1.00
O1212  O     0.04222   0.62254   0.80738   0.00000  Uiso   1.00
O1213  O     0.19879   0.44503   0.80306   0.00000  Uiso   1.00
O1214  O     0.13485   0.55675   0.69897   0.00000  Uiso   1.00
O1215  O     0.29375   0.56011   0.75000   0.00000  Uiso   1.00
O1216  O     0.29372   0.43988   0.75001   0.00000  Uiso   1.00
O1217  O     0.03961   0.56012   0.75000   0.00000  Uiso   1.00
O1218  O     0.01852   0.50001   0.81492   0.00000  Uiso   1.00
O1219  O     0.31481   0.49999   0.68509   0.00000  Uiso   1.00
O1220  O     0.27267   0.50000   0.81492   0.00000  Uiso   1.00
O1221  O     0.06067   0.50000   0.68508   0.00000  Uiso   1.00
O1222  O     0.29321   0.51216   0.61115   0.00000  Uiso   1.00
C1223  C     0.66642   0.42081   0.74970   0.00000  Uiso   1.00
C1224  C     0.35546   0.35561   0.77737   0.00000  Uiso   1.00
C1225  C     0.33377   0.62389   0.75110   0.00000  Uiso   1.00
C1226  C     0.66577   0.37611   0.74986   0.00000  Uiso   1.00
C1227  C     0.51637   0.47183   0.77557   0.00000  Uiso   1.00
C1228  C     0.48368   0.52836   0.72489   0.00000  Uiso   1.00
C1229  C     0.46645   0.47237   0.77564   0.00000  Uiso   1.00
C1230  C     0.53359   0.52745   0.72418   0.00000  Uiso   1.00
C1231  C     0.63892   0.49956   0.83594   0.00000  Uiso   1.00
C1232  C     0.36101   0.50065   0.66395   0.00000  Uiso   1.00
C1233  C     0.62302   0.50061   0.88491   0.00000  Uiso   1.00
C1234  C     0.33346   0.57919   0.75063   0.00000  Uiso   1.00
C1235  C     0.37646   0.50710   0.61511   0.00000  Uiso   1.00
C1236  C     0.63953   0.49776   0.95608   0.00000  Uiso   1.00
C1237  C     0.35999   0.53253   0.54807   0.00000  Uiso   1.00
C1238  C     0.65585   0.49425   0.90998   0.00000  Uiso   1.00
C1239  C     0.34283   0.51675   0.59166   0.00000  Uiso   1.00
C1240  C     0.57394   0.50859   0.90685   0.00000  Uiso   1.00
C1241  C     0.42614   0.50787   0.59233   0.00000  Uiso   1.00
C1242  C     0.55759   0.51459   0.95316   0.00000  Uiso   1.00
C1243  C     0.44360   0.52173   0.54769   0.00000  Uiso   1.00
C1244  C     0.59122   0.50761   0.97750   0.00000  Uiso   1.00
C1245  C     0.53000   0.52149   0.54644   0.00000  Uiso   1.00
C1246  C     0.40964   0.53297   0.52531   0.00000  Uiso   1.00
C1247  C     0.50864   0.52525   0.97662   0.00000  Uiso   1.00
C1248  C     0.49381   0.52252   0.52413   0.00000  Uiso   1.00
C1249  C     0.61367   0.46965   0.61093   0.00000  Uiso   1.00
C1250  C     0.37926   0.44418   0.89367   0.00000  Uiso   1.00
C1251  C     0.52870   0.57739   0.58947   0.00000  Uiso   1.00
C1252  C     0.50319   0.59439   0.90872   0.00000  Uiso   1.00
C1253  C     0.58205   0.35655   0.68647   0.00000  Uiso   1.00
C1254  C     0.40826   0.64506   0.82475   0.00000  Uiso   1.00
C1255  C     0.51579   0.40403   0.79988   0.00000  Uiso   1.00
C1256  C     0.47415   0.54008   0.95555   0.00000  Uiso   1.00
C1257  C     0.47581   0.59727   0.71247   0.00000  Uiso   1.00
C1258  C     0.57702   0.51175   0.52322   0.00000  Uiso   1.00
C1259  C     0.42540   0.54375   0.98017   0.00000  Uiso   1.00
C1260  C     0.64218   0.35437   0.72327   0.00000  Uiso   1.00
C1261  C     0.35653   0.64553   0.77850   0.00000  Uiso   1.00
C1262  C     0.64398   0.64446   0.72372   0.00000  Uiso   1.00
Cu1263 Cu    0.38022   0.50001   0.75000   0.00000  Uiso   1.00
Cu1264 Cu    0.61978   0.49999   0.75000   0.00000  Uiso   1.00
H1265  H     0.60285   0.50854   0.54131   0.00000  Uiso   1.00
H1266  H     0.62737   0.45102   0.63447   0.00000  Uiso   1.00
H1267  H     0.62731   0.45602   0.57716   0.00000  Uiso   1.00
H1268  H     0.41856   0.43853   0.87873   0.00000  Uiso   1.00
H1269  H     0.35883   0.42536   0.87525   0.00000  Uiso   1.00
H1270  H     0.36977   0.43382   0.92914   0.00000  Uiso   1.00
H1271  H     0.49918   0.59350   0.57993   0.00000  Uiso   1.00
H1272  H     0.56498   0.58722   0.56699   0.00000  Uiso   1.00
H1273  H     0.52784   0.58731   0.62331   0.00000  Uiso   1.00
H1274  H     0.53595   0.59802   0.92059   0.00000  Uiso   1.00
H1275  H     0.47377   0.61492   0.92765   0.00000  Uiso   1.00
H1276  H     0.39953   0.55405   0.96329   0.00000  Uiso   1.00
H1277  H     0.51359   0.60456   0.87327   0.00000  Uiso   1.00
H1278  H     0.56047   0.37999   0.67489   0.00000  Uiso   1.00
H1279  H     0.55751   0.34152   0.71704   0.00000  Uiso   1.00
H1280  H     0.59433   0.33375   0.65938   0.00000  Uiso   1.00
H1281  H     0.43646   0.66200   0.79809   0.00000  Uiso   1.00
H1282  H     0.42755   0.62286   0.84049   0.00000  Uiso   1.00
H1283  H     0.38826   0.66630   0.85122   0.00000  Uiso   1.00
H1284  H     0.51551   0.39609   0.76547   0.00000  Uiso   1.00
H1285  H     0.47914   0.39864   0.82369   0.00000  Uiso   1.00
H1286  H     0.54102   0.38254   0.80928   0.00000  Uiso   1.00
H1287  H     0.66506   0.49299   0.97510   0.00000  Uiso   1.00
H1288  H     0.51463   0.60703   0.69935   0.00000  Uiso   1.00
H1289  H     0.46350   0.60031   0.74935   0.00000  Uiso   1.00
H1290  H     0.45425   0.61892   0.69851   0.00000  Uiso   1.00
H1291  H     0.44019   0.45091   0.79648   0.00000  Uiso   1.00
H1292  H     0.55971   0.54885   0.70298   0.00000  Uiso   1.00
H1293  H     0.33479   0.54401   0.53137   0.00000  Uiso   1.00
H1294  H     0.62849   0.62640   0.70211   0.00000  Uiso   1.00
H1295  H     0.37129   0.37407   0.79841   0.00000  Uiso   1.00
H1296  H     0.45053   0.49582   0.60962   0.00000  Uiso   1.00
H1297  H     0.54891   0.50881   0.88721   0.00000  Uiso   1.00
H1298  H     0.57341   0.46653   0.62163   0.00000  Uiso   1.00
N1299  N     0.45069   0.50001   0.74999   0.00000  Uiso   1.00
N1300  N     0.54931   0.49999   0.75001   0.00000  Uiso   1.00
O1301  O     0.37291   0.43989   0.75000   0.00000  Uiso   1.00
O1302  O     0.37115   0.48676   0.88961   0.00000  Uiso   1.00
O1303  O     0.52147   0.53409   0.59000   0.00000  Uiso   1.00
O1304  O     0.48701   0.55278   0.91144   0.00000  Uiso   1.00
O1305  O     0.62250   0.37678   0.69461   0.00000  Uiso   1.00
O1306  O     0.37555   0.62254   0.80738   0.00000  Uiso   1.00
O1307  O     0.53213   0.44503   0.80306   0.00000  Uiso   1.00
O1308  O     0.46819   0.55675   0.69897   0.00000  Uiso   1.00
O1309  O     0.62709   0.56011   0.75000   0.00000  Uiso   1.00
O1310  O     0.62706   0.43988   0.75001   0.00000  Uiso   1.00
O1311  O     0.37294   0.56012   0.75000   0.00000  Uiso   1.00
O1312  O     0.35186   0.50001   0.81492   0.00000  Uiso   1.00
O1313  O     0.64814   0.49999   0.68509   0.00000  Uiso   1.00
O1314  O     0.60600   0.50000   0.81492   0.00000  Uiso   1.00
O1315  O     0.39400   0.50000   0.68508   0.00000  Uiso   1.00
O1316  O     0.62654   0.51216   0.61115   0.00000  Uiso   1.00
C1317  C     0.99975   0.42081   0.74970   0.00000  Uiso   1.00
C1318  C     0.68879   0.35561   0.77737   0.00000  Uiso   1.00
C1319  C     0.66710   0.62389   0.75110   0.00000  Uiso   1.00
C1320  C     0.99910   0.37611   0.74986   0.00000  Uiso   1.00
C1321  C     0.84970   0.47183   0.77557   0.00000  Uiso   1.00
C1322  C     0.81701   0.52836   0.72489   0.00000  Uiso   1.00
C1323  C     0.79978   0.47237   0.77564   0.00000  Uiso   1.00
C1324  C     0.86693   0.52745   0.72418   0.00000  Uiso   1.00
C1325  C     0.97225   0.49956   0.83594   0.00000  Uiso   1.00
C1326  C     0.69434   0.50065   0.66395   0.00000  Uiso   1.00
C1327  C     0.95635   0.50061   0.88491   0.00000  Uiso   1.00
C1328  C     0.66679   0.57919   0.75063   0.00000  Uiso   1.00
C1329  C     0.70980   0.50710   0.61511   0.00000  Uiso   1.00
C1330  C     0.97286   0.49776   0.95608   0.00000  Uiso   1.00
C1331  C     0.69333   0.53253   0.54807   0.00000  Uiso   1.00
C1332  C     0.98918   0.49425   0.90998   0.00000  Uiso   1.00
C1333  C     0.67617   0.51675   0.59166   0.00000  Uiso   1.00
C1334  C     0.90727   0.50859   0.90685   0.00000  Uiso   1.00
C1335  C     0.75948   0.50787   0.59233   0.00000  Uiso   1.00
C1336  C     0.89093   0.51459   0.95316   0.00000  Uiso   1.00
C1337  C     0.77694   0.52173   0.54769   0.00000  Uiso   1.00
C1338  C     0.92455   0.50761   0.97750   0.00000  Uiso   1.00
C1339  C     0.86334   0.52149   0.54644   0.00000  Uiso   1.00
C1340  C     0.74297   0.53297   0.52531   0.00000  Uiso   1.00
C1341  C     0.84198   0.52525   0.97662   0.00000  Uiso   1.00
C1342  C     0.82714   0.52252   0.52413   0.00000  Uiso   1.00
C1343  C     0.94701   0.46965   0.61093   0.00000  Uiso   1.00
C1344  C     0.71259   0.44418   0.89367   0.00000  Uiso   1.00
C1345  C     0.86203   0.57739   0.58947   0.00000  Uiso   1.00
C1346  C     0.83653   0.59439   0.90872   0.00000  Uiso   1.00
C1347  C     0.91538   0.35655   0.68647   0.00000  Uiso   1.00
C1348  C     0.74159   0.64506   0.82475   0.00000  Uiso   1.00
C1349  C     0.84912   0.40403   0.79988   0.00000  Uiso   1.00
C1350  C     0.80749   0.54008   0.95555   0.00000  Uiso   1.00
C1351  C     0.80914   0.59727   0.71247   0.00000  Uiso   1.00
C1352  C     0.91036   0.51175   0.52322   0.00000  Uiso   1.00
C1353  C     0.75873   0.54375   0.98017   0.00000  Uiso   1.00
C1354  C     0.97552   0.35437   0.72327   0.00000  Uiso   1.00
C1355  C     0.68987   0.64553   0.77850   0.00000  Uiso   1.00
C1356  C     0.97732   0.64446   0.72372   0.00000  Uiso   1.00
Cu1357 Cu    0.71355   0.50001   0.75000   0.00000  Uiso   1.00
Cu1358 Cu    0.95311   0.49999   0.75000   0.00000  Uiso   1.00
H1359  H     0.93618   0.50854   0.54131   0.00000  Uiso   1.00
H1360  H     0.96070   0.45102   0.63447   0.00000  Uiso   1.00
H1361  H     0.96064   0.45602   0.57716   0.00000  Uiso   1.00
H1362  H     0.75189   0.43853   0.87873   0.00000  Uiso   1.00
H1363  H     0.69216   0.42536   0.87525   0.00000  Uiso   1.00
H1364  H     0.70311   0.43382   0.92914   0.00000  Uiso   1.00
H1365  H     0.83252   0.59350   0.57993   0.00000  Uiso   1.00
H1366  H     0.89831   0.58722   0.56699   0.00000  Uiso   1.00
H1367  H     0.86117   0.58731   0.62331   0.00000  Uiso   1.00
H1368  H     0.86928   0.59802   0.92059   0.00000  Uiso   1.00
H1369  H     0.80710   0.61492   0.92765   0.00000  Uiso   1.00
H1370  H     0.73287   0.55405   0.96329   0.00000  Uiso   1.00
H1371  H     0.84692   0.60456   0.87327   0.00000  Uiso   1.00
H1372  H     0.89380   0.37999   0.67489   0.00000  Uiso   1.00
H1373  H     0.89084   0.34152   0.71704   0.00000  Uiso   1.00
H1374  H     0.92767   0.33375   0.65938   0.00000  Uiso   1.00
H1375  H     0.76979   0.66200   0.79809   0.00000  Uiso   1.00
H1376  H     0.76088   0.62286   0.84049   0.00000  Uiso   1.00
H1377  H     0.72160   0.66630   0.85122   0.00000  Uiso   1.00
H1378  H     0.84884   0.39609   0.76547   0.00000  Uiso   1.00
H1379  H     0.81247   0.39864   0.82369   0.00000  Uiso   1.00
H1380  H     0.87435   0.38254   0.80928   0.00000  Uiso   1.00
H1381  H     0.99839   0.49299   0.97510   0.00000  Uiso   1.00
H1382  H     0.84796   0.60703   0.69935   0.00000  Uiso   1.00
H1383  H     0.79683   0.60031   0.74935   0.00000  Uiso   1.00
H1384  H     0.78758   0.61892   0.69851   0.00000  Uiso   1.00
H1385  H     0.77353   0.45091   0.79648   0.00000  Uiso   1.00
H1386  H     0.89304   0.54885   0.70298   0.00000  Uiso   1.00
H1387  H     0.66812   0.54401   0.53137   0.00000  Uiso   1.00
H1388  H     0.96182   0.62640   0.70211   0.00000  Uiso   1.00
H1389  H     0.70463   0.37407   0.79841   0.00000  Uiso   1.00
H1390  H     0.78387   0.49582   0.60962   0.00000  Uiso   1.00
H1391  H     0.88224   0.50881   0.88721   0.00000  Uiso   1.00
H1392  H     0.90674   0.46653   0.62163   0.00000  Uiso   1.00
N1393  N     0.78403   0.50001   0.74999   0.00000  Uiso   1.00
N1394  N     0.88264   0.49999   0.75001   0.00000  Uiso   1.00
O1395  O     0.70625   0.43989   0.75000   0.00000  Uiso   1.00
O1396  O     0.70448   0.48676   0.88961   0.00000  Uiso   1.00
O1397  O     0.85481   0.53409   0.59000   0.00000  Uiso   1.00
O1398  O     0.82034   0.55278   0.91144   0.00000  Uiso   1.00
O1399  O     0.95583   0.37678   0.69461   0.00000  Uiso   1.00
O1400  O     0.70888   0.62254   0.80738   0.00000  Uiso   1.00
O1401  O     0.86546   0.44503   0.80306   0.00000  Uiso   1.00
O1402  O     0.80152   0.55675   0.69897   0.00000  Uiso   1.00
O1403  O     0.96042   0.56011   0.75000   0.00000  Uiso   1.00
O1404  O     0.96039   0.43988   0.75001   0.00000  Uiso   1.00
O1405  O     0.70628   0.56012   0.75000   0.00000  Uiso   1.00
O1406  O     0.68519   0.50001   0.81492   0.00000  Uiso   1.00
O1407  O     0.98148   0.49999   0.68509   0.00000  Uiso   1.00
O1408  O     0.93933   0.50000   0.81492   0.00000  Uiso   1.00
O1409  O     0.72733   0.50000   0.68508   0.00000  Uiso   1.00
O1410  O     0.95987   0.51216   0.61115   0.00000  Uiso   1.00
C1411  C     0.33309   0.75414   0.74970   0.00000  Uiso   1.00
C1412  C     0.02213   0.68894   0.77737   0.00000  Uiso   1.00
C1413  C     0.00044   0.95723   0.75110   0.00000  Uiso   1.00
C1414  C     0.33243   0.70944   0.74986   0.00000  Uiso   1.00
C1415  C     0.18303   0.80516   0.77557   0.00000  Uiso   1.00
C1416  C     0.15034   0.86170   0.72489   0.00000  Uiso   1.00
C1417  C     0.13312   0.80570   0.77564   0.00000  Uiso   1.00
C1418  C     0.20026   0.86078   0.72418   0.00000  Uiso   1.00
C1419  C     0.30559   0.83289   0.83594   0.00000  Uiso   1.00
C1420  C     0.02767   0.83398   0.66395   0.00000  Uiso   1.00
C1421  C     0.28968   0.83394   0.88491   0.00000  Uiso   1.00
C1422  C     0.00013   0.91253   0.75063   0.00000  Uiso   1.00
C1423  C     0.04313   0.84043   0.61511   0.00000  Uiso   1.00
C1424  C     0.30619   0.83109   0.95608   0.00000  Uiso   1.00
C1425  C     0.02666   0.86586   0.54807   0.00000  Uiso   1.00
C1426  C     0.32252   0.82759   0.90998   0.00000  Uiso   1.00
C1427  C     0.00950   0.85008   0.59166   0.00000  Uiso   1.00
C1428  C     0.24061   0.84192   0.90685   0.00000  Uiso   1.00
C1429  C     0.09281   0.84120   0.59233   0.00000  Uiso   1.00
C1430  C     0.22426   0.84793   0.95316   0.00000  Uiso   1.00
C1431  C     0.11027   0.85506   0.54769   0.00000  Uiso   1.00
C1432  C     0.25789   0.84095   0.97750   0.00000  Uiso   1.00
C1433  C     0.19667   0.85482   0.54644   0.00000  Uiso   1.00
C1434  C     0.07630   0.86631   0.52531   0.00000  Uiso   1.00
C1435  C     0.17531   0.85859   0.97662   0.00000  Uiso   1.00
C1436  C     0.16048   0.85585   0.52413   0.00000  Uiso   1.00
C1437  C     0.28034   0.80298   0.61093   0.00000  Uiso   1.00
C1438  C     0.04593   0.77751   0.89367   0.00000  Uiso   1.00
C1439  C     0.19537   0.91073   0.58947   0.00000  Uiso   1.00
C1440  C     0.16986   0.92772   0.90872   0.00000  Uiso   1.00
C1441  C     0.24871   0.68989   0.68647   0.00000  Uiso   1.00
C1442  C     0.07493   0.97839   0.82475   0.00000  Uiso   1.00
C1443  C     0.18246   0.73737   0.79988   0.00000  Uiso   1.00
C1444  C     0.14082   0.87341   0.95555   0.00000  Uiso   1.00
C1445  C     0.14248   0.93061   0.71247   0.00000  Uiso   1.00
C1446  C     0.24369   0.84508   0.52322   0.00000  Uiso   1.00
C1447  C     0.09206   0.87709   0.98017   0.00000  Uiso   1.00
C1448  C     0.30885   0.68771   0.72327   0.00000  Uiso   1.00
C1449  C     0.02320   0.97886   0.77850   0.00000  Uiso   1.00
C1450  C     0.31065   0.97779   0.72372   0.00000  Uiso   1.00
Cu1451 Cu    0.04689   0.83334   0.75000   0.00000  Uiso   1.00
Cu1452 Cu    0.28645   0.83333   0.75000   0.00000  Uiso   1.00
H1453  H     0.26952   0.84188   0.54131   0.00000  Uiso   1.00
H1454  H     0.29403   0.78435   0.63447   0.00000  Uiso   1.00
H1455  H     0.29397   0.78936   0.57716   0.00000  Uiso   1.00
H1456  H     0.08523   0.77186   0.87873   0.00000  Uiso   1.00
H1457  H     0.02550   0.75870   0.87525   0.00000  Uiso   1.00
H1458  H     0.03644   0.76715   0.92914   0.00000  Uiso   1.00
H1459  H     0.16585   0.92684   0.57993   0.00000  Uiso   1.00
H1460  H     0.23165   0.92055   0.56699   0.00000  Uiso   1.00
H1461  H     0.19450   0.92065   0.62331   0.00000  Uiso   1.00
H1462  H     0.20262   0.93135   0.92059   0.00000  Uiso   1.00
H1463  H     0.14044   0.94825   0.92765   0.00000  Uiso   1.00
H1464  H     0.06620   0.88738   0.96329   0.00000  Uiso   1.00
H1465  H     0.18026   0.93789   0.87327   0.00000  Uiso   1.00
H1466  H     0.22713   0.71332   0.67489   0.00000  Uiso   1.00
H1467  H     0.22417   0.67485   0.71704   0.00000  Uiso   1.00
H1468  H     0.26100   0.66708   0.65938   0.00000  Uiso   1.00
H1469  H     0.10312   0.99533   0.79809   0.00000  Uiso   1.00
H1470  H     0.09421   0.95620   0.84049   0.00000  Uiso   1.00
H1471  H     0.05493   0.99963   0.85122   0.00000  Uiso   1.00
H1472  H     0.18218   0.72943   0.76547   0.00000  Uiso   1.00
H1473  H     0.14581   0.73198   0.82369   0.00000  Uiso   1.00
H1474  H     0.20768   0.71588   0.80928   0.00000  Uiso   1.00
H1475  H     0.33172   0.82632   0.97510   0.00000  Uiso   1.00
H1476  H     0.18130   0.94036   0.69935   0.00000  Uiso   1.00
H1477  H     0.13016   0.93365   0.74935   0.00000  Uiso   1.00
H1478  H     0.12092   0.95225   0.69851   0.00000  Uiso   1.00
H1479  H     0.10686   0.78425   0.79648   0.00000  Uiso   1.00
H1480  H     0.22638   0.88218   0.70298   0.00000  Uiso   1.00
H1481  H     0.00145   0.87735   0.53137   0.00000  Uiso   1.00
H1482  H     0.29516   0.95973   0.70211   0.00000  Uiso   1.00
H1483  H     0.03796   0.70740   0.79841   0.00000  Uiso   1.00
H1484  H     0.11720   0.82915   0.60962   0.00000  Uiso   1.00
H1485  H     0.21557   0.84215   0.88721   0.00000  Uiso   1.00
H1486  H     0.24008   0.79987   0.62163   0.00000  Uiso   1.00
N1487  N     0.11736   0.83334   0.74999   0.00000  Uiso   1.00
N1488  N     0.21597   0.83332   0.75001   0.00000  Uiso   1.00
O1489  O     0.03958   0.77322   0.75000   0.00000  Uiso   1.00
O1490  O     0.03781   0.82009   0.88961   0.00000  Uiso   1.00
O1491  O     0.18814   0.86742   0.59000   0.00000  Uiso   1.00
O1492  O     0.15367   0.88611   0.91144   0.00000  Uiso   1.00
O1493  O     0.28916   0.71011   0.69461   0.00000  Uiso   1.00
O1494  O     0.04222   0.95587   0.80738   0.00000  Uiso   1.00
O1495  O     0.19879   0.77836   0.80306   0.00000  Uiso   1.00
O1496  O     0.13485   0.89008   0.69897   0.00000  Uiso   1.00
O1497  O     0.29375   0.89345   0.75000   0.00000  Uiso   1.00
O1498  O     0.29372   0.77321   0.75001   0.00000  Uiso   1.00
O1499  O     0.03961   0.89346   0.75000   0.00000  Uiso   1.00
O1500  O     0.01852   0.83334   0.81492   0.00000  Uiso   1.00
O1501  O     0.31481   0.83332   0.68509   0.00000  Uiso   1.00
O1502  O     0.27267   0.83333   0.81492   0.00000  Uiso   1.00
O1503  O     0.06067   0.83333   0.68508   0.00000  Uiso   1.00
O1504  O     0.29321   0.84549   0.61115   0.00000  Uiso   1.00
C1505  C     0.66642   0.75414   0.74970   0.00000  Uiso   1.00
C1506  C     0.35546   0.68894   0.77737   0.00000  Uiso   1.00
C1507  C     0.33377   0.95723   0.75110   0.00000  Uiso   1.00
C1508  C     0.66577   0.70944   0.74986   0.00000  Uiso   1.00
C1509  C     0.51637   0.80516   0.77557   0.00000  Uiso   1.00
C1510  C     0.48368   0.86170   0.72489   0.00000  Uiso   1.00
C1511  C     0.46645   0.80570   0.77564   0.00000  Uiso   1.00
C1512  C     0.53359   0.86078   0.72418   0.00000  Uiso   1.00
C1513  C     0.63892   0.83289   0.83594   0.00000  Uiso   1.00
C1514  C     0.36101   0.83398   0.66395   0.00000  Uiso   1.00
C1515  C     0.62302   0.83394   0.88491   0.00000  Uiso   1.00
C1516  C     0.33346   0.91253   0.75063   0.00000  Uiso   1.00
C1517  C     0.37646   0.84043   0.61511   0.00000  Uiso   1.00
C1518  C     0.63953   0.83109   0.95608   0.00000  Uiso   1.00
C1519  C     0.35999   0.86586   0.54807   0.00000  Uiso   1.00
C1520  C     0.65585   0.82759   0.90998   0.00000  Uiso   1.00
C1521  C     0.34283   0.85008   0.59166   0.00000  Uiso   1.00
C1522  C     0.57394   0.84192   0.90685   0.00000  Uiso   1.00
C1523  C     0.42614   0.84120   0.59233   0.00000  Uiso   1.00
C1524  C     0.55759   0.84793   0.95316   0.00000  Uiso   1.00
C1525  C     0.44360   0.85506   0.54769   0.00000  Uiso   1.00
C1526  C     0.59122   0.84095   0.97750   0.00000  Uiso   1.00
C1527  C     0.53000   0.85482   0.54644   0.00000  Uiso   1.00
C1528  C     0.40964   0.86631   0.52531   0.00000  Uiso   1.00
C1529  C     0.50864   0.85859   0.97662   0.00000  Uiso   1.00
C1530  C     0.49381   0.85585   0.52413   0.00000  Uiso   1.00
C1531  C     0.61367   0.80298   0.61093   0.00000  Uiso   1.00
C1532  C     0.37926   0.77751   0.89367   0.00000  Uiso   1.00
C1533  C     0.52870   0.91073   0.58947   0.00000  Uiso   1.00
C1534  C     0.50319   0.92772   0.90872   0.00000  Uiso   1.00
C1535  C     0.58205   0.68989   0.68647   0.00000  Uiso   1.00
C1536  C     0.40826   0.97839   0.82475   0.00000  Uiso   1.00
C1537  C     0.51579   0.73737   0.79988   0.00000  Uiso   1.00
C1538  C     0.47415   0.87341   0.95555   0.00000  Uiso   1.00
C1539  C     0.47581   0.93061   0.71247   0.00000  Uiso   1.00
C1540  C     0.57702   0.84508   0.52322   0.00000  Uiso   1.00
C1541  C     0.42540   0.87709   0.98017   0.00000  Uiso   1.00
C1542  C     0.64218   0.68771   0.72327   0.00000  Uiso   1.00
C1543  C     0.35653   0.97886   0.77850   0.00000  Uiso   1.00
C1544  C     0.64398   0.97779   0.72372   0.00000  Uiso   1.00
Cu1545 Cu    0.38022   0.83334   0.75000   0.00000  Uiso   1.00
Cu1546 Cu    0.61978   0.83333   0.75000   0.00000  Uiso   1.00
H1547  H     0.60285   0.84188   0.54131   0.00000  Uiso   1.00
H1548  H     0.62737   0.78435   0.63447   0.00000  Uiso   1.00
H1549  H     0.62731   0.78936   0.57716   0.00000  Uiso   1.00
H1550  H     0.41856   0.77186   0.87873   0.00000  Uiso   1.00
H1551  H     0.35883   0.75870   0.87525   0.00000  Uiso   1.00
H1552  H     0.36977   0.76715   0.92914   0.00000  Uiso   1.00
H1553  H     0.49918   0.92684   0.57993   0.00000  Uiso   1.00
H1554  H     0.56498   0.92055   0.56699   0.00000  Uiso   1.00
H1555  H     0.52784   0.92065   0.62331   0.00000  Uiso   1.00
H1556  H     0.53595   0.93135   0.92059   0.00000  Uiso   1.00
H1557  H     0.47377   0.94825   0.92765   0.00000  Uiso   1.00
H1558  H     0.39953   0.88738   0.96329   0.00000  Uiso   1.00
H1559  H     0.51359   0.93789   0.87327   0.00000  Uiso   1.00
H1560  H     0.56047   0.71332   0.67489   0.00000  Uiso   1.00
H1561  H     0.55751   0.67485   0.71704   0.00000  Uiso   1.00
H1562  H     0.59433   0.66708   0.65938   0.00000  Uiso   1.00
H1563  H     0.43646   0.99533   0.79809   0.00000  Uiso   1.00
H1564  H     0.42755   0.95620   0.84049   0.00000  Uiso   1.00
H1565  H     0.38826   0.99963   0.85122   0.00000  Uiso   1.00
H1566  H     0.51551   0.72943   0.76547   0.00000  Uiso   1.00
H1567  H     0.47914   0.73198   0.82369   0.00000  Uiso   1.00
H1568  H     0.54102   0.71588   0.80928   0.00000  Uiso   1.00
H1569  H     0.66506   0.82632   0.97510   0.00000  Uiso   1.00
H1570  H     0.51463   0.94036   0.69935   0.00000  Uiso   1.00
H1571  H     0.46350   0.93365   0.74935   0.00000  Uiso   1.00
H1572  H     0.45425   0.95225   0.69851   0.00000  Uiso   1.00
H1573  H     0.44019   0.78425   0.79648   0.00000  Uiso   1.00
H1574  H     0.55971   0.88218   0.70298   0.00000  Uiso   1.00
H1575  H     0.33479   0.87735   0.53137   0.00000  Uiso   1.00
H1576  H     0.62849   0.95973   0.70211   0.00000  Uiso   1.00
H1577  H     0.37129   0.70740   0.79841   0.00000  Uiso   1.00
H1578  H     0.45053   0.82915   0.60962   0.00000  Uiso   1.00
H1579  H     0.54891   0.84215   0.88721   0.00000  Uiso   1.00
H1580  H     0.57341   0.79987   0.62163   0.00000  Uiso   1.00
N1581  N     0.45069   0.83334   0.74999   0.00000  Uiso   1.00
N1582  N     0.54931   0.83332   0.75001   0.00000  Uiso   1.00
O1583  O     0.37291   0.77322   0.75000   0.00000  Uiso   1.00
O1584  O     0.37115   0.82009   0.88961   0.00000  Uiso   1.00
O1585  O     0.52147   0.86742   0.59000   0.00000  Uiso   1.00
O1586  O     0.48701   0.88611   0.91144   0.00000  Uiso   1.00
O1587  O     0.62250   0.71011   0.69461   0.00000  Uiso   1.00
O1588  O     0.37555   0.95587   0.80738   0.00000  Uiso   1.00
O1589  O     0.53213   0.77836   0.80306   0.00000  Uiso   1.00
O1590  O     0.46819   0.89008   0.69897   0.00000  Uiso   1.00
O1591  O     0.62709   0.89345   0.75000   0.00000  Uiso   1.00
O1592  O     0.62706   0.77321   0.75001   0.00000  Uiso   1.00
O1593  O     0.37294   0.89346   0.75000   0.00000  Uiso   1.00
O1594  O     0.35186   0.83334   0.81492   0.00000  Uiso   1.00
O1595  O     0.64814   0.83332   0.68509   0.00000  Uiso   1.00
O1596  O     0.60600   0.83333   0.81492   0.00000  Uiso   1.00
O1597  O     0.39400   0.83333   0.68508   0.00000  Uiso   1.00
O1598  O     0.62654   0.84549   0.61115   0.00000  Uiso   1.00
C1599  C     0.99975   0.75414   0.74970   0.00000  Uiso   1.00
C1600  C     0.68879   0.68894   0.77737   0.00000  Uiso   1.00
C1601  C     0.66710   0.95723   0.75110   0.00000  Uiso   1.00
C1602  C     0.99910   0.70944   0.74986   0.00000  Uiso   1.00
C1603  C     0.84970   0.80516   0.77557   0.00000  Uiso   1.00
C1604  C     0.81701   0.86170   0.72489   0.00000  Uiso   1.00
C1605  C     0.79978   0.80570   0.77564   0.00000  Uiso   1.00
C1606  C     0.86693   0.86078   0.72418   0.00000  Uiso   1.00
C1607  C     0.97225   0.83289   0.83594   0.00000  Uiso   1.00
C1608  C     0.69434   0.83398   0.66395   0.00000  Uiso   1.00
C1609  C     0.95635   0.83394   0.88491   0.00000  Uiso   1.00
C1610  C     0.66679   0.91253   0.75063   0.00000  Uiso   1.00
C1611  C     0.70980   0.84043   0.61511   0.00000  Uiso   1.00
C1612  C     0.97286   0.83109   0.95608   0.00000  Uiso   1.00
C1613  C     0.69333   0.86586   0.54807   0.00000  Uiso   1.00
C1614  C     0.98918   0.82759   0.90998   0.00000  Uiso   1.00
C1615  C     0.67617   0.85008   0.59166   0.00000  Uiso   1.00
C1616  C     0.90727   0.84192   0.90685   0.00000  Uiso   1.00
C1617  C     0.75948   0.84120   0.59233   0.00000  Uiso   1.00
C1618  C     0.89093   0.84793   0.95316   0.00000  Uiso   1.00
C1619  C     0.77694   0.85506   0.54769   0.00000  Uiso   1.00
C1620  C     0.92455   0.84095   0.97750   0.00000  Uiso   1.00
C1621  C     0.86334   0.85482   0.54644   0.00000  Uiso   1.00
C1622  C     0.74297   0.86631   0.52531   0.00000  Uiso   1.00
C1623  C     0.84198   0.85859   0.97662   0.00000  Uiso   1.00
C1624  C     0.82714   0.85585   0.52413   0.00000  Uiso   1.00
C1625  C     0.94701   0.80298   0.61093   0.00000  Uiso   1.00
C1626  C     0.71259   0.77751   0.89367   0.00000  Uiso   1.00
C1627  C     0.86203   0.91073   0.58947   0.00000  Uiso   1.00
C1628  C     0.83653   0.92772   0.90872   0.00000  Uiso   1.00
C1629  C     0.91538   0.68989   0.68647   0.00000  Uiso   1.00
C1630  C     0.74159   0.97839   0.82475   0.00000  Uiso   1.00
C1631  C     0.84912   0.73737   0.79988   0.00000  Uiso   1.00
C1632  C     0.80749   0.87341   0.95555   0.00000  Uiso   1.00
C1633  C     0.80914   0.93061   0.71247   0.00000  Uiso   1.00
C1634  C     0.91036   0.84508   0.52322   0.00000  Uiso   1.00
C1635  C     0.75873   0.87709   0.98017   0.00000  Uiso   1.00
C1636  C     0.97552   0.68771   0.72327   0.00000  Uiso   1.00
C1637  C     0.68987   0.97886   0.77850   0.00000  Uiso   1.00
C1638  C     0.97732   0.97779   0.72372   0.00000  Uiso   1.00
Cu1639 Cu    0.71355   0.83334   0.75000   0.00000  Uiso   1.00
Cu1640 Cu    0.95311   0.83333   0.75000   0.00000  Uiso   1.00
H1641  H     0.93618   0.84188   0.54131   0.00000  Uiso   1.00
H1642  H     0.96070   0.78435   0.63447   0.00000  Uiso   1.00
H1643  H     0.96064   0.78936   0.57716   0.00000  Uiso   1.00
H1644  H     0.75189   0.77186   0.87873   0.00000  Uiso   1.00
H1645  H     0.69216   0.75870   0.87525   0.00000  Uiso   1.00
H1646  H     0.70311   0.76715   0.92914   0.00000  Uiso   1.00
H1647  H     0.83252   0.92684   0.57993   0.00000  Uiso   1.00
H1648  H     0.89831   0.92055   0.56699   0.00000  Uiso   1.00
H1649  H     0.86117   0.92065   0.62331   0.00000  Uiso   1.00
H1650  H     0.86928   0.93135   0.92059   0.00000  Uiso   1.00
H1651  H     0.80710   0.94825   0.92765   0.00000  Uiso   1.00
H1652  H     0.73287   0.88738   0.96329   0.00000  Uiso   1.00
H1653  H     0.84692   0.93789   0.87327   0.00000  Uiso   1.00
H1654  H     0.89380   0.71332   0.67489   0.00000  Uiso   1.00
H1655  H     0.89084   0.67485   0.71704   0.00000  Uiso   1.00
H1656  H     0.92767   0.66708   0.65938   0.00000  Uiso   1.00
H1657  H     0.76979   0.99533   0.79809   0.00000  Uiso   1.00
H1658  H     0.76088   0.95620   0.84049   0.00000  Uiso   1.00
H1659  H     0.72160   0.99963   0.85122   0.00000  Uiso   1.00
H1660  H     0.84884   0.72943   0.76547   0.00000  Uiso   1.00
H1661  H     0.81247   0.73198   0.82369   0.00000  Uiso   1.00
H1662  H     0.87435   0.71588   0.80928   0.00000  Uiso   1.00
H1663  H     0.99839   0.82632   0.97510   0.00000  Uiso   1.00
H1664  H     0.84796   0.94036   0.69935   0.00000  Uiso   1.00
H1665  H     0.79683   0.93365   0.74935   0.00000  Uiso   1.00
H1666  H     0.78758   0.95225   0.69851   0.00000  Uiso   1.00
H1667  H     0.77353   0.78425   0.79648   0.00000  Uiso   1.00
H1668  H     0.89304   0.88218   0.70298   0.00000  Uiso   1.00
H1669  H     0.66812   0.87735   0.53137   0.00000  Uiso   1.00
H1670  H     0.96182   0.95973   0.70211   0.00000  Uiso   1.00
H1671  H     0.70463   0.70740   0.79841   0.00000  Uiso   1.00
H1672  H     0.78387   0.82915   0.60962   0.00000  Uiso   1.00
H1673  H     0.88224   0.84215   0.88721   0.00000  Uiso   1.00
H1674  H     0.90674   0.79987   0.62163   0.00000  Uiso   1.00
N1675  N     0.78403   0.83334   0.74999   0.00000  Uiso   1.00
N1676  N     0.88264   0.83332   0.75001   0.00000  Uiso   1.00
O1677  O     0.70625   0.77322   0.75000   0.00000  Uiso   1.00
O1678  O     0.70448   0.82009   0.88961   0.00000  Uiso   1.00
O1679  O     0.85481   0.86742   0.59000   0.00000  Uiso   1.00
O1680  O     0.82034   0.88611   0.91144   0.00000  Uiso   1.00
O1681  O     0.95583   0.71011   0.69461   0.00000  Uiso   1.00
O1682  O     0.70888   0.95587   0.80738   0.00000  Uiso   1.00
O1683  O     0.86546   0.77836   0.80306   0.00000  Uiso   1.00
O1684  O     0.80152   0.89008   0.69897   0.00000  Uiso   1.00
O1685  O     0.96042   0.89345   0.75000   0.00000  Uiso   1.00
O1686  O     0.96039   0.77321   0.75001   0.00000  Uiso   1.00
O1687  O     0.70628   0.89346   0.75000   0.00000  Uiso   1.00
O1688  O     0.68519   0.83334   0.81492   0.00000  Uiso   1.00
O1689  O     0.98148   0.83332   0.68509   0.00000  Uiso   1.00
O1690  O     0.93933   0.83333   0.81492   0.00000  Uiso   1.00
O1691  O     0.72733   0.83333   0.68508   0.00000  Uiso   1.00
O1692  O     0.95987   0.84549   0.61115   0.00000  Uiso   1.00
loop_
_geom_bond_atom_site_label_1
_geom_bond_atom_site_label_2
_geom_bond_distance
_geom_bond_site_symmetry_2
_ccdc_geom_bond_type
C1     O88     1.294   .     A
C1     C4      1.444   .     S
C1     O173    1.294   .     S
C2     H73     1.082   .     S
C2     C192    1.399   1_455 S
C2     C603    1.404   1_545 S
C3     C12     1.445   .     S
C3     C39     1.406   .     A
C3     C228    1.398   1_455 S
C4     C38     1.404   .     A
C4     C96     1.399   .     S
C5     O85     1.388   .     S
C5     C7      1.434   .     A
C5     N78     1.373   .     A
C6     N77     1.373   .     A
C6     C8      1.428   .     A
C6     O86     1.383   .     S
C7     N77     1.365   .     A
C7     H69     1.080   .     S
C8     N78     1.364   .     A
C8     H70     1.081   .     S
C9     O92     1.301   .     A
C9     C11     1.470   .     S
C9     O184    1.300   .     S
C10    O93     1.305   .     A
C10    C13     1.477   .     S
C10    O279    1.299   1_455 S
C11    C18     1.406   .     A
C11    C16     1.409   .     A
C12    O89     1.294   .     A
C12    O275    1.294   1_455 S
C13    C19     1.398   .     A
C13    C17     1.411   .     A
C14    C16     1.390   .     A
C14    C22     1.398   .     A
C14    H65     1.083   .     S
C15    C24     1.397   .     A
C15    H71     1.078   .     S
C15    C17     1.400   .     A
C16    O174    1.383   .     S
C17    O282    1.383   1_455 S
C18    H75     1.074   .     S
C18    C20     1.406   .     A
C19    C21     1.409   .     A
C19    H74     1.078   .     S
C20    C25     1.433   .     A
C20    C22     1.414   .     A
C21    C26     1.416   .     A
C21    C24     1.408   .     A
C22    C882    1.380   .     S
C23    C26     1.413   .     A
C23    O81     1.382   .     S
C23    C36     1.378   .     A
C24    C883    1.395   1_554 S
C25    C34     1.428   .     A
C25    C872    1.427   .     S
C26    C871    1.427   1_554 S
C27    H44     1.110   .     S
C27    H45     1.114   .     S
C27    H76     1.109   .     S
C27    O94     1.418   .     S
C28    H47     1.113   .     S
C28    H46     1.108   .     S
C28    H48     1.113   .     S
C28    O80     1.410   .     S
C29    H49     1.113   .     S
C29    H50     1.115   .     S
C29    O81     1.411   .     S
C29    H51     1.104   .     S
C30    H53     1.113   .     S
C30    O82     1.410   .     S
C30    H52     1.113   .     S
C30    H55     1.109   .     S
C31    H58     1.111   .     S
C31    O83     1.412   .     S
C31    H56     1.109   .     S
C31    H57     1.114   .     S
C32    H61     1.111   .     S
C32    O84     1.412   .     S
C32    H60     1.109   .     S
C32    H59     1.113   .     S
C33    O85     1.413   .     S
C33    H62     1.114   .     S
C33    H63     1.110   .     S
C33    H64     1.110   .     S
C34    C37     1.396   .     A
C34    O82     1.381   .     S
C35    O86     1.413   .     S
C35    H67     1.112   .     S
C35    H66     1.110   .     S
C35    H68     1.109   .     S
C36    H43     1.063   .     S
C36    C868    1.380   1_554 S
C37    H54     1.085   .     S
C37    C870    1.395   .     S
C38    O83     1.396   .     S
C38    C604    1.400   1_545 S
C39    O84     1.400   .     S
C39    C284    1.404   .     S
C40    H72     1.083   .     S
C40    C97     1.398   .     S
C40    C320    1.400   .     S
Cu41   O89     1.957   .     S
Cu41   N77     2.024   .     S
Cu41   O93     1.958   .     S
Cu41   O90     1.960   .     S
Cu41   O79     1.951   .     S
Cu41   Cu230   2.694   1_455 S
Cu42   O91     1.960   .     S
Cu42   O92     1.958   .     S
Cu42   N78     2.024   .     S
Cu42   O88     1.957   .     S
Cu42   O87     1.951   .     S
Cu42   Cu135   2.694   .     S
O79    C189    1.294   1_455 S
O80    C204    1.383   1_455 S
O87    C106    1.294   .     S
O90    C197    1.300   1_455 S
O91    C104    1.299   .     S
O94    C111    1.383   .     S
C95    O182    1.294   .     A
C95    C98     1.444   .     S
C95    O267    1.294   .     S
C96    H167    1.082   .     S
C96    C697    1.404   1_545 S
C97    C106    1.445   .     S
C97    C133    1.406   .     A
C98    C132    1.404   .     A
C98    C190    1.399   .     S
C99    O179    1.388   .     S
C99    C101    1.434   .     A
C99    N172    1.373   .     A
C100   N171    1.373   .     A
C100   C102    1.428   .     A
C100   O180    1.383   .     S
C101   N171    1.365   .     A
C101   H163    1.080   .     S
C102   N172    1.364   .     A
C102   H164    1.081   .     S
C103   O186    1.301   .     A
C103   C105    1.470   .     S
C103   O278    1.300   .     S
C104   O187    1.305   .     A
C104   C107    1.477   .     S
C105   C112    1.406   .     A
C105   C110    1.409   .     A
C106   O183    1.294   .     A
C107   C113    1.398   .     A
C107   C111    1.411   .     A
C108   C110    1.390   .     A
C108   C116    1.398   .     A
C108   H159    1.083   .     S
C109   C118    1.397   .     A
C109   H165    1.078   .     S
C109   C111    1.400   .     A
C110   O268    1.383   .     S
C112   H169    1.074   .     S
C112   C114    1.406   .     A
C113   C115    1.409   .     A
C113   H168    1.078   .     S
C114   C119    1.433   .     A
C114   C116    1.414   .     A
C115   C120    1.416   .     A
C115   C118    1.408   .     A
C116   C976    1.380   .     S
C117   C120    1.413   .     A
C117   O175    1.382   .     S
C117   C130    1.378   .     A
C118   C977    1.395   1_554 S
C119   C128    1.428   .     A
C119   C966    1.427   .     S
C120   C965    1.427   1_554 S
C121   H138    1.110   .     S
C121   H139    1.114   .     S
C121   H170    1.109   .     S
C121   O188    1.418   .     S
C122   H141    1.113   .     S
C122   H140    1.108   .     S
C122   H142    1.113   .     S
C122   O174    1.410   .     S
C123   H143    1.113   .     S
C123   H144    1.115   .     S
C123   O175    1.411   .     S
C123   H145    1.104   .     S
C124   H147    1.113   .     S
C124   O176    1.410   .     S
C124   H146    1.113   .     S
C124   H149    1.109   .     S
C125   H152    1.111   .     S
C125   O177    1.412   .     S
C125   H150    1.109   .     S
C125   H151    1.114   .     S
C126   H155    1.111   .     S
C126   O178    1.412   .     S
C126   H154    1.109   .     S
C126   H153    1.113   .     S
C127   O179    1.413   .     S
C127   H156    1.114   .     S
C127   H157    1.110   .     S
C127   H158    1.110   .     S
C128   C131    1.396   .     A
C128   O176    1.381   .     S
C129   O180    1.413   .     S
C129   H161    1.112   .     S
C129   H160    1.110   .     S
C129   H162    1.109   .     S
C130   H137    1.063   .     S
C130   C962    1.380   1_554 S
C131   H148    1.085   .     S
C131   C964    1.395   .     S
C132   O177    1.396   .     S
C132   C698    1.400   1_545 S
C133   O178    1.400   .     S
C133   C378    1.404   .     S
C134   H166    1.083   .     S
C134   C191    1.398   .     S
C134   C414    1.400   .     S
Cu135  O183    1.957   .     S
Cu135  N171    2.024   .     S
Cu135  O187    1.958   .     S
Cu135  O184    1.960   .     S
Cu135  O173    1.951   .     S
Cu136  O185    1.960   .     S
Cu136  O186    1.958   .     S
Cu136  N172    2.024   .     S
Cu136  O182    1.957   .     S
Cu136  O181    1.951   .     S
Cu136  Cu229   2.694   .     S
O181   C200    1.294   .     S
O185   C198    1.299   .     S
O188   C205    1.383   .     S
C189   O276    1.294   .     A
C189   C192    1.444   .     S
C189   O79     1.294   1_655 S
C190   H261    1.082   .     S
C190   C791    1.404   1_545 S
C191   C200    1.445   .     S
C191   C227    1.406   .     A
C192   C226    1.404   .     A
C192   C2      1.399   1_655 S
C193   O273    1.388   .     S
C193   C195    1.434   .     A
C193   N266    1.373   .     A
C194   N265    1.373   .     A
C194   C196    1.428   .     A
C194   O274    1.383   .     S
C195   N265    1.365   .     A
C195   H257    1.080   .     S
C196   N266    1.364   .     A
C196   H258    1.081   .     S
C197   O280    1.301   .     A
C197   C199    1.470   .     S
C197   O90     1.300   1_655 S
C198   O281    1.305   .     A
C198   C201    1.477   .     S
C199   C206    1.406   .     A
C199   C204    1.409   .     A
C200   O277    1.294   .     A
C201   C207    1.398   .     A
C201   C205    1.411   .     A
C202   C204    1.390   .     A
C202   C210    1.398   .     A
C202   H253    1.083   .     S
C203   C212    1.397   .     A
C203   H259    1.078   .     S
C203   C205    1.400   .     A
C204   O80     1.383   1_655 S
C206   H263    1.074   .     S
C206   C208    1.406   .     A
C207   C209    1.409   .     A
C207   H262    1.078   .     S
C208   C213    1.433   .     A
C208   C210    1.414   .     A
C209   C214    1.416   .     A
C209   C212    1.408   .     A
C210   C1070   1.380   .     S
C211   C214    1.413   .     A
C211   O269    1.382   .     S
C211   C224    1.378   .     A
C212   C1071   1.395   1_554 S
C213   C222    1.428   .     A
C213   C1060   1.427   .     S
C214   C1059   1.427   1_554 S
C215   H232    1.110   .     S
C215   H233    1.114   .     S
C215   H264    1.109   .     S
C215   O282    1.418   .     S
C216   H235    1.113   .     S
C216   H234    1.108   .     S
C216   H236    1.113   .     S
C216   O268    1.410   .     S
C217   H237    1.113   .     S
C217   H238    1.115   .     S
C217   O269    1.411   .     S
C217   H239    1.104   .     S
C218   H241    1.113   .     S
C218   O270    1.410   .     S
C218   H240    1.113   .     S
C218   H243    1.109   .     S
C219   H246    1.111   .     S
C219   O271    1.412   .     S
C219   H244    1.109   .     S
C219   H245    1.114   .     S
C220   H249    1.111   .     S
C220   O272    1.412   .     S
C220   H248    1.109   .     S
C220   H247    1.113   .     S
C221   O273    1.413   .     S
C221   H250    1.114   .     S
C221   H251    1.110   .     S
C221   H252    1.110   .     S
C222   C225    1.396   .     A
C222   O270    1.381   .     S
C223   O274    1.413   .     S
C223   H255    1.112   .     S
C223   H254    1.110   .     S
C223   H256    1.109   .     S
C224   H231    1.063   .     S
C224   C1056   1.380   1_554 S
C225   H242    1.085   .     S
C225   C1058   1.395   .     S
C226   O271    1.396   .     S
C226   C792    1.400   1_545 S
C227   O272    1.400   .     S
C227   C472    1.404   .     S
C228   H260    1.083   .     S
C228   C3      1.398   1_655 S
C228   C508    1.400   .     S
Cu229  O277    1.957   .     S
Cu229  N265    2.024   .     S
Cu229  O281    1.958   .     S
Cu229  O278    1.960   .     S
Cu229  O267    1.951   .     S
Cu230  O279    1.960   .     S
Cu230  O280    1.958   .     S
Cu230  N266    2.024   .     S
Cu230  O276    1.957   .     S
Cu230  O275    1.951   .     S
Cu230  Cu41    2.694   1_655 S
O275   C12     1.294   1_655 S
O279   C10     1.299   1_655 S
O282   C17     1.383   1_655 S
C283   O370    1.294   .     A
C283   C286    1.444   .     S
C283   O455    1.294   .     S
C284   H355    1.082   .     S
C284   C474    1.399   1_455 S
C285   C294    1.445   .     S
C285   C321    1.406   .     A
C285   C510    1.398   1_455 S
C286   C320    1.404   .     A
C286   C378    1.399   .     S
C287   O367    1.388   .     S
C287   C289    1.434   .     A
C287   N360    1.373   .     A
C288   N359    1.373   .     A
C288   C290    1.428   .     A
C288   O368    1.383   .     S
C289   N359    1.365   .     A
C289   H351    1.080   .     S
C290   N360    1.364   .     A
C290   H352    1.081   .     S
C291   O374    1.301   .     A
C291   C293    1.470   .     S
C291   O466    1.300   .     S
C292   O375    1.305   .     A
C292   C295    1.477   .     S
C292   O561    1.299   1_455 S
C293   C300    1.406   .     A
C293   C298    1.409   .     A
C294   O371    1.294   .     A
C294   O557    1.294   1_455 S
C295   C301    1.398   .     A
C295   C299    1.411   .     A
C296   C298    1.390   .     A
C296   C304    1.398   .     A
C296   H347    1.083   .     S
C297   C306    1.397   .     A
C297   H353    1.078   .     S
C297   C299    1.400   .     A
C298   O456    1.383   .     S
C299   O564    1.383   1_455 S
C300   H357    1.074   .     S
C300   C302    1.406   .     A
C301   C303    1.409   .     A
C301   H356    1.078   .     S
C302   C307    1.433   .     A
C302   C304    1.414   .     A
C303   C308    1.416   .     A
C303   C306    1.408   .     A
C304   C1164   1.380   .     S
C305   C308    1.413   .     A
C305   O363    1.382   .     S
C305   C318    1.378   .     A
C306   C1165   1.395   1_554 S
C307   C316    1.428   .     A
C307   C1154   1.427   .     S
C308   C1153   1.427   1_554 S
C309   H326    1.110   .     S
C309   H327    1.114   .     S
C309   H358    1.109   .     S
C309   O376    1.418   .     S
C310   H329    1.113   .     S
C310   H328    1.108   .     S
C310   H330    1.113   .     S
C310   O362    1.410   .     S
C311   H331    1.113   .     S
C311   H332    1.115   .     S
C311   O363    1.411   .     S
C311   H333    1.104   .     S
C312   H335    1.113   .     S
C312   O364    1.410   .     S
C312   H334    1.113   .     S
C312   H337    1.109   .     S
C313   H340    1.111   .     S
C313   O365    1.412   .     S
C313   H338    1.109   .     S
C313   H339    1.114   .     S
C314   H343    1.111   .     S
C314   O366    1.412   .     S
C314   H342    1.109   .     S
C314   H341    1.113   .     S
C315   O367    1.413   .     S
C315   H344    1.114   .     S
C315   H345    1.110   .     S
C315   H346    1.110   .     S
C316   C319    1.396   .     A
C316   O364    1.381   .     S
C317   O368    1.413   .     S
C317   H349    1.112   .     S
C317   H348    1.110   .     S
C317   H350    1.109   .     S
C318   H325    1.063   .     S
C318   C1150   1.380   1_554 S
C319   H336    1.085   .     S
C319   C1152   1.395   .     S
C320   O365    1.396   .     S
C321   O366    1.400   .     S
C321   C566    1.404   .     S
C322   H354    1.083   .     S
C322   C379    1.398   .     S
C322   C602    1.400   .     S
Cu323  O371    1.957   .     S
Cu323  N359    2.024   .     S
Cu323  O375    1.958   .     S
Cu323  O372    1.960   .     S
Cu323  O361    1.951   .     S
Cu323  Cu512   2.694   1_455 S
Cu324  O373    1.960   .     S
Cu324  O374    1.958   .     S
Cu324  N360    2.024   .     S
Cu324  O370    1.957   .     S
Cu324  O369    1.951   .     S
Cu324  Cu417   2.694   .     S
O361   C471    1.294   1_455 S
O362   C486    1.383   1_455 S
O369   C388    1.294   .     S
O372   C479    1.300   1_455 S
O373   C386    1.299   .     S
O376   C393    1.383   .     S
C377   O464    1.294   .     A
C377   C380    1.444   .     S
C377   O549    1.294   .     S
C378   H449    1.082   .     S
C379   C388    1.445   .     S
C379   C415    1.406   .     A
C380   C414    1.404   .     A
C380   C472    1.399   .     S
C381   O461    1.388   .     S
C381   C383    1.434   .     A
C381   N454    1.373   .     A
C382   N453    1.373   .     A
C382   C384    1.428   .     A
C382   O462    1.383   .     S
C383   N453    1.365   .     A
C383   H445    1.080   .     S
C384   N454    1.364   .     A
C384   H446    1.081   .     S
C385   O468    1.301   .     A
C385   C387    1.470   .     S
C385   O560    1.300   .     S
C386   O469    1.305   .     A
C386   C389    1.477   .     S
C387   C394    1.406   .     A
C387   C392    1.409   .     A
C388   O465    1.294   .     A
C389   C395    1.398   .     A
C389   C393    1.411   .     A
C390   C392    1.390   .     A
C390   C398    1.398   .     A
C390   H441    1.083   .     S
C391   C400    1.397   .     A
C391   H447    1.078   .     S
C391   C393    1.400   .     A
C392   O550    1.383   .     S
C394   H451    1.074   .     S
C394   C396    1.406   .     A
C395   C397    1.409   .     A
C395   H450    1.078   .     S
C396   C401    1.433   .     A
C396   C398    1.414   .     A
C397   C402    1.416   .     A
C397   C400    1.408   .     A
C398   C1258   1.380   .     S
C399   C402    1.413   .     A
C399   O457    1.382   .     S
C399   C412    1.378   .     A
C400   C1259   1.395   1_554 S
C401   C410    1.428   .     A
C401   C1248   1.427   .     S
C402   C1247   1.427   1_554 S
C403   H420    1.110   .     S
C403   H421    1.114   .     S
C403   H452    1.109   .     S
C403   O470    1.418   .     S
C404   H423    1.113   .     S
C404   H422    1.108   .     S
C404   H424    1.113   .     S
C404   O456    1.410   .     S
C405   H425    1.113   .     S
C405   H426    1.115   .     S
C405   O457    1.411   .     S
C405   H427    1.104   .     S
C406   H429    1.113   .     S
C406   O458    1.410   .     S
C406   H428    1.113   .     S
C406   H431    1.109   .     S
C407   H434    1.111   .     S
C407   O459    1.412   .     S
C407   H432    1.109   .     S
C407   H433    1.114   .     S
C408   H437    1.111   .     S
C408   O460    1.412   .     S
C408   H436    1.109   .     S
C408   H435    1.113   .     S
C409   O461    1.413   .     S
C409   H438    1.114   .     S
C409   H439    1.110   .     S
C409   H440    1.110   .     S
C410   C413    1.396   .     A
C410   O458    1.381   .     S
C411   O462    1.413   .     S
C411   H443    1.112   .     S
C411   H442    1.110   .     S
C411   H444    1.109   .     S
C412   H419    1.063   .     S
C412   C1244   1.380   1_554 S
C413   H430    1.085   .     S
C413   C1246   1.395   .     S
C414   O459    1.396   .     S
C415   O460    1.400   .     S
C415   C660    1.404   .     S
C416   H448    1.083   .     S
C416   C473    1.398   .     S
C416   C696    1.400   .     S
Cu417  O465    1.957   .     S
Cu417  N453    2.024   .     S
Cu417  O469    1.958   .     S
Cu417  O466    1.960   .     S
Cu417  O455    1.951   .     S
Cu418  O467    1.960   .     S
Cu418  O468    1.958   .     S
Cu418  N454    2.024   .     S
Cu418  O464    1.957   .     S
Cu418  O463    1.951   .     S
Cu418  Cu511   2.694   .     S
O463   C482    1.294   .     S
O467   C480    1.299   .     S
O470   C487    1.383   .     S
C471   O558    1.294   .     A
C471   C474    1.444   .     S
C471   O361    1.294   1_655 S
C472   H543    1.082   .     S
C473   C482    1.445   .     S
C473   C509    1.406   .     A
C474   C508    1.404   .     A
C474   C284    1.399   1_655 S
C475   O555    1.388   .     S
C475   C477    1.434   .     A
C475   N548    1.373   .     A
C476   N547    1.373   .     A
C476   C478    1.428   .     A
C476   O556    1.383   .     S
C477   N547    1.365   .     A
C477   H539    1.080   .     S
C478   N548    1.364   .     A
C478   H540    1.081   .     S
C479   O562    1.301   .     A
C479   C481    1.470   .     S
C479   O372    1.300   1_655 S
C480   O563    1.305   .     A
C480   C483    1.477   .     S
C481   C488    1.406   .     A
C481   C486    1.409   .     A
C482   O559    1.294   .     A
C483   C489    1.398   .     A
C483   C487    1.411   .     A
C484   C486    1.390   .     A
C484   C492    1.398   .     A
C484   H535    1.083   .     S
C485   C494    1.397   .     A
C485   H541    1.078   .     S
C485   C487    1.400   .     A
C486   O362    1.383   1_655 S
C488   H545    1.074   .     S
C488   C490    1.406   .     A
C489   C491    1.409   .     A
C489   H544    1.078   .     S
C490   C495    1.433   .     A
C490   C492    1.414   .     A
C491   C496    1.416   .     A
C491   C494    1.408   .     A
C492   C1352   1.380   .     S
C493   C496    1.413   .     A
C493   O551    1.382   .     S
C493   C506    1.378   .     A
C494   C1353   1.395   1_554 S
C495   C504    1.428   .     A
C495   C1342   1.427   .     S
C496   C1341   1.427   1_554 S
C497   H514    1.110   .     S
C497   H515    1.114   .     S
C497   H546    1.109   .     S
C497   O564    1.418   .     S
C498   H517    1.113   .     S
C498   H516    1.108   .     S
C498   H518    1.113   .     S
C498   O550    1.410   .     S
C499   H519    1.113   .     S
C499   H520    1.115   .     S
C499   O551    1.411   .     S
C499   H521    1.104   .     S
C500   H523    1.113   .     S
C500   O552    1.410   .     S
C500   H522    1.113   .     S
C500   H525    1.109   .     S
C501   H528    1.111   .     S
C501   O553    1.412   .     S
C501   H526    1.109   .     S
C501   H527    1.114   .     S
C502   H531    1.111   .     S
C502   O554    1.412   .     S
C502   H530    1.109   .     S
C502   H529    1.113   .     S
C503   O555    1.413   .     S
C503   H532    1.114   .     S
C503   H533    1.110   .     S
C503   H534    1.110   .     S
C504   C507    1.396   .     A
C504   O552    1.381   .     S
C505   O556    1.413   .     S
C505   H537    1.112   .     S
C505   H536    1.110   .     S
C505   H538    1.109   .     S
C506   H513    1.063   .     S
C506   C1338   1.380   1_554 S
C507   H524    1.085   .     S
C507   C1340   1.395   .     S
C508   O553    1.396   .     S
C509   O554    1.400   .     S
C509   C754    1.404   .     S
C510   H542    1.083   .     S
C510   C285    1.398   1_655 S
C510   C790    1.400   .     S
Cu511  O559    1.957   .     S
Cu511  N547    2.024   .     S
Cu511  O563    1.958   .     S
Cu511  O560    1.960   .     S
Cu511  O549    1.951   .     S
Cu512  O561    1.960   .     S
Cu512  O562    1.958   .     S
Cu512  N548    2.024   .     S
Cu512  O558    1.957   .     S
Cu512  O557    1.951   .     S
Cu512  Cu323   2.694   1_655 S
O557   C294    1.294   1_655 S
O561   C292    1.299   1_655 S
O564   C299    1.383   1_655 S
C565   O652    1.294   .     A
C565   C568    1.444   .     S
C565   O737    1.294   .     S
C566   H637    1.082   .     S
C566   C756    1.399   1_455 S
C567   C576    1.445   .     S
C567   C603    1.406   .     A
C567   C792    1.398   1_455 S
C568   C602    1.404   .     A
C568   C660    1.399   .     S
C569   O649    1.388   .     S
C569   C571    1.434   .     A
C569   N642    1.373   .     A
C570   N641    1.373   .     A
C570   C572    1.428   .     A
C570   O650    1.383   .     S
C571   N641    1.365   .     A
C571   H633    1.080   .     S
C572   N642    1.364   .     A
C572   H634    1.081   .     S
C573   O656    1.301   .     A
C573   C575    1.470   .     S
C573   O748    1.300   .     S
C574   O657    1.305   .     A
C574   C577    1.477   .     S
C574   O843    1.299   1_455 S
C575   C582    1.406   .     A
C575   C580    1.409   .     A
C576   O653    1.294   .     A
C576   O839    1.294   1_455 S
C577   C583    1.398   .     A
C577   C581    1.411   .     A
C578   C580    1.390   .     A
C578   C586    1.398   .     A
C578   H629    1.083   .     S
C579   C588    1.397   .     A
C579   H635    1.078   .     S
C579   C581    1.400   .     A
C580   O738    1.383   .     S
C581   O846    1.383   1_455 S
C582   H639    1.074   .     S
C582   C584    1.406   .     A
C583   C585    1.409   .     A
C583   H638    1.078   .     S
C584   C589    1.433   .     A
C584   C586    1.414   .     A
C585   C590    1.416   .     A
C585   C588    1.408   .     A
C586   C1446   1.380   .     S
C587   C590    1.413   .     A
C587   O645    1.382   .     S
C587   C600    1.378   .     A
C588   C1447   1.395   1_554 S
C589   C598    1.428   .     A
C589   C1436   1.427   .     S
C590   C1435   1.427   1_554 S
C591   H608    1.110   .     S
C591   H609    1.114   .     S
C591   H640    1.109   .     S
C591   O658    1.418   .     S
C592   H611    1.113   .     S
C592   H610    1.108   .     S
C592   H612    1.113   .     S
C592   O644    1.410   .     S
C593   H613    1.113   .     S
C593   H614    1.115   .     S
C593   O645    1.411   .     S
C593   H615    1.104   .     S
C594   H617    1.113   .     S
C594   O646    1.410   .     S
C594   H616    1.113   .     S
C594   H619    1.109   .     S
C595   H622    1.111   .     S
C595   O647    1.412   .     S
C595   H620    1.109   .     S
C595   H621    1.114   .     S
C596   H625    1.111   .     S
C596   O648    1.412   .     S
C596   H624    1.109   .     S
C596   H623    1.113   .     S
C597   O649    1.413   .     S
C597   H626    1.114   .     S
C597   H627    1.110   .     S
C597   H628    1.110   .     S
C598   C601    1.396   .     A
C598   O646    1.381   .     S
C599   O650    1.413   .     S
C599   H631    1.112   .     S
C599   H630    1.110   .     S
C599   H632    1.109   .     S
C600   H607    1.063   .     S
C600   C1432   1.380   1_554 S
C601   H618    1.085   .     S
C601   C1434   1.395   .     S
C602   O647    1.396   .     S
C603   O648    1.400   .     S
C603   C2      1.404   1_565 S
C604   H636    1.083   .     S
C604   C661    1.398   .     S
C604   C38     1.400   1_565 S
Cu605  O653    1.957   .     S
Cu605  N641    2.024   .     S
Cu605  O657    1.958   .     S
Cu605  O654    1.960   .     S
Cu605  O643    1.951   .     S
Cu605  Cu794   2.694   1_455 S
Cu606  O655    1.960   .     S
Cu606  O656    1.958   .     S
Cu606  N642    2.024   .     S
Cu606  O652    1.957   .     S
Cu606  O651    1.951   .     S
Cu606  Cu699   2.694   .     S
O643   C753    1.294   1_455 S
O644   C768    1.383   1_455 S
O651   C670    1.294   .     S
O654   C761    1.300   1_455 S
O655   C668    1.299   .     S
O658   C675    1.383   .     S
C659   O746    1.294   .     A
C659   C662    1.444   .     S
C659   O831    1.294   .     S
C660   H731    1.082   .     S
C661   C670    1.445   .     S
C661   C697    1.406   .     A
C662   C696    1.404   .     A
C662   C754    1.399   .     S
C663   O743    1.388   .     S
C663   C665    1.434   .     A
C663   N736    1.373   .     A
C664   N735    1.373   .     A
C664   C666    1.428   .     A
C664   O744    1.383   .     S
C665   N735    1.365   .     A
C665   H727    1.080   .     S
C666   N736    1.364   .     A
C666   H728    1.081   .     S
C667   O750    1.301   .     A
C667   C669    1.470   .     S
C667   O842    1.300   .     S
C668   O751    1.305   .     A
C668   C671    1.477   .     S
C669   C676    1.406   .     A
C669   C674    1.409   .     A
C670   O747    1.294   .     A
C671   C677    1.398   .     A
C671   C675    1.411   .     A
C672   C674    1.390   .     A
C672   C680    1.398   .     A
C672   H723    1.083   .     S
C673   C682    1.397   .     A
C673   H729    1.078   .     S
C673   C675    1.400   .     A
C674   O832    1.383   .     S
C676   H733    1.074   .     S
C676   C678    1.406   .     A
C677   C679    1.409   .     A
C677   H732    1.078   .     S
C678   C683    1.433   .     A
C678   C680    1.414   .     A
C679   C684    1.416   .     A
C679   C682    1.408   .     A
C680   C1540   1.380   .     S
C681   C684    1.413   .     A
C681   O739    1.382   .     S
C681   C694    1.378   .     A
C682   C1541   1.395   1_554 S
C683   C692    1.428   .     A
C683   C1530   1.427   .     S
C684   C1529   1.427   1_554 S
C685   H702    1.110   .     S
C685   H703    1.114   .     S
C685   H734    1.109   .     S
C685   O752    1.418   .     S
C686   H705    1.113   .     S
C686   H704    1.108   .     S
C686   H706    1.113   .     S
C686   O738    1.410   .     S
C687   H707    1.113   .     S
C687   H708    1.115   .     S
C687   O739    1.411   .     S
C687   H709    1.104   .     S
C688   H711    1.113   .     S
C688   O740    1.410   .     S
C688   H710    1.113   .     S
C688   H713    1.109   .     S
C689   H716    1.111   .     S
C689   O741    1.412   .     S
C689   H714    1.109   .     S
C689   H715    1.114   .     S
C690   H719    1.111   .     S
C690   O742    1.412   .     S
C690   H718    1.109   .     S
C690   H717    1.113   .     S
C691   O743    1.413   .     S
C691   H720    1.114   .     S
C691   H721    1.110   .     S
C691   H722    1.110   .     S
C692   C695    1.396   .     A
C692   O740    1.381   .     S
C693   O744    1.413   .     S
C693   H725    1.112   .     S
C693   H724    1.110   .     S
C693   H726    1.109   .     S
C694   H701    1.063   .     S
C694   C1526   1.380   1_554 S
C695   H712    1.085   .     S
C695   C1528   1.395   .     S
C696   O741    1.396   .     S
C697   O742    1.400   .     S
C697   C96     1.404   1_565 S
C698   H730    1.083   .     S
C698   C755    1.398   .     S
C698   C132    1.400   1_565 S
Cu699  O747    1.957   .     S
Cu699  N735    2.024   .     S
Cu699  O751    1.958   .     S
Cu699  O748    1.960   .     S
Cu699  O737    1.951   .     S
Cu700  O749    1.960   .     S
Cu700  O750    1.958   .     S
Cu700  N736    2.024   .     S
Cu700  O746    1.957   .     S
Cu700  O745    1.951   .     S
Cu700  Cu793   2.694   .     S
O745   C764    1.294   .     S
O749   C762    1.299   .     S
O752   C769    1.383   .     S
C753   O840    1.294   .     A
C753   C756    1.444   .     S
C753   O643    1.294   1_655 S
C754   H825    1.082   .     S
C755   C764    1.445   .     S
C755   C791    1.406   .     A
C756   C790    1.404   .     A
C756   C566    1.399   1_655 S
C757   O837    1.388   .     S
C757   C759    1.434   .     A
C757   N830    1.373   .     A
C758   N829    1.373   .     A
C758   C760    1.428   .     A
C758   O838    1.383   .     S
C759   N829    1.365   .     A
C759   H821    1.080   .     S
C760   N830    1.364   .     A
C760   H822    1.081   .     S
C761   O844    1.301   .     A
C761   C763    1.470   .     S
C761   O654    1.300   1_655 S
C762   O845    1.305   .     A
C762   C765    1.477   .     S
C763   C770    1.406   .     A
C763   C768    1.409   .     A
C764   O841    1.294   .     A
C765   C771    1.398   .     A
C765   C769    1.411   .     A
C766   C768    1.390   .     A
C766   C774    1.398   .     A
C766   H817    1.083   .     S
C767   C776    1.397   .     A
C767   H823    1.078   .     S
C767   C769    1.400   .     A
C768   O644    1.383   1_655 S
C770   H827    1.074   .     S
C770   C772    1.406   .     A
C771   C773    1.409   .     A
C771   H826    1.078   .     S
C772   C777    1.433   .     A
C772   C774    1.414   .     A
C773   C778    1.416   .     A
C773   C776    1.408   .     A
C774   C1634   1.380   .     S
C775   C778    1.413   .     A
C775   O833    1.382   .     S
C775   C788    1.378   .     A
C776   C1635   1.395   1_554 S
C777   C786    1.428   .     A
C777   C1624   1.427   .     S
C778   C1623   1.427   1_554 S
C779   H796    1.110   .     S
C779   H797    1.114   .     S
C779   H828    1.109   .     S
C779   O846    1.418   .     S
C780   H799    1.113   .     S
C780   H798    1.108   .     S
C780   H800    1.113   .     S
C780   O832    1.410   .     S
C781   H801    1.113   .     S
C781   H802    1.115   .     S
C781   O833    1.411   .     S
C781   H803    1.104   .     S
C782   H805    1.113   .     S
C782   O834    1.410   .     S
C782   H804    1.113   .     S
C782   H807    1.109   .     S
C783   H810    1.111   .     S
C783   O835    1.412   .     S
C783   H808    1.109   .     S
C783   H809    1.114   .     S
C784   H813    1.111   .     S
C784   O836    1.412   .     S
C784   H812    1.109   .     S
C784   H811    1.113   .     S
C785   O837    1.413   .     S
C785   H814    1.114   .     S
C785   H815    1.110   .     S
C785   H816    1.110   .     S
C786   C789    1.396   .     A
C786   O834    1.381   .     S
C787   O838    1.413   .     S
C787   H819    1.112   .     S
C787   H818    1.110   .     S
C787   H820    1.109   .     S
C788   H795    1.063   .     S
C788   C1620   1.380   1_554 S
C789   H806    1.085   .     S
C789   C1622   1.395   .     S
C790   O835    1.396   .     S
C791   O836    1.400   .     S
C791   C190    1.404   1_565 S
C792   H824    1.083   .     S
C792   C567    1.398   1_655 S
C792   C226    1.400   1_565 S
Cu793  O841    1.957   .     S
Cu793  N829    2.024   .     S
Cu793  O845    1.958   .     S
Cu793  O842    1.960   .     S
Cu793  O831    1.951   .     S
Cu794  O843    1.960   .     S
Cu794  O844    1.958   .     S
Cu794  N830    2.024   .     S
Cu794  O840    1.957   .     S
Cu794  O839    1.951   .     S
Cu794  Cu605   2.694   1_655 S
O839   C576    1.294   1_655 S
O843   C574    1.299   1_655 S
O846   C581    1.383   1_655 S
C847   O934    1.294   .     A
C847   C850    1.444   .     S
C847   O1019   1.294   .     S
C848   H919    1.082   .     S
C848   C1038   1.399   1_455 S
C848   C1449   1.404   1_545 S
C849   C858    1.445   .     S
C849   C885    1.406   .     A
C849   C1074   1.398   1_455 S
C850   C884    1.404   .     A
C850   C942    1.399   .     S
C851   O931    1.388   .     S
C851   C853    1.434   .     A
C851   N924    1.373   .     A
C852   N923    1.373   .     A
C852   C854    1.428   .     A
C852   O932    1.383   .     S
C853   N923    1.365   .     A
C853   H915    1.080   .     S
C854   N924    1.364   .     A
C854   H916    1.081   .     S
C855   O938    1.301   .     A
C855   C857    1.470   .     S
C855   O1030   1.300   .     S
C856   O939    1.305   .     A
C856   C859    1.477   .     S
C856   O1125   1.299   1_455 S
C857   C864    1.406   .     A
C857   C862    1.409   .     A
C858   O935    1.294   .     A
C858   O1121   1.294   1_455 S
C859   C865    1.398   .     A
C859   C863    1.411   .     A
C860   C862    1.390   .     A
C860   C868    1.398   .     A
C860   H911    1.083   .     S
C861   C870    1.397   .     A
C861   H917    1.078   .     S
C861   C863    1.400   .     A
C862   O1020   1.383   .     S
C863   O1128   1.383   1_455 S
C864   H921    1.074   .     S
C864   C866    1.406   .     A
C865   C867    1.409   .     A
C865   H920    1.078   .     S
C866   C871    1.433   .     A
C866   C868    1.414   .     A
C867   C872    1.416   .     A
C867   C870    1.408   .     A
C868   C36     1.380   1_556 S
C869   C872    1.413   .     A
C869   O927    1.382   .     S
C869   C882    1.378   .     A
C871   C880    1.428   .     A
C871   C26     1.427   1_556 S
C873   H890    1.110   .     S
C873   H891    1.114   .     S
C873   H922    1.109   .     S
C873   O940    1.418   .     S
C874   H893    1.113   .     S
C874   H892    1.108   .     S
C874   H894    1.113   .     S
C874   O926    1.410   .     S
C875   H895    1.113   .     S
C875   H896    1.115   .     S
C875   O927    1.411   .     S
C875   H897    1.104   .     S
C876   H899    1.113   .     S
C876   O928    1.410   .     S
C876   H898    1.113   .     S
C876   H901    1.109   .     S
C877   H904    1.111   .     S
C877   O929    1.412   .     S
C877   H902    1.109   .     S
C877   H903    1.114   .     S
C878   H907    1.111   .     S
C878   O930    1.412   .     S
C878   H906    1.109   .     S
C878   H905    1.113   .     S
C879   O931    1.413   .     S
C879   H908    1.114   .     S
C879   H909    1.110   .     S
C879   H910    1.110   .     S
C880   C883    1.396   .     A
C880   O928    1.381   .     S
C881   O932    1.413   .     S
C881   H913    1.112   .     S
C881   H912    1.110   .     S
C881   H914    1.109   .     S
C882   H889    1.063   .     S
C883   H900    1.085   .     S
C883   C24     1.395   1_556 S
C884   O929    1.396   .     S
C884   C1450   1.400   1_545 S
C885   O930    1.400   .     S
C885   C1130   1.404   .     S
C886   H918    1.083   .     S
C886   C943    1.398   .     S
C886   C1166   1.400   .     S
Cu887  O935    1.957   .     S
Cu887  N923    2.024   .     S
Cu887  O939    1.958   .     S
Cu887  O936    1.960   .     S
Cu887  O925    1.951   .     S
Cu887  Cu1076  2.694   1_455 S
Cu888  O937    1.960   .     S
Cu888  O938    1.958   .     S
Cu888  N924    2.024   .     S
Cu888  O934    1.957   .     S
Cu888  O933    1.951   .     S
Cu888  Cu981   2.694   .     S
O925   C1035   1.294   1_455 S
O926   C1050   1.383   1_455 S
O933   C952    1.294   .     S
O936   C1043   1.300   1_455 S
O937   C950    1.299   .     S
O940   C957    1.383   .     S
C941   O1028   1.294   .     A
C941   C944    1.444   .     S
C941   O1113   1.294   .     S
C942   H1013   1.082   .     S
C942   C1543   1.404   1_545 S
C943   C952    1.445   .     S
C943   C979    1.406   .     A
C944   C978    1.404   .     A
C944   C1036   1.399   .     S
C945   O1025   1.388   .     S
C945   C947    1.434   .     A
C945   N1018   1.373   .     A
C946   N1017   1.373   .     A
C946   C948    1.428   .     A
C946   O1026   1.383   .     S
C947   N1017   1.365   .     A
C947   H1009   1.080   .     S
C948   N1018   1.364   .     A
C948   H1010   1.081   .     S
C949   O1032   1.301   .     A
C949   C951    1.470   .     S
C949   O1124   1.300   .     S
C950   O1033   1.305   .     A
C950   C953    1.477   .     S
C951   C958    1.406   .     A
C951   C956    1.409   .     A
C952   O1029   1.294   .     A
C953   C959    1.398   .     A
C953   C957    1.411   .     A
C954   C956    1.390   .     A
C954   C962    1.398   .     A
C954   H1005   1.083   .     S
C955   C964    1.397   .     A
C955   H1011   1.078   .     S
C955   C957    1.400   .     A
C956   O1114   1.383   .     S
C958   H1015   1.074   .     S
C958   C960    1.406   .     A
C959   C961    1.409   .     A
C959   H1014   1.078   .     S
C960   C965    1.433   .     A
C960   C962    1.414   .     A
C961   C966    1.416   .     A
C961   C964    1.408   .     A
C962   C130    1.380   1_556 S
C963   C966    1.413   .     A
C963   O1021   1.382   .     S
C963   C976    1.378   .     A
C965   C974    1.428   .     A
C965   C120    1.427   1_556 S
C967   H984    1.110   .     S
C967   H985    1.114   .     S
C967   H1016   1.109   .     S
C967   O1034   1.418   .     S
C968   H987    1.113   .     S
C968   H986    1.108   .     S
C968   H988    1.113   .     S
C968   O1020   1.410   .     S
C969   H989    1.113   .     S
C969   H990    1.115   .     S
C969   O1021   1.411   .     S
C969   H991    1.104   .     S
C970   H993    1.113   .     S
C970   O1022   1.410   .     S
C970   H992    1.113   .     S
C970   H995    1.109   .     S
C971   H998    1.111   .     S
C971   O1023   1.412   .     S
C971   H996    1.109   .     S
C971   H997    1.114   .     S
C972   H1001   1.111   .     S
C972   O1024   1.412   .     S
C972   H1000   1.109   .     S
C972   H999    1.113   .     S
C973   O1025   1.413   .     S
C973   H1002   1.114   .     S
C973   H1003   1.110   .     S
C973   H1004   1.110   .     S
C974   C977    1.396   .     A
C974   O1022   1.381   .     S
C975   O1026   1.413   .     S
C975   H1007   1.112   .     S
C975   H1006   1.110   .     S
C975   H1008   1.109   .     S
C976   H983    1.063   .     S
C977   H994    1.085   .     S
C977   C118    1.395   1_556 S
C978   O1023   1.396   .     S
C978   C1544   1.400   1_545 S
C979   O1024   1.400   .     S
C979   C1224   1.404   .     S
C980   H1012   1.083   .     S
C980   C1037   1.398   .     S
C980   C1260   1.400   .     S
Cu981  O1029   1.957   .     S
Cu981  N1017   2.024   .     S
Cu981  O1033   1.958   .     S
Cu981  O1030   1.960   .     S
Cu981  O1019   1.951   .     S
Cu982  O1031   1.960   .     S
Cu982  O1032   1.958   .     S
Cu982  N1018   2.024   .     S
Cu982  O1028   1.957   .     S
Cu982  O1027   1.951   .     S
Cu982  Cu1075  2.694   .     S
O1027  C1046   1.294   .     S
O1031  C1044   1.299   .     S
O1034  C1051   1.383   .     S
C1035  O1122   1.294   .     A
C1035  C1038   1.444   .     S
C1035  O925    1.294   1_655 S
C1036  H1107   1.082   .     S
C1036  C1637   1.404   1_545 S
C1037  C1046   1.445   .     S
C1037  C1073   1.406   .     A
C1038  C1072   1.404   .     A
C1038  C848    1.399   1_655 S
C1039  O1119   1.388   .     S
C1039  C1041   1.434   .     A
C1039  N1112   1.373   .     A
C1040  N1111   1.373   .     A
C1040  C1042   1.428   .     A
C1040  O1120   1.383   .     S
C1041  N1111   1.365   .     A
C1041  H1103   1.080   .     S
C1042  N1112   1.364   .     A
C1042  H1104   1.081   .     S
C1043  O1126   1.301   .     A
C1043  C1045   1.470   .     S
C1043  O936    1.300   1_655 S
C1044  O1127   1.305   .     A
C1044  C1047   1.477   .     S
C1045  C1052   1.406   .     A
C1045  C1050   1.409   .     A
C1046  O1123   1.294   .     A
C1047  C1053   1.398   .     A
C1047  C1051   1.411   .     A
C1048  C1050   1.390   .     A
C1048  C1056   1.398   .     A
C1048  H1099   1.083   .     S
C1049  C1058   1.397   .     A
C1049  H1105   1.078   .     S
C1049  C1051   1.400   .     A
C1050  O926    1.383   1_655 S
C1052  H1109   1.074   .     S
C1052  C1054   1.406   .     A
C1053  C1055   1.409   .     A
C1053  H1108   1.078   .     S
C1054  C1059   1.433   .     A
C1054  C1056   1.414   .     A
C1055  C1060   1.416   .     A
C1055  C1058   1.408   .     A
C1056  C224    1.380   1_556 S
C1057  C1060   1.413   .     A
C1057  O1115   1.382   .     S
C1057  C1070   1.378   .     A
C1059  C1068   1.428   .     A
C1059  C214    1.427   1_556 S
C1061  H1078   1.110   .     S
C1061  H1079   1.114   .     S
C1061  H1110   1.109   .     S
C1061  O1128   1.418   .     S
C1062  H1081   1.113   .     S
C1062  H1080   1.108   .     S
C1062  H1082   1.113   .     S
C1062  O1114   1.410   .     S
C1063  H1083   1.113   .     S
C1063  H1084   1.115   .     S
C1063  O1115   1.411   .     S
C1063  H1085   1.104   .     S
C1064  H1087   1.113   .     S
C1064  O1116   1.410   .     S
C1064  H1086   1.113   .     S
C1064  H1089   1.109   .     S
C1065  H1092   1.111   .     S
C1065  O1117   1.412   .     S
C1065  H1090   1.109   .     S
C1065  H1091   1.114   .     S
C1066  H1095   1.111   .     S
C1066  O1118   1.412   .     S
C1066  H1094   1.109   .     S
C1066  H1093   1.113   .     S
C1067  O1119   1.413   .     S
C1067  H1096   1.114   .     S
C1067  H1097   1.110   .     S
C1067  H1098   1.110   .     S
C1068  C1071   1.396   .     A
C1068  O1116   1.381   .     S
C1069  O1120   1.413   .     S
C1069  H1101   1.112   .     S
C1069  H1100   1.110   .     S
C1069  H1102   1.109   .     S
C1070  H1077   1.063   .     S
C1071  H1088   1.085   .     S
C1071  C212    1.395   1_556 S
C1072  O1117   1.396   .     S
C1072  C1638   1.400   1_545 S
C1073  O1118   1.400   .     S
C1073  C1318   1.404   .     S
C1074  H1106   1.083   .     S
C1074  C849    1.398   1_655 S
C1074  C1354   1.400   .     S
Cu1075 O1123   1.957   .     S
Cu1075 N1111   2.024   .     S
Cu1075 O1127   1.958   .     S
Cu1075 O1124   1.960   .     S
Cu1075 O1113   1.951   .     S
Cu1076 O1125   1.960   .     S
Cu1076 O1126   1.958   .     S
Cu1076 N1112   2.024   .     S
Cu1076 O1122   1.957   .     S
Cu1076 O1121   1.951   .     S
Cu1076 Cu887   2.694   1_655 S
O1121  C858    1.294   1_655 S
O1125  C856    1.299   1_655 S
O1128  C863    1.383   1_655 S
C1129  O1216   1.294   .     A
C1129  C1132   1.444   .     S
C1129  O1301   1.294   .     S
C1130  H1201   1.082   .     S
C1130  C1320   1.399   1_455 S
C1131  C1140   1.445   .     S
C1131  C1167   1.406   .     A
C1131  C1356   1.398   1_455 S
C1132  C1166   1.404   .     A
C1132  C1224   1.399   .     S
C1133  O1213   1.388   .     S
C1133  C1135   1.434   .     A
C1133  N1206   1.373   .     A
C1134  N1205   1.373   .     A
C1134  C1136   1.428   .     A
C1134  O1214   1.383   .     S
C1135  N1205   1.365   .     A
C1135  H1197   1.080   .     S
C1136  N1206   1.364   .     A
C1136  H1198   1.081   .     S
C1137  O1220   1.301   .     A
C1137  C1139   1.470   .     S
C1137  O1312   1.300   .     S
C1138  O1221   1.305   .     A
C1138  C1141   1.477   .     S
C1138  O1407   1.299   1_455 S
C1139  C1146   1.406   .     A
C1139  C1144   1.409   .     A
C1140  O1217   1.294   .     A
C1140  O1403   1.294   1_455 S
C1141  C1147   1.398   .     A
C1141  C1145   1.411   .     A
C1142  C1144   1.390   .     A
C1142  C1150   1.398   .     A
C1142  H1193   1.083   .     S
C1143  C1152   1.397   .     A
C1143  H1199   1.078   .     S
C1143  C1145   1.400   .     A
C1144  O1302   1.383   .     S
C1145  O1410   1.383   1_455 S
C1146  H1203   1.074   .     S
C1146  C1148   1.406   .     A
C1147  C1149   1.409   .     A
C1147  H1202   1.078   .     S
C1148  C1153   1.433   .     A
C1148  C1150   1.414   .     A
C1149  C1154   1.416   .     A
C1149  C1152   1.408   .     A
C1150  C318    1.380   1_556 S
C1151  C1154   1.413   .     A
C1151  O1209   1.382   .     S
C1151  C1164   1.378   .     A
C1153  C1162   1.428   .     A
C1153  C308    1.427   1_556 S
C1155  H1172   1.110   .     S
C1155  H1173   1.114   .     S
C1155  H1204   1.109   .     S
C1155  O1222   1.418   .     S
C1156  H1175   1.113   .     S
C1156  H1174   1.108   .     S
C1156  H1176   1.113   .     S
C1156  O1208   1.410   .     S
C1157  H1177   1.113   .     S
C1157  H1178   1.115   .     S
C1157  O1209   1.411   .     S
C1157  H1179   1.104   .     S
C1158  H1181   1.113   .     S
C1158  O1210   1.410   .     S
C1158  H1180   1.113   .     S
C1158  H1183   1.109   .     S
C1159  H1186   1.111   .     S
C1159  O1211   1.412   .     S
C1159  H1184   1.109   .     S
C1159  H1185   1.114   .     S
C1160  H1189   1.111   .     S
C1160  O1212   1.412   .     S
C1160  H1188   1.109   .     S
C1160  H1187   1.113   .     S
C1161  O1213   1.413   .     S
C1161  H1190   1.114   .     S
C1161  H1191   1.110   .     S
C1161  H1192   1.110   .     S
C1162  C1165   1.396   .     A
C1162  O1210   1.381   .     S
C1163  O1214   1.413   .     S
C1163  H1195   1.112   .     S
C1163  H1194   1.110   .     S
C1163  H1196   1.109   .     S
C1164  H1171   1.063   .     S
C1165  H1182   1.085   .     S
C1165  C306    1.395   1_556 S
C1166  O1211   1.396   .     S
C1167  O1212   1.400   .     S
C1167  C1412   1.404   .     S
C1168  H1200   1.083   .     S
C1168  C1225   1.398   .     S
C1168  C1448   1.400   .     S
Cu1169 O1217   1.957   .     S
Cu1169 N1205   2.024   .     S
Cu1169 O1221   1.958   .     S
Cu1169 O1218   1.960   .     S
Cu1169 O1207   1.951   .     S
Cu1169 Cu1358  2.694   1_455 S
Cu1170 O1219   1.960   .     S
Cu1170 O1220   1.958   .     S
Cu1170 N1206   2.024   .     S
Cu1170 O1216   1.957   .     S
Cu1170 O1215   1.951   .     S
Cu1170 Cu1263  2.694   .     S
O1207  C1317   1.294   1_455 S
O1208  C1332   1.383   1_455 S
O1215  C1234   1.294   .     S
O1218  C1325   1.300   1_455 S
O1219  C1232   1.299   .     S
O1222  C1239   1.383   .     S
C1223  O1310   1.294   .     A
C1223  C1226   1.444   .     S
C1223  O1395   1.294   .     S
C1224  H1295   1.082   .     S
C1225  C1234   1.445   .     S
C1225  C1261   1.406   .     A
C1226  C1260   1.404   .     A
C1226  C1318   1.399   .     S
C1227  O1307   1.388   .     S
C1227  C1229   1.434   .     A
C1227  N1300   1.373   .     A
C1228  N1299   1.373   .     A
C1228  C1230   1.428   .     A
C1228  O1308   1.383   .     S
C1229  N1299   1.365   .     A
C1229  H1291   1.080   .     S
C1230  N1300   1.364   .     A
C1230  H1292   1.081   .     S
C1231  O1314   1.301   .     A
C1231  C1233   1.470   .     S
C1231  O1406   1.300   .     S
C1232  O1315   1.305   .     A
C1232  C1235   1.477   .     S
C1233  C1240   1.406   .     A
C1233  C1238   1.409   .     A
C1234  O1311   1.294   .     A
C1235  C1241   1.398   .     A
C1235  C1239   1.411   .     A
C1236  C1238   1.390   .     A
C1236  C1244   1.398   .     A
C1236  H1287   1.083   .     S
C1237  C1246   1.397   .     A
C1237  H1293   1.078   .     S
C1237  C1239   1.400   .     A
C1238  O1396   1.383   .     S
C1240  H1297   1.074   .     S
C1240  C1242   1.406   .     A
C1241  C1243   1.409   .     A
C1241  H1296   1.078   .     S
C1242  C1247   1.433   .     A
C1242  C1244   1.414   .     A
C1243  C1248   1.416   .     A
C1243  C1246   1.408   .     A
C1244  C412    1.380   1_556 S
C1245  C1248   1.413   .     A
C1245  O1303   1.382   .     S
C1245  C1258   1.378   .     A
C1247  C1256   1.428   .     A
C1247  C402    1.427   1_556 S
C1249  H1266   1.110   .     S
C1249  H1267   1.114   .     S
C1249  H1298   1.109   .     S
C1249  O1316   1.418   .     S
C1250  H1269   1.113   .     S
C1250  H1268   1.108   .     S
C1250  H1270   1.113   .     S
C1250  O1302   1.410   .     S
C1251  H1271   1.113   .     S
C1251  H1272   1.115   .     S
C1251  O1303   1.411   .     S
C1251  H1273   1.104   .     S
C1252  H1275   1.113   .     S
C1252  O1304   1.410   .     S
C1252  H1274   1.113   .     S
C1252  H1277   1.109   .     S
C1253  H1280   1.111   .     S
C1253  O1305   1.412   .     S
C1253  H1278   1.109   .     S
C1253  H1279   1.114   .     S
C1254  H1283   1.111   .     S
C1254  O1306   1.412   .     S
C1254  H1282   1.109   .     S
C1254  H1281   1.113   .     S
C1255  O1307   1.413   .     S
C1255  H1284   1.114   .     S
C1255  H1285   1.110   .     S
C1255  H1286   1.110   .     S
C1256  C1259   1.396   .     A
C1256  O1304   1.381   .     S
C1257  O1308   1.413   .     S
C1257  H1289   1.112   .     S
C1257  H1288   1.110   .     S
C1257  H1290   1.109   .     S
C1258  H1265   1.063   .     S
C1259  H1276   1.085   .     S
C1259  C400    1.395   1_556 S
C1260  O1305   1.396   .     S
C1261  O1306   1.400   .     S
C1261  C1506   1.404   .     S
C1262  H1294   1.083   .     S
C1262  C1319   1.398   .     S
C1262  C1542   1.400   .     S
Cu1263 O1311   1.957   .     S
Cu1263 N1299   2.024   .     S
Cu1263 O1315   1.958   .     S
Cu1263 O1312   1.960   .     S
Cu1263 O1301   1.951   .     S
Cu1264 O1313   1.960   .     S
Cu1264 O1314   1.958   .     S
Cu1264 N1300   2.024   .     S
Cu1264 O1310   1.957   .     S
Cu1264 O1309   1.951   .     S
Cu1264 Cu1357  2.694   .     S
O1309  C1328   1.294   .     S
O1313  C1326   1.299   .     S
O1316  C1333   1.383   .     S
C1317  O1404   1.294   .     A
C1317  C1320   1.444   .     S
C1317  O1207   1.294   1_655 S
C1318  H1389   1.082   .     S
C1319  C1328   1.445   .     S
C1319  C1355   1.406   .     A
C1320  C1354   1.404   .     A
C1320  C1130   1.399   1_655 S
C1321  O1401   1.388   .     S
C1321  C1323   1.434   .     A
C1321  N1394   1.373   .     A
C1322  N1393   1.373   .     A
C1322  C1324   1.428   .     A
C1322  O1402   1.383   .     S
C1323  N1393   1.365   .     A
C1323  H1385   1.080   .     S
C1324  N1394   1.364   .     A
C1324  H1386   1.081   .     S
C1325  O1408   1.301   .     A
C1325  C1327   1.470   .     S
C1325  O1218   1.300   1_655 S
C1326  O1409   1.305   .     A
C1326  C1329   1.477   .     S
C1327  C1334   1.406   .     A
C1327  C1332   1.409   .     A
C1328  O1405   1.294   .     A
C1329  C1335   1.398   .     A
C1329  C1333   1.411   .     A
C1330  C1332   1.390   .     A
C1330  C1338   1.398   .     A
C1330  H1381   1.083   .     S
C1331  C1340   1.397   .     A
C1331  H1387   1.078   .     S
C1331  C1333   1.400   .     A
C1332  O1208   1.383   1_655 S
C1334  H1391   1.074   .     S
C1334  C1336   1.406   .     A
C1335  C1337   1.409   .     A
C1335  H1390   1.078   .     S
C1336  C1341   1.433   .     A
C1336  C1338   1.414   .     A
C1337  C1342   1.416   .     A
C1337  C1340   1.408   .     A
C1338  C506    1.380   1_556 S
C1339  C1342   1.413   .     A
C1339  O1397   1.382   .     S
C1339  C1352   1.378   .     A
C1341  C1350   1.428   .     A
C1341  C496    1.427   1_556 S
C1343  H1360   1.110   .     S
C1343  H1361   1.114   .     S
C1343  H1392   1.109   .     S
C1343  O1410   1.418   .     S
C1344  H1363   1.113   .     S
C1344  H1362   1.108   .     S
C1344  H1364   1.113   .     S
C1344  O1396   1.410   .     S
C1345  H1365   1.113   .     S
C1345  H1366   1.115   .     S
C1345  O1397   1.411   .     S
C1345  H1367   1.104   .     S
C1346  H1369   1.113   .     S
C1346  O1398   1.410   .     S
C1346  H1368   1.113   .     S
C1346  H1371   1.109   .     S
C1347  H1374   1.111   .     S
C1347  O1399   1.412   .     S
C1347  H1372   1.109   .     S
C1347  H1373   1.114   .     S
C1348  H1377   1.111   .     S
C1348  O1400   1.412   .     S
C1348  H1376   1.109   .     S
C1348  H1375   1.113   .     S
C1349  O1401   1.413   .     S
C1349  H1378   1.114   .     S
C1349  H1379   1.110   .     S
C1349  H1380   1.110   .     S
C1350  C1353   1.396   .     A
C1350  O1398   1.381   .     S
C1351  O1402   1.413   .     S
C1351  H1383   1.112   .     S
C1351  H1382   1.110   .     S
C1351  H1384   1.109   .     S
C1352  H1359   1.063   .     S
C1353  H1370   1.085   .     S
C1353  C494    1.395   1_556 S
C1354  O1399   1.396   .     S
C1355  O1400   1.400   .     S
C1355  C1600   1.404   .     S
C1356  H1388   1.083   .     S
C1356  C1131   1.398   1_655 S
C1356  C1636   1.400   .     S
Cu1357 O1405   1.957   .     S
Cu1357 N1393   2.024   .     S
Cu1357 O1409   1.958   .     S
Cu1357 O1406   1.960   .     S
Cu1357 O1395   1.951   .     S
Cu1358 O1407   1.960   .     S
Cu1358 O1408   1.958   .     S
Cu1358 N1394   2.024   .     S
Cu1358 O1404   1.957   .     S
Cu1358 O1403   1.951   .     S
Cu1358 Cu1169  2.694   1_655 S
O1403  C1140   1.294   1_655 S
O1407  C1138   1.299   1_655 S
O1410  C1145   1.383   1_655 S
C1411  O1498   1.294   .     A
C1411  C1414   1.444   .     S
C1411  O1583   1.294   .     S
C1412  H1483   1.082   .     S
C1412  C1602   1.399   1_455 S
C1413  C1422   1.445   .     S
C1413  C1449   1.406   .     A
C1413  C1638   1.398   1_455 S
C1414  C1448   1.404   .     A
C1414  C1506   1.399   .     S
C1415  O1495   1.388   .     S
C1415  C1417   1.434   .     A
C1415  N1488   1.373   .     A
C1416  N1487   1.373   .     A
C1416  C1418   1.428   .     A
C1416  O1496   1.383   .     S
C1417  N1487   1.365   .     A
C1417  H1479   1.080   .     S
C1418  N1488   1.364   .     A
C1418  H1480   1.081   .     S
C1419  O1502   1.301   .     A
C1419  C1421   1.470   .     S
C1419  O1594   1.300   .     S
C1420  O1503   1.305   .     A
C1420  C1423   1.477   .     S
C1420  O1689   1.299   1_455 S
C1421  C1428   1.406   .     A
C1421  C1426   1.409   .     A
C1422  O1499   1.294   .     A
C1422  O1685   1.294   1_455 S
C1423  C1429   1.398   .     A
C1423  C1427   1.411   .     A
C1424  C1426   1.390   .     A
C1424  C1432   1.398   .     A
C1424  H1475   1.083   .     S
C1425  C1434   1.397   .     A
C1425  H1481   1.078   .     S
C1425  C1427   1.400   .     A
C1426  O1584   1.383   .     S
C1427  O1692   1.383   1_455 S
C1428  H1485   1.074   .     S
C1428  C1430   1.406   .     A
C1429  C1431   1.409   .     A
C1429  H1484   1.078   .     S
C1430  C1435   1.433   .     A
C1430  C1432   1.414   .     A
C1431  C1436   1.416   .     A
C1431  C1434   1.408   .     A
C1432  C600    1.380   1_556 S
C1433  C1436   1.413   .     A
C1433  O1491   1.382   .     S
C1433  C1446   1.378   .     A
C1435  C1444   1.428   .     A
C1435  C590    1.427   1_556 S
C1437  H1454   1.110   .     S
C1437  H1455   1.114   .     S
C1437  H1486   1.109   .     S
C1437  O1504   1.418   .     S
C1438  H1457   1.113   .     S
C1438  H1456   1.108   .     S
C1438  H1458   1.113   .     S
C1438  O1490   1.410   .     S
C1439  H1459   1.113   .     S
C1439  H1460   1.115   .     S
C1439  O1491   1.411   .     S
C1439  H1461   1.104   .     S
C1440  H1463   1.113   .     S
C1440  O1492   1.410   .     S
C1440  H1462   1.113   .     S
C1440  H1465   1.109   .     S
C1441  H1468   1.111   .     S
C1441  O1493   1.412   .     S
C1441  H1466   1.109   .     S
C1441  H1467   1.114   .     S
C1442  H1471   1.111   .     S
C1442  O1494   1.412   .     S
C1442  H1470   1.109   .     S
C1442  H1469   1.113   .     S
C1443  O1495   1.413   .     S
C1443  H1472   1.114   .     S
C1443  H1473   1.110   .     S
C1443  H1474   1.110   .     S
C1444  C1447   1.396   .     A
C1444  O1492   1.381   .     S
C1445  O1496   1.413   .     S
C1445  H1477   1.112   .     S
C1445  H1476   1.110   .     S
C1445  H1478   1.109   .     S
C1446  H1453   1.063   .     S
C1447  H1464   1.085   .     S
C1447  C588    1.395   1_556 S
C1448  O1493   1.396   .     S
C1449  O1494   1.400   .     S
C1449  C848    1.404   1_565 S
C1450  H1482   1.083   .     S
C1450  C1507   1.398   .     S
C1450  C884    1.400   1_565 S
Cu1451 O1499   1.957   .     S
Cu1451 N1487   2.024   .     S
Cu1451 O1503   1.958   .     S
Cu1451 O1500   1.960   .     S
Cu1451 O1489   1.951   .     S
Cu1451 Cu1640  2.694   1_455 S
Cu1452 O1501   1.960   .     S
Cu1452 O1502   1.958   .     S
Cu1452 N1488   2.024   .     S
Cu1452 O1498   1.957   .     S
Cu1452 O1497   1.951   .     S
Cu1452 Cu1545  2.694   .     S
O1489  C1599   1.294   1_455 S
O1490  C1614   1.383   1_455 S
O1497  C1516   1.294   .     S
O1500  C1607   1.300   1_455 S
O1501  C1514   1.299   .     S
O1504  C1521   1.383   .     S
C1505  O1592   1.294   .     A
C1505  C1508   1.444   .     S
C1505  O1677   1.294   .     S
C1506  H1577   1.082   .     S
C1507  C1516   1.445   .     S
C1507  C1543   1.406   .     A
C1508  C1542   1.404   .     A
C1508  C1600   1.399   .     S
C1509  O1589   1.388   .     S
C1509  C1511   1.434   .     A
C1509  N1582   1.373   .     A
C1510  N1581   1.373   .     A
C1510  C1512   1.428   .     A
C1510  O1590   1.383   .     S
C1511  N1581   1.365   .     A
C1511  H1573   1.080   .     S
C1512  N1582   1.364   .     A
C1512  H1574   1.081   .     S
C1513  O1596   1.301   .     A
C1513  C1515   1.470   .     S
C1513  O1688   1.300   .     S
C1514  O1597   1.305   .     A
C1514  C1517   1.477   .     S
C1515  C1522   1.406   .     A
C1515  C1520   1.409   .     A
C1516  O1593   1.294   .     A
C1517  C1523   1.398   .     A
C1517  C1521   1.411   .     A
C1518  C1520   1.390   .     A
C1518  C1526   1.398   .     A
C1518  H1569   1.083   .     S
C1519  C1528   1.397   .     A
C1519  H1575   1.078   .     S
C1519  C1521   1.400   .     A
C1520  O1678   1.383   .     S
C1522  H1579   1.074   .     S
C1522  C1524   1.406   .     A
C1523  C1525   1.409   .     A
C1523  H1578   1.078   .     S
C1524  C1529   1.433   .     A
C1524  C1526   1.414   .     A
C1525  C1530   1.416   .     A
C1525  C1528   1.408   .     A
C1526  C694    1.380   1_556 S
C1527  C1530   1.413   .     A
C1527  O1585   1.382   .     S
C1527  C1540   1.378   .     A
C1529  C1538   1.428   .     A
C1529  C684    1.427   1_556 S
C1531  H1548   1.110   .     S
C1531  H1549   1.114   .     S
C1531  H1580   1.109   .     S
C1531  O1598   1.418   .     S
C1532  H1551   1.113   .     S
C1532  H1550   1.108   .     S
C1532  H1552   1.113   .     S
C1532  O1584   1.410   .     S
C1533  H1553   1.113   .     S
C1533  H1554   1.115   .     S
C1533  O1585   1.411   .     S
C1533  H1555   1.104   .     S
C1534  H1557   1.113   .     S
C1534  O1586   1.410   .     S
C1534  H1556   1.113   .     S
C1534  H1559   1.109   .     S
C1535  H1562   1.111   .     S
C1535  O1587   1.412   .     S
C1535  H1560   1.109   .     S
C1535  H1561   1.114   .     S
C1536  H1565   1.111   .     S
C1536  O1588   1.412   .     S
C1536  H1564   1.109   .     S
C1536  H1563   1.113   .     S
C1537  O1589   1.413   .     S
C1537  H1566   1.114   .     S
C1537  H1567   1.110   .     S
C1537  H1568   1.110   .     S
C1538  C1541   1.396   .     A
C1538  O1586   1.381   .     S
C1539  O1590   1.413   .     S
C1539  H1571   1.112   .     S
C1539  H1570   1.110   .     S
C1539  H1572   1.109   .     S
C1540  H1547   1.063   .     S
C1541  H1558   1.085   .     S
C1541  C682    1.395   1_556 S
C1542  O1587   1.396   .     S
C1543  O1588   1.400   .     S
C1543  C942    1.404   1_565 S
C1544  H1576   1.083   .     S
C1544  C1601   1.398   .     S
C1544  C978    1.400   1_565 S
Cu1545 O1593   1.957   .     S
Cu1545 N1581   2.024   .     S
Cu1545 O1597   1.958   .     S
Cu1545 O1594   1.960   .     S
Cu1545 O1583   1.951   .     S
Cu1546 O1595   1.960   .     S
Cu1546 O1596   1.958   .     S
Cu1546 N1582   2.024   .     S
Cu1546 O1592   1.957   .     S
Cu1546 O1591   1.951   .     S
Cu1546 Cu1639  2.694   .     S
O1591  C1610   1.294   .     S
O1595  C1608   1.299   .     S
O1598  C1615   1.383   .     S
C1599  O1686   1.294   .     A
C1599  C1602   1.444   .     S
C1599  O1489   1.294   1_655 S
C1600  H1671   1.082   .     S
C1601  C1610   1.445   .     S
C1601  C1637   1.406   .     A
C1602  C1636   1.404   .     A
C1602  C1412   1.399   1_655 S
C1603  O1683   1.388   .     S
C1603  C1605   1.434   .     A
C1603  N1676   1.373   .     A
C1604  N1675   1.373   .     A
C1604  C1606   1.428   .     A
C1604  O1684   1.383   .     S
C1605  N1675   1.365   .     A
C1605  H1667   1.080   .     S
C1606  N1676   1.364   .     A
C1606  H1668   1.081   .     S
C1607  O1690   1.301   .     A
C1607  C1609   1.470   .     S
C1607  O1500   1.300   1_655 S
C1608  O1691   1.305   .     A
C1608  C1611   1.477   .     S
C1609  C1616   1.406   .     A
C1609  C1614   1.409   .     A
C1610  O1687   1.294   .     A
C1611  C1617   1.398   .     A
C1611  C1615   1.411   .     A
C1612  C1614   1.390   .     A
C1612  C1620   1.398   .     A
C1612  H1663   1.083   .     S
C1613  C1622   1.397   .     A
C1613  H1669   1.078   .     S
C1613  C1615   1.400   .     A
C1614  O1490   1.383   1_655 S
C1616  H1673   1.074   .     S
C1616  C1618   1.406   .     A
C1617  C1619   1.409   .     A
C1617  H1672   1.078   .     S
C1618  C1623   1.433   .     A
C1618  C1620   1.414   .     A
C1619  C1624   1.416   .     A
C1619  C1622   1.408   .     A
C1620  C788    1.380   1_556 S
C1621  C1624   1.413   .     A
C1621  O1679   1.382   .     S
C1621  C1634   1.378   .     A
C1623  C1632   1.428   .     A
C1623  C778    1.427   1_556 S
C1625  H1642   1.110   .     S
C1625  H1643   1.114   .     S
C1625  H1674   1.109   .     S
C1625  O1692   1.418   .     S
C1626  H1645   1.113   .     S
C1626  H1644   1.108   .     S
C1626  H1646   1.113   .     S
C1626  O1678   1.410   .     S
C1627  H1647   1.113   .     S
C1627  H1648   1.115   .     S
C1627  O1679   1.411   .     S
C1627  H1649   1.104   .     S
C1628  H1651   1.113   .     S
C1628  O1680   1.410   .     S
C1628  H1650   1.113   .     S
C1628  H1653   1.109   .     S
C1629  H1656   1.111   .     S
C1629  O1681   1.412   .     S
C1629  H1654   1.109   .     S
C1629  H1655   1.114   .     S
C1630  H1659   1.111   .     S
C1630  O1682   1.412   .     S
C1630  H1658   1.109   .     S
C1630  H1657   1.113   .     S
C1631  O1683   1.413   .     S
C1631  H1660   1.114   .     S
C1631  H1661   1.110   .     S
C1631  H1662   1.110   .     S
C1632  C1635   1.396   .     A
C1632  O1680   1.381   .     S
C1633  O1684   1.413   .     S
C1633  H1665   1.112   .     S
C1633  H1664   1.110   .     S
C1633  H1666   1.109   .     S
C1634  H1641   1.063   .     S
C1635  H1652   1.085   .     S
C1635  C776    1.395   1_556 S
C1636  O1681   1.396   .     S
C1637  O1682   1.400   .     S
C1637  C1036   1.404   1_565 S
C1638  H1670   1.083   .     S
C1638  C1413   1.398   1_655 S
C1638  C1072   1.400   1_565 S
Cu1639 O1687   1.957   .     S
Cu1639 N1675   2.024   .     S
Cu1639 O1691   1.958   .     S
Cu1639 O1688   1.960   .     S
Cu1639 O1677   1.951   .     S
Cu1640 O1689   1.960   .     S
Cu1640 O1690   1.958   .     S
Cu1640 N1676   2.024   .     S
Cu1640 O1686   1.957   .     S
Cu1640 O1685   1.951   .     S
Cu1640 Cu1451  2.694   1_655 S
O1685  C1422   1.294   1_655 S
O1689  C1420   1.299   1_655 S
O1692  C1427   1.383   1_655 S
